MODEL 1
REMARK VINA RESULT:      -9.8      0.000      0.000
REMARK  7 active torsions:
REMARK  status: ('A' for Active; 'I' for Inactive)
REMARK    1  A    between atoms: C_2  and  C_3 
REMARK    2  A    between atoms: C_5  and  N_6 
REMARK    3  A    between atoms: C_8  and  C_9 
REMARK    4  A    between atoms: C_15  and  N_16 
REMARK       I    between atoms: N_16  and  C_17 
REMARK    5  A    between atoms: C_17  and  C_18 
REMARK    6  A    between atoms: C_18  and  O_19 
REMARK    7  A    between atoms: O_19  and  C_20 
ROOT
HETATM    1  N   UNL     1      42.591 -16.129   5.987  1.00  0.00    -0.044 N 
HETATM    2  N   UNL     1      42.561 -17.424   5.538  1.00  0.00    -0.148 NA
HETATM    3  C   UNL     1      43.723 -17.939   5.953  1.00  0.00     0.115 C 
HETATM    4  C   UNL     1      44.472 -17.026   6.728  1.00  0.00     0.087 C 
HETATM    5  C   UNL     1      43.672 -15.913   6.836  1.00  0.00     0.152 C 
ENDROOT
BRANCH   5   6
HETATM    6  N   UNL     1      43.984 -14.822   7.635  1.00  0.00    -0.309 N 
HETATM    7  C   UNL     1      44.845 -13.776   7.147  1.00  0.00     0.247 C 
HETATM    8  O   UNL     1      45.082 -13.699   5.950  1.00  0.00    -0.271 OA
HETATM    9  H   UNL     1      43.520 -14.682   8.526  1.00  0.00     0.170 HD
BRANCH   7  10
HETATM   10  C   UNL     1      45.388 -12.841   8.206  1.00  0.00     0.278 C 
BRANCH  10  11
HETATM   11  O   UNL     1      44.652 -12.998   9.417  1.00  0.00    -0.342 OA
BRANCH  11  12
HETATM   12  C   UNL     1      43.941 -11.890   9.803  1.00  0.00     0.070 A 
HETATM   13  C   UNL     1      44.138 -11.479  11.124  1.00  0.00     0.049 A 
HETATM   14  C   UNL     1      43.459 -10.363  11.647  1.00  0.00    -0.023 A 
HETATM   15  C   UNL     1      42.579  -9.638  10.813  1.00  0.00    -0.026 A 
HETATM   16  C   UNL     1      43.630  -9.953  12.979  1.00  0.00     0.012 A 
HETATM   17  C   UNL     1      42.405 -10.045   9.484  1.00  0.00     0.015 A 
HETATM   18  C   UNL     1      41.896  -8.525  11.330  1.00  0.00     0.012 A 
HETATM   19  C   UNL     1      43.081 -11.161   8.980  1.00  0.00     0.037 A 
HETATM   20  C   UNL     1      42.077  -8.133  12.656  1.00  0.00     0.001 A 
HETATM   21  C   UNL     1      42.943  -8.846  13.480  1.00  0.00     0.001 A 
ENDBRANCH  11  12
ENDBRANCH  10  11
ENDBRANCH   7  10
ENDBRANCH   5   6
BRANCH   1  22
HETATM   22  C   UNL     1      41.685 -15.200   5.434  1.00  0.00     0.732 A 
HETATM   23  N   UNL     1      41.460 -14.021   5.927  1.00  0.00    -0.067 NA
HETATM   24  C   UNL     1      40.559 -13.232   5.234  1.00  0.00     0.062 A 
HETATM   25  C   UNL     1      39.968 -13.613   4.090  1.00  0.00     0.103 A 
HETATM   26  C   UNL     1      40.268 -14.943   3.537  1.00  0.00     0.261 A 
HETATM   27  N   UNL     1      41.123 -15.686   4.284  1.00  0.00    -0.152 N 
HETATM   28  O   UNL     1      39.783 -15.325   2.482  1.00  0.00    -0.268 OA
HETATM   29  H   UNL     1      41.388 -16.605   3.943  1.00  0.00     0.187 HD
BRANCH  24  30
HETATM   30  C   UNL     1      40.249 -11.864   5.827  1.00  0.00     0.030 C 
HETATM   31  C   UNL     1      39.596 -11.973   7.208  1.00  0.00     0.016 C 
HETATM   32  C   UNL     1      39.381 -11.042   4.874  1.00  0.00     0.016 C 
ENDBRANCH  24  30
ENDBRANCH   1  22
BRANCH   3  33
HETATM   33  C   UNL     1      44.144 -19.333   5.631  1.00  0.00     0.105 A 
HETATM   34  O   UNL     1      44.790 -19.697   4.481  1.00  0.00    -0.320 OA
HETATM   35  C   UNL     1      45.008 -21.036   4.547  1.00  0.00     0.142 A 
HETATM   36  C   UNL     1      44.512 -21.547   5.723  1.00  0.00     0.027 A 
HETATM   37  C   UNL     1      43.954 -20.450   6.423  1.00  0.00     0.041 A 
ENDBRANCH   3  33
TORSDOF 7
ENDMDL
MODEL 2
REMARK VINA RESULT:      -9.6      3.754      9.529
REMARK  7 active torsions:
REMARK  status: ('A' for Active; 'I' for Inactive)
REMARK    1  A    between atoms: C_2  and  C_3 
REMARK    2  A    between atoms: C_5  and  N_6 
REMARK    3  A    between atoms: C_8  and  C_9 
REMARK    4  A    between atoms: C_15  and  N_16 
REMARK       I    between atoms: N_16  and  C_17 
REMARK    5  A    between atoms: C_17  and  C_18 
REMARK    6  A    between atoms: C_18  and  O_19 
REMARK    7  A    between atoms: O_19  and  C_20 
ROOT
HETATM    1  N   UNL     1      43.699 -16.297   5.816  1.00  0.00    -0.044 N 
HETATM    2  N   UNL     1      44.482 -15.748   6.798  1.00  0.00    -0.148 NA
HETATM    3  C   UNL     1      44.407 -14.431   6.577  1.00  0.00     0.115 C 
HETATM    4  C   UNL     1      43.529 -14.112   5.518  1.00  0.00     0.087 C 
HETATM    5  C   UNL     1      42.996 -15.316   5.123  1.00  0.00     0.152 C 
ENDROOT
BRANCH   5   6
HETATM    6  N   UNL     1      41.981 -15.432   4.184  1.00  0.00    -0.309 N 
HETATM    7  C   UNL     1      42.278 -15.433   2.775  1.00  0.00     0.247 C 
HETATM    8  O   UNL     1      43.429 -15.608   2.402  1.00  0.00    -0.271 OA
HETATM    9  H   UNL     1      41.029 -15.637   4.471  1.00  0.00     0.170 HD
BRANCH   7  10
HETATM   10  C   UNL     1      41.091 -15.209   1.864  1.00  0.00     0.278 C 
BRANCH  10  11
HETATM   11  O   UNL     1      41.257 -15.951   0.659  1.00  0.00    -0.342 OA
BRANCH  11  12
HETATM   12  C   UNL     1      41.356 -15.186  -0.477  1.00  0.00     0.070 A 
HETATM   13  C   UNL     1      41.920 -13.921  -0.302  1.00  0.00     0.049 A 
HETATM   14  C   UNL     1      42.067 -13.035  -1.385  1.00  0.00    -0.023 A 
HETATM   15  C   UNL     1      41.653 -13.443  -2.672  1.00  0.00    -0.026 A 
HETATM   16  C   UNL     1      42.610 -11.750  -1.219  1.00  0.00     0.012 A 
HETATM   17  C   UNL     1      41.109 -14.723  -2.841  1.00  0.00     0.015 A 
HETATM   18  C   UNL     1      41.794 -12.562  -3.756  1.00  0.00     0.012 A 
HETATM   19  C   UNL     1      40.962 -15.590  -1.753  1.00  0.00     0.037 A 
HETATM   20  C   UNL     1      42.334 -11.290  -3.573  1.00  0.00     0.001 A 
HETATM   21  C   UNL     1      42.742 -10.884  -2.306  1.00  0.00     0.001 A 
ENDBRANCH  11  12
ENDBRANCH  10  11
ENDBRANCH   7  10
ENDBRANCH   5   6
BRANCH   1  22
HETATM   22  C   UNL     1      43.828 -17.674   5.538  1.00  0.00     0.732 A 
HETATM   23  N   UNL     1      44.113 -18.157   4.368  1.00  0.00    -0.067 NA
HETATM   24  C   UNL     1      44.229 -19.533   4.288  1.00  0.00     0.062 A 
HETATM   25  C   UNL     1      44.106 -20.350   5.348  1.00  0.00     0.103 A 
HETATM   26  C   UNL     1      43.817 -19.770   6.668  1.00  0.00     0.261 A 
HETATM   27  N   UNL     1      43.670 -18.422   6.674  1.00  0.00    -0.152 N 
HETATM   28  O   UNL     1      43.729 -20.466   7.670  1.00  0.00    -0.268 OA
HETATM   29  H   UNL     1      43.492 -17.960   7.561  1.00  0.00     0.187 HD
BRANCH  24  30
HETATM   30  C   UNL     1      44.515 -20.118   2.911  1.00  0.00     0.030 C 
HETATM   31  C   UNL     1      43.600 -19.525   1.836  1.00  0.00     0.016 C 
HETATM   32  C   UNL     1      44.415 -21.643   2.936  1.00  0.00     0.016 C 
ENDBRANCH  24  30
ENDBRANCH   1  22
BRANCH   3  33
HETATM   33  C   UNL     1      45.165 -13.436   7.389  1.00  0.00     0.105 A 
HETATM   34  O   UNL     1      46.422 -12.990   7.084  1.00  0.00    -0.320 OA
HETATM   35  C   UNL     1      46.776 -12.097   8.045  1.00  0.00     0.142 A 
HETATM   36  C   UNL     1      45.769 -11.959   8.969  1.00  0.00     0.027 A 
HETATM   37  C   UNL     1      44.728 -12.822   8.548  1.00  0.00     0.041 A 
ENDBRANCH   3  33
TORSDOF 7
ENDMDL
MODEL 3
REMARK VINA RESULT:      -9.6      1.713      5.548
REMARK  7 active torsions:
REMARK  status: ('A' for Active; 'I' for Inactive)
REMARK    1  A    between atoms: C_2  and  C_3 
REMARK    2  A    between atoms: C_5  and  N_6 
REMARK    3  A    between atoms: C_8  and  C_9 
REMARK    4  A    between atoms: C_15  and  N_16 
REMARK       I    between atoms: N_16  and  C_17 
REMARK    5  A    between atoms: C_17  and  C_18 
REMARK    6  A    between atoms: C_18  and  O_19 
REMARK    7  A    between atoms: O_19  and  C_20 
ROOT
HETATM    1  N   UNL     1      41.956 -15.886   4.089  1.00  0.00    -0.044 N 
HETATM    2  N   UNL     1      41.186 -15.688   2.972  1.00  0.00    -0.148 NA
HETATM    3  C   UNL     1      40.370 -14.684   3.312  1.00  0.00     0.115 C 
HETATM    4  C   UNL     1      40.648 -14.176   4.600  1.00  0.00     0.087 C 
HETATM    5  C   UNL     1      41.745 -14.882   5.031  1.00  0.00     0.152 C 
ENDROOT
BRANCH   5   6
HETATM    6  N   UNL     1      42.424 -14.599   6.208  1.00  0.00    -0.309 N 
HETATM    7  C   UNL     1      43.775 -14.104   6.177  1.00  0.00     0.247 C 
HETATM    8  O   UNL     1      44.235 -13.671   5.130  1.00  0.00    -0.271 OA
HETATM    9  H   UNL     1      41.945 -14.622   7.102  1.00  0.00     0.170 HD
BRANCH   7  10
HETATM   10  C   UNL     1      44.518 -14.171   7.494  1.00  0.00     0.278 C 
BRANCH  10  11
HETATM   11  O   UNL     1      45.295 -12.989   7.673  1.00  0.00    -0.342 OA
BRANCH  11  12
HETATM   12  C   UNL     1      44.951 -12.238   8.770  1.00  0.00     0.070 A 
HETATM   13  C   UNL     1      43.727 -11.572   8.683  1.00  0.00     0.049 A 
HETATM   14  C   UNL     1      43.265 -10.760   9.735  1.00  0.00    -0.023 A 
HETATM   15  C   UNL     1      44.047 -10.635  10.904  1.00  0.00    -0.026 A 
HETATM   16  C   UNL     1      42.048 -10.065   9.651  1.00  0.00     0.012 A 
HETATM   17  C   UNL     1      45.263 -11.325  10.991  1.00  0.00     0.015 A 
HETATM   18  C   UNL     1      43.593  -9.823  11.956  1.00  0.00     0.012 A 
HETATM   19  C   UNL     1      45.713 -12.123   9.934  1.00  0.00     0.037 A 
HETATM   20  C   UNL     1      42.382  -9.139  11.855  1.00  0.00     0.001 A 
HETATM   21  C   UNL     1      41.610  -9.260  10.704  1.00  0.00     0.001 A 
ENDBRANCH  11  12
ENDBRANCH  10  11
ENDBRANCH   7  10
ENDBRANCH   5   6
BRANCH   1  22
HETATM   22  C   UNL     1      42.683 -17.088   4.205  1.00  0.00     0.732 A 
HETATM   23  N   UNL     1      43.067 -17.600   5.334  1.00  0.00    -0.067 NA
HETATM   24  C   UNL     1      43.746 -18.803   5.258  1.00  0.00     0.062 A 
HETATM   25  C   UNL     1      43.973 -19.455   4.106  1.00  0.00     0.103 A 
HETATM   26  C   UNL     1      43.495 -18.866   2.845  1.00  0.00     0.261 A 
HETATM   27  N   UNL     1      42.878 -17.666   2.979  1.00  0.00    -0.152 N 
HETATM   28  O   UNL     1      43.646 -19.434   1.773  1.00  0.00    -0.268 OA
HETATM   29  H   UNL     1      42.505 -17.219   2.146  1.00  0.00     0.187 HD
BRANCH  24  30
HETATM   30  C   UNL     1      44.245 -19.391   6.571  1.00  0.00     0.030 C 
HETATM   31  C   UNL     1      43.660 -20.781   6.836  1.00  0.00     0.016 C 
HETATM   32  C   UNL     1      43.958 -18.444   7.737  1.00  0.00     0.016 C 
ENDBRANCH  24  30
ENDBRANCH   1  22
BRANCH   3  33
HETATM   33  C   UNL     1      39.306 -14.170   2.401  1.00  0.00     0.105 A 
HETATM   34  O   UNL     1      38.952 -12.853   2.295  1.00  0.00    -0.320 OA
HETATM   35  C   UNL     1      37.959 -12.775   1.372  1.00  0.00     0.142 A 
HETATM   36  C   UNL     1      37.661 -14.023   0.878  1.00  0.00     0.027 A 
HETATM   37  C   UNL     1      38.529 -14.925   1.541  1.00  0.00     0.041 A 
ENDBRANCH   3  33
TORSDOF 7
ENDMDL
MODEL 4
REMARK VINA RESULT:      -9.5      3.153      9.503
REMARK  7 active torsions:
REMARK  status: ('A' for Active; 'I' for Inactive)
REMARK    1  A    between atoms: C_2  and  C_3 
REMARK    2  A    between atoms: C_5  and  N_6 
REMARK    3  A    between atoms: C_8  and  C_9 
REMARK    4  A    between atoms: C_15  and  N_16 
REMARK       I    between atoms: N_16  and  C_17 
REMARK    5  A    between atoms: C_17  and  C_18 
REMARK    6  A    between atoms: C_18  and  O_19 
REMARK    7  A    between atoms: O_19  and  C_20 
ROOT
HETATM    1  N   UNL     1      43.774 -16.167   5.828  1.00  0.00    -0.044 N 
HETATM    2  N   UNL     1      44.395 -15.672   6.946  1.00  0.00    -0.148 NA
HETATM    3  C   UNL     1      44.440 -14.352   6.736  1.00  0.00     0.115 C 
HETATM    4  C   UNL     1      43.791 -13.973   5.541  1.00  0.00     0.087 C 
HETATM    5  C   UNL     1      43.268 -15.140   5.035  1.00  0.00     0.152 C 
ENDROOT
BRANCH   5   6
HETATM    6  N   UNL     1      42.437 -15.189   3.926  1.00  0.00    -0.309 N 
HETATM    7  C   UNL     1      41.019 -15.387   4.077  1.00  0.00     0.247 C 
HETATM    8  O   UNL     1      40.503 -15.238   5.176  1.00  0.00    -0.271 OA
HETATM    9  H   UNL     1      42.792 -14.969   3.001  1.00  0.00     0.170 HD
BRANCH   7  10
HETATM   10  C   UNL     1      40.282 -15.772   2.812  1.00  0.00     0.278 C 
BRANCH  10  11
HETATM   11  O   UNL     1      39.235 -14.839   2.556  1.00  0.00    -0.342 OA
BRANCH  11  12
HETATM   12  C   UNL     1      39.089 -14.489   1.237  1.00  0.00     0.070 A 
HETATM   13  C   UNL     1      40.255 -14.534   0.470  1.00  0.00     0.049 A 
HETATM   14  C   UNL     1      40.242 -14.187  -0.894  1.00  0.00    -0.023 A 
HETATM   15  C   UNL     1      39.023 -13.807  -1.497  1.00  0.00    -0.026 A 
HETATM   16  C   UNL     1      41.412 -14.205  -1.671  1.00  0.00     0.012 A 
HETATM   17  C   UNL     1      37.854 -13.787  -0.725  1.00  0.00     0.015 A 
HETATM   18  C   UNL     1      39.003 -13.457  -2.857  1.00  0.00     0.012 A 
HETATM   19  C   UNL     1      37.885 -14.127   0.632  1.00  0.00     0.037 A 
HETATM   20  C   UNL     1      40.175 -13.479  -3.613  1.00  0.00     0.001 A 
HETATM   21  C   UNL     1      41.378 -13.852  -3.021  1.00  0.00     0.001 A 
ENDBRANCH  11  12
ENDBRANCH  10  11
ENDBRANCH   7  10
ENDBRANCH   5   6
BRANCH   1  22
HETATM   22  C   UNL     1      43.869 -17.547   5.556  1.00  0.00     0.732 A 
HETATM   23  N   UNL     1      44.121 -18.041   4.383  1.00  0.00    -0.067 NA
HETATM   24  C   UNL     1      44.208 -19.420   4.309  1.00  0.00     0.062 A 
HETATM   25  C   UNL     1      44.090 -20.229   5.375  1.00  0.00     0.103 A 
HETATM   26  C   UNL     1      43.839 -19.637   6.698  1.00  0.00     0.261 A 
HETATM   27  N   UNL     1      43.719 -18.286   6.699  1.00  0.00    -0.152 N 
HETATM   28  O   UNL     1      43.757 -20.325   7.705  1.00  0.00    -0.268 OA
HETATM   29  H   UNL     1      43.568 -17.815   7.587  1.00  0.00     0.187 HD
BRANCH  24  30
HETATM   30  C   UNL     1      44.454 -20.018   2.930  1.00  0.00     0.030 C 
HETATM   31  C   UNL     1      43.405 -19.562   1.912  1.00  0.00     0.016 C 
HETATM   32  C   UNL     1      44.522 -21.544   3.001  1.00  0.00     0.016 C 
ENDBRANCH  24  30
ENDBRANCH   1  22
BRANCH   3  33
HETATM   33  C   UNL     1      45.095 -13.409   7.689  1.00  0.00     0.105 A 
HETATM   34  O   UNL     1      44.623 -13.129   8.943  1.00  0.00    -0.320 OA
HETATM   35  C   UNL     1      45.480 -12.237   9.505  1.00  0.00     0.142 A 
HETATM   36  C   UNL     1      46.499 -11.933   8.635  1.00  0.00     0.027 A 
HETATM   37  C   UNL     1      46.252 -12.688   7.462  1.00  0.00     0.041 A 
ENDBRANCH   3  33
TORSDOF 7
ENDMDL
MODEL 5
REMARK VINA RESULT:      -9.5      1.197      1.878
REMARK  7 active torsions:
REMARK  status: ('A' for Active; 'I' for Inactive)
REMARK    1  A    between atoms: C_2  and  C_3 
REMARK    2  A    between atoms: C_5  and  N_6 
REMARK    3  A    between atoms: C_8  and  C_9 
REMARK    4  A    between atoms: C_15  and  N_16 
REMARK       I    between atoms: N_16  and  C_17 
REMARK    5  A    between atoms: C_17  and  C_18 
REMARK    6  A    between atoms: C_18  and  O_19 
REMARK    7  A    between atoms: O_19  and  C_20 
ROOT
HETATM    1  N   UNL     1      42.673 -15.799   5.948  1.00  0.00    -0.044 N 
HETATM    2  N   UNL     1      42.611 -17.085   5.478  1.00  0.00    -0.148 NA
HETATM    3  C   UNL     1      43.710 -17.666   5.971  1.00  0.00     0.115 C 
HETATM    4  C   UNL     1      44.443 -16.803   6.814  1.00  0.00     0.087 C 
HETATM    5  C   UNL     1      43.697 -15.651   6.880  1.00  0.00     0.152 C 
ENDROOT
BRANCH   5   6
HETATM    6  N   UNL     1      44.003 -14.587   7.716  1.00  0.00    -0.309 N 
HETATM    7  C   UNL     1      45.004 -13.621   7.341  1.00  0.00     0.247 C 
HETATM    8  O   UNL     1      45.389 -13.570   6.182  1.00  0.00    -0.271 OA
HETATM    9  H   UNL     1      43.450 -14.402   8.546  1.00  0.00     0.170 HD
BRANCH   7  10
HETATM   10  C   UNL     1      45.495 -12.732   8.463  1.00  0.00     0.278 C 
BRANCH  10  11
HETATM   11  O   UNL     1      44.674 -12.907   9.616  1.00  0.00    -0.342 OA
BRANCH  11  12
HETATM   12  C   UNL     1      43.959 -11.796   9.985  1.00  0.00     0.070 A 
HETATM   13  C   UNL     1      44.133 -11.380  11.307  1.00  0.00     0.049 A 
HETATM   14  C   UNL     1      43.448 -10.260  11.814  1.00  0.00    -0.023 A 
HETATM   15  C   UNL     1      42.585  -9.536  10.961  1.00  0.00    -0.026 A 
HETATM   16  C   UNL     1      43.595  -9.846  13.147  1.00  0.00     0.012 A 
HETATM   17  C   UNL     1      42.434  -9.948   9.631  1.00  0.00     0.015 A 
HETATM   18  C   UNL     1      41.895  -8.420  11.461  1.00  0.00     0.012 A 
HETATM   19  C   UNL     1      43.117 -11.067   9.144  1.00  0.00     0.037 A 
HETATM   20  C   UNL     1      42.052  -8.023  12.789  1.00  0.00     0.001 A 
HETATM   21  C   UNL     1      42.901  -8.735  13.632  1.00  0.00     0.001 A 
ENDBRANCH  11  12
ENDBRANCH  10  11
ENDBRANCH   7  10
ENDBRANCH   5   6
BRANCH   1  22
HETATM   22  C   UNL     1      41.861 -14.817   5.343  1.00  0.00     0.732 A 
HETATM   23  N   UNL     1      41.896 -14.521   4.080  1.00  0.00    -0.067 NA
HETATM   24  C   UNL     1      41.005 -13.551   3.657  1.00  0.00     0.062 A 
HETATM   25  C   UNL     1      40.111 -12.962   4.467  1.00  0.00     0.103 A 
HETATM   26  C   UNL     1      40.072 -13.342   5.887  1.00  0.00     0.261 A 
HETATM   27  N   UNL     1      40.999 -14.264   6.251  1.00  0.00    -0.152 N 
HETATM   28  O   UNL     1      39.256 -12.860   6.660  1.00  0.00    -0.268 OA
HETATM   29  H   UNL     1      41.008 -14.585   7.215  1.00  0.00     0.187 HD
BRANCH  24  30
HETATM   30  C   UNL     1      41.067 -13.159   2.186  1.00  0.00     0.030 C 
HETATM   31  C   UNL     1      39.673 -12.980   1.581  1.00  0.00     0.016 C 
HETATM   32  C   UNL     1      41.886 -14.173   1.386  1.00  0.00     0.016 C 
ENDBRANCH  24  30
ENDBRANCH   1  22
BRANCH   3  33
HETATM   33  C   UNL     1      44.081 -19.077   5.660  1.00  0.00     0.105 A 
HETATM   34  O   UNL     1      44.692 -19.476   4.503  1.00  0.00    -0.320 OA
HETATM   35  C   UNL     1      44.870 -20.820   4.584  1.00  0.00     0.142 A 
HETATM   36  C   UNL     1      44.382 -21.300   5.776  1.00  0.00     0.027 A 
HETATM   37  C   UNL     1      43.872 -20.177   6.472  1.00  0.00     0.041 A 
ENDBRANCH   3  33
TORSDOF 7
ENDMDL
MODEL 6
REMARK VINA RESULT:      -9.4      4.592      6.660
REMARK  7 active torsions:
REMARK  status: ('A' for Active; 'I' for Inactive)
REMARK    1  A    between atoms: C_2  and  C_3 
REMARK    2  A    between atoms: C_5  and  N_6 
REMARK    3  A    between atoms: C_8  and  C_9 
REMARK    4  A    between atoms: C_15  and  N_16 
REMARK       I    between atoms: N_16  and  C_17 
REMARK    5  A    between atoms: C_17  and  C_18 
REMARK    6  A    between atoms: C_18  and  O_19 
REMARK    7  A    between atoms: O_19  and  C_20 
ROOT
HETATM    1  N   UNL     1      41.636 -15.842   0.612  1.00  0.00    -0.044 N 
HETATM    2  N   UNL     1      42.139 -17.117   0.587  1.00  0.00    -0.148 NA
HETATM    3  C   UNL     1      42.555 -17.328   1.841  1.00  0.00     0.115 C 
HETATM    4  C   UNL     1      42.262 -16.243   2.696  1.00  0.00     0.087 C 
HETATM    5  C   UNL     1      41.567 -15.352   1.914  1.00  0.00     0.152 C 
ENDROOT
BRANCH   5   6
HETATM    6  N   UNL     1      40.977 -14.198   2.408  1.00  0.00    -0.309 N 
HETATM    7  C   UNL     1      41.770 -13.032   2.697  1.00  0.00     0.247 C 
HETATM    8  O   UNL     1      42.908 -12.951   2.257  1.00  0.00    -0.271 OA
HETATM    9  H   UNL     1      39.967 -14.114   2.463  1.00  0.00     0.170 HD
BRANCH   7  10
HETATM   10  C   UNL     1      41.088 -11.982   3.548  1.00  0.00     0.278 C 
BRANCH  10  11
HETATM   11  O   UNL     1      41.513 -12.105   4.904  1.00  0.00    -0.342 OA
BRANCH  11  12
HETATM   12  C   UNL     1      41.531 -13.391   5.384  1.00  0.00     0.070 A 
HETATM   13  C   UNL     1      42.796 -13.906   5.677  1.00  0.00     0.049 A 
HETATM   14  C   UNL     1      42.952 -15.216   6.165  1.00  0.00    -0.023 A 
HETATM   15  C   UNL     1      41.807 -16.014   6.378  1.00  0.00    -0.026 A 
HETATM   16  C   UNL     1      44.220 -15.755   6.440  1.00  0.00     0.012 A 
HETATM   17  C   UNL     1      40.541 -15.481   6.103  1.00  0.00     0.015 A 
HETATM   18  C   UNL     1      41.956 -17.324   6.862  1.00  0.00     0.012 A 
HETATM   19  C   UNL     1      40.402 -14.178   5.611  1.00  0.00     0.037 A 
HETATM   20  C   UNL     1      43.223 -17.843   7.130  1.00  0.00     0.001 A 
HETATM   21  C   UNL     1      44.353 -17.059   6.919  1.00  0.00     0.001 A 
ENDBRANCH  11  12
ENDBRANCH  10  11
ENDBRANCH   7  10
ENDBRANCH   5   6
BRANCH   1  22
HETATM   22  C   UNL     1      41.429 -15.172  -0.611  1.00  0.00     0.732 A 
HETATM   23  N   UNL     1      41.790 -13.947  -0.840  1.00  0.00    -0.067 NA
HETATM   24  C   UNL     1      41.533 -13.463  -2.111  1.00  0.00     0.062 A 
HETATM   25  C   UNL     1      40.986 -14.204  -3.089  1.00  0.00     0.103 A 
HETATM   26  C   UNL     1      40.619 -15.600  -2.809  1.00  0.00     0.261 A 
HETATM   27  N   UNL     1      40.853 -16.003  -1.535  1.00  0.00    -0.152 N 
HETATM   28  O   UNL     1      40.149 -16.326  -3.673  1.00  0.00    -0.268 OA
HETATM   29  H   UNL     1      40.642 -16.965  -1.286  1.00  0.00     0.187 HD
BRANCH  24  30
HETATM   30  C   UNL     1      41.906 -12.012  -2.379  1.00  0.00     0.030 C 
HETATM   31  C   UNL     1      42.329 -11.788  -3.833  1.00  0.00     0.016 C 
HETATM   32  C   UNL     1      42.995 -11.542  -1.413  1.00  0.00     0.016 C 
ENDBRANCH  24  30
ENDBRANCH   1  22
BRANCH   3  33
HETATM   33  C   UNL     1      43.234 -18.588   2.260  1.00  0.00     0.105 A 
HETATM   34  O   UNL     1      43.222 -19.749   1.535  1.00  0.00    -0.320 OA
HETATM   35  C   UNL     1      43.943 -20.666   2.232  1.00  0.00     0.142 A 
HETATM   36  C   UNL     1      44.421 -20.119   3.398  1.00  0.00     0.027 A 
HETATM   37  C   UNL     1      43.965 -18.779   3.419  1.00  0.00     0.041 A 
ENDBRANCH   3  33
TORSDOF 7
ENDMDL
MODEL 7
REMARK VINA RESULT:      -9.4      4.357     10.041
REMARK  7 active torsions:
REMARK  status: ('A' for Active; 'I' for Inactive)
REMARK    1  A    between atoms: C_2  and  C_3 
REMARK    2  A    between atoms: C_5  and  N_6 
REMARK    3  A    between atoms: C_8  and  C_9 
REMARK    4  A    between atoms: C_15  and  N_16 
REMARK       I    between atoms: N_16  and  C_17 
REMARK    5  A    between atoms: C_17  and  C_18 
REMARK    6  A    between atoms: C_18  and  O_19 
REMARK    7  A    between atoms: O_19  and  C_20 
ROOT
HETATM    1  N   UNL     1      39.106 -13.464   2.435  1.00  0.00    -0.044 N 
HETATM    2  N   UNL     1      38.231 -12.460   2.108  1.00  0.00    -0.148 NA
HETATM    3  C   UNL     1      37.802 -12.787   0.885  1.00  0.00     0.115 C 
HETATM    4  C   UNL     1      38.322 -14.023   0.443  1.00  0.00     0.087 C 
HETATM    5  C   UNL     1      39.061 -14.496   1.501  1.00  0.00     0.152 C 
ENDROOT
BRANCH   5   6
HETATM    6  N   UNL     1      39.640 -15.757   1.528  1.00  0.00    -0.309 N 
HETATM    7  C   UNL     1      40.999 -15.951   1.095  1.00  0.00     0.247 C 
HETATM    8  O   UNL     1      41.735 -14.984   0.965  1.00  0.00    -0.271 OA
HETATM    9  H   UNL     1      39.161 -16.540   1.961  1.00  0.00     0.170 HD
BRANCH   7  10
HETATM   10  C   UNL     1      41.395 -17.389   0.837  1.00  0.00     0.278 C 
BRANCH  10  11
HETATM   11  O   UNL     1      42.814 -17.517   0.880  1.00  0.00    -0.342 OA
BRANCH  11  12
HETATM   12  C   UNL     1      43.293 -18.228   1.952  1.00  0.00     0.070 A 
HETATM   13  C   UNL     1      43.519 -19.587   1.720  1.00  0.00     0.049 A 
HETATM   14  C   UNL     1      43.999 -20.429   2.740  1.00  0.00    -0.023 A 
HETATM   15  C   UNL     1      44.271 -19.883   4.014  1.00  0.00    -0.026 A 
HETATM   16  C   UNL     1      44.208 -21.801   2.527  1.00  0.00     0.012 A 
HETATM   17  C   UNL     1      44.062 -18.514   4.231  1.00  0.00     0.015 A 
HETATM   18  C   UNL     1      44.746 -20.718   5.038  1.00  0.00     0.012 A 
HETATM   19  C   UNL     1      43.578 -17.691   3.208  1.00  0.00     0.037 A 
HETATM   20  C   UNL     1      44.948 -22.079   4.809  1.00  0.00     0.001 A 
HETATM   21  C   UNL     1      44.679 -22.620   3.555  1.00  0.00     0.001 A 
ENDBRANCH  11  12
ENDBRANCH  10  11
ENDBRANCH   7  10
ENDBRANCH   5   6
BRANCH   1  22
HETATM   22  C   UNL     1      40.001 -13.260   3.506  1.00  0.00     0.732 A 
HETATM   23  N   UNL     1      40.537 -14.218   4.198  1.00  0.00    -0.067 NA
HETATM   24  C   UNL     1      41.417 -13.832   5.193  1.00  0.00     0.062 A 
HETATM   25  C   UNL     1      41.755 -12.553   5.427  1.00  0.00     0.103 A 
HETATM   26  C   UNL     1      41.157 -11.492   4.604  1.00  0.00     0.261 A 
HETATM   27  N   UNL     1      40.269 -11.928   3.676  1.00  0.00    -0.152 N 
HETATM   28  O   UNL     1      41.456 -10.316   4.754  1.00  0.00    -0.268 OA
HETATM   29  H   UNL     1      39.839 -11.245   3.059  1.00  0.00     0.187 HD
BRANCH  24  30
HETATM   30  C   UNL     1      42.017 -14.942   6.046  1.00  0.00     0.030 C 
HETATM   31  C   UNL     1      43.528 -15.070   5.840  1.00  0.00     0.016 C 
HETATM   32  C   UNL     1      41.312 -16.273   5.781  1.00  0.00     0.016 C 
ENDBRANCH  24  30
ENDBRANCH   1  22
BRANCH   3  33
HETATM   33  C   UNL     1      36.863 -11.928   0.107  1.00  0.00     0.105 A 
HETATM   34  O   UNL     1      37.068 -11.538  -1.189  1.00  0.00    -0.320 OA
HETATM   35  C   UNL     1      36.007 -10.772  -1.552  1.00  0.00     0.142 A 
HETATM   36  C   UNL     1      35.116 -10.658  -0.511  1.00  0.00     0.027 A 
HETATM   37  C   UNL     1      35.667 -11.403   0.560  1.00  0.00     0.041 A 
ENDBRANCH   3  33
TORSDOF 7
ENDMDL
MODEL 8
REMARK VINA RESULT:      -9.3      3.302      9.235
REMARK  7 active torsions:
REMARK  status: ('A' for Active; 'I' for Inactive)
REMARK    1  A    between atoms: C_2  and  C_3 
REMARK    2  A    between atoms: C_5  and  N_6 
REMARK    3  A    between atoms: C_8  and  C_9 
REMARK    4  A    between atoms: C_15  and  N_16 
REMARK       I    between atoms: N_16  and  C_17 
REMARK    5  A    between atoms: C_17  and  C_18 
REMARK    6  A    between atoms: C_18  and  O_19 
REMARK    7  A    between atoms: O_19  and  C_20 
ROOT
HETATM    1  N   UNL     1      42.023 -12.488   4.298  1.00  0.00    -0.044 N 
HETATM    2  N   UNL     1      41.638 -11.191   4.521  1.00  0.00    -0.148 NA
HETATM    3  C   UNL     1      41.474 -11.123   5.846  1.00  0.00     0.115 C 
HETATM    4  C   UNL     1      41.820 -12.329   6.495  1.00  0.00     0.087 C 
HETATM    5  C   UNL     1      42.282 -13.150   5.495  1.00  0.00     0.152 C 
ENDROOT
BRANCH   5   6
HETATM    6  N   UNL     1      42.849 -14.395   5.728  1.00  0.00    -0.309 N 
HETATM    7  C   UNL     1      42.026 -15.525   6.072  1.00  0.00     0.247 C 
HETATM    8  O   UNL     1      40.817 -15.468   5.894  1.00  0.00    -0.271 OA
HETATM    9  H   UNL     1      43.833 -14.560   5.545  1.00  0.00     0.170 HD
BRANCH   7  10
HETATM   10  C   UNL     1      42.768 -16.715   6.640  1.00  0.00     0.278 C 
BRANCH  10  11
HETATM   11  O   UNL     1      44.012 -16.880   5.964  1.00  0.00    -0.342 OA
BRANCH  11  12
HETATM   12  C   UNL     1      43.997 -17.809   4.954  1.00  0.00     0.070 A 
HETATM   13  C   UNL     1      44.327 -19.112   5.330  1.00  0.00     0.049 A 
HETATM   14  C   UNL     1      44.360 -20.156   4.386  1.00  0.00    -0.023 A 
HETATM   15  C   UNL     1      44.034 -19.878   3.040  1.00  0.00    -0.026 A 
HETATM   16  C   UNL     1      44.713 -21.466   4.747  1.00  0.00     0.012 A 
HETATM   17  C   UNL     1      43.682 -18.572   2.677  1.00  0.00     0.015 A 
HETATM   18  C   UNL     1      44.068 -20.914   2.093  1.00  0.00     0.012 A 
HETATM   19  C   UNL     1      43.662 -17.544   3.625  1.00  0.00     0.037 A 
HETATM   20  C   UNL     1      44.422 -22.210   2.468  1.00  0.00     0.001 A 
HETATM   21  C   UNL     1      44.745 -22.486   3.794  1.00  0.00     0.001 A 
ENDBRANCH  11  12
ENDBRANCH  10  11
ENDBRANCH   7  10
ENDBRANCH   5   6
BRANCH   1  22
HETATM   22  C   UNL     1      41.947 -13.001   2.986  1.00  0.00     0.732 A 
HETATM   23  N   UNL     1      41.770 -14.255   2.705  1.00  0.00    -0.067 NA
HETATM   24  C   UNL     1      41.690 -14.572   1.361  1.00  0.00     0.062 A 
HETATM   25  C   UNL     1      41.743 -13.657   0.378  1.00  0.00     0.103 A 
HETATM   26  C   UNL     1      41.910 -12.239   0.730  1.00  0.00     0.261 A 
HETATM   27  N   UNL     1      42.027 -11.995   2.060  1.00  0.00    -0.152 N 
HETATM   28  O   UNL     1      41.931 -11.363  -0.123  1.00  0.00    -0.268 OA
HETATM   29  H   UNL     1      42.122 -11.032   2.368  1.00  0.00     0.187 HD
BRANCH  24  30
HETATM   30  C   UNL     1      41.531 -16.046   1.013  1.00  0.00     0.030 C 
HETATM   31  C   UNL     1      41.293 -16.260  -0.484  1.00  0.00     0.016 C 
HETATM   32  C   UNL     1      40.416 -16.684   1.843  1.00  0.00     0.016 C 
ENDBRANCH  24  30
ENDBRANCH   1  22
BRANCH   3  33
HETATM   33  C   UNL     1      40.995  -9.889   6.534  1.00  0.00     0.105 A 
HETATM   34  O   UNL     1      41.811  -8.877   6.959  1.00  0.00    -0.320 OA
HETATM   35  C   UNL     1      41.019  -7.934   7.531  1.00  0.00     0.142 A 
HETATM   36  C   UNL     1      39.700  -8.319   7.484  1.00  0.00     0.027 A 
HETATM   37  C   UNL     1      39.682  -9.580   6.842  1.00  0.00     0.041 A 
ENDBRANCH   3  33
TORSDOF 7
ENDMDL
MODEL 9
REMARK VINA RESULT:      -9.2      3.445      9.485
REMARK  7 active torsions:
REMARK  status: ('A' for Active; 'I' for Inactive)
REMARK    1  A    between atoms: C_2  and  C_3 
REMARK    2  A    between atoms: C_5  and  N_6 
REMARK    3  A    between atoms: C_8  and  C_9 
REMARK    4  A    between atoms: C_15  and  N_16 
REMARK       I    between atoms: N_16  and  C_17 
REMARK    5  A    between atoms: C_17  and  C_18 
REMARK    6  A    between atoms: C_18  and  O_19 
REMARK    7  A    between atoms: O_19  and  C_20 
ROOT
HETATM    1  N   UNL     1      40.077 -12.538   4.412  1.00  0.00    -0.044 N 
HETATM    2  N   UNL     1      39.656 -11.236   4.497  1.00  0.00    -0.148 NA
HETATM    3  C   UNL     1      39.645 -10.981   5.810  1.00  0.00     0.115 C 
HETATM    4  C   UNL     1      40.124 -12.068   6.574  1.00  0.00     0.087 C 
HETATM    5  C   UNL     1      40.507 -13.011   5.649  1.00  0.00     0.152 C 
ENDROOT
BRANCH   5   6
HETATM    6  N   UNL     1      41.158 -14.190   5.983  1.00  0.00    -0.309 N 
HETATM    7  C   UNL     1      42.579 -14.326   5.788  1.00  0.00     0.247 C 
HETATM    8  O   UNL     1      43.259 -13.329   5.592  1.00  0.00    -0.271 OA
HETATM    9  H   UNL     1      40.671 -14.931   6.477  1.00  0.00     0.170 HD
BRANCH   7  10
HETATM   10  C   UNL     1      43.106 -15.743   5.849  1.00  0.00     0.278 C 
BRANCH  10  11
HETATM   11  O   UNL     1      43.254 -16.264   4.530  1.00  0.00    -0.342 OA
BRANCH  11  12
HETATM   12  C   UNL     1      43.673 -17.569   4.473  1.00  0.00     0.070 A 
HETATM   13  C   UNL     1      43.404 -18.236   3.276  1.00  0.00     0.049 A 
HETATM   14  C   UNL     1      43.773 -19.581   3.094  1.00  0.00    -0.023 A 
HETATM   15  C   UNL     1      44.442 -20.260   4.136  1.00  0.00    -0.026 A 
HETATM   16  C   UNL     1      43.487 -20.271   1.904  1.00  0.00     0.012 A 
HETATM   17  C   UNL     1      44.728 -19.576   5.325  1.00  0.00     0.015 A 
HETATM   18  C   UNL     1      44.810 -21.604   3.962  1.00  0.00     0.012 A 
HETATM   19  C   UNL     1      44.349 -18.241   5.494  1.00  0.00     0.037 A 
HETATM   20  C   UNL     1      44.517 -22.274   2.774  1.00  0.00     0.001 A 
HETATM   21  C   UNL     1      43.856 -21.608   1.746  1.00  0.00     0.001 A 
ENDBRANCH  11  12
ENDBRANCH  10  11
ENDBRANCH   7  10
ENDBRANCH   5   6
BRANCH   1  22
HETATM   22  C   UNL     1      39.874 -13.238   3.205  1.00  0.00     0.732 A 
HETATM   23  N   UNL     1      40.610 -14.228   2.806  1.00  0.00    -0.067 NA
HETATM   24  C   UNL     1      40.244 -14.816   1.608  1.00  0.00     0.062 A 
HETATM   25  C   UNL     1      39.168 -14.440   0.896  1.00  0.00     0.103 A 
HETATM   26  C   UNL     1      38.333 -13.336   1.392  1.00  0.00     0.261 A 
HETATM   27  N   UNL     1      38.768 -12.771   2.546  1.00  0.00    -0.152 N 
HETATM   28  O   UNL     1      37.325 -12.977   0.800  1.00  0.00    -0.268 OA
HETATM   29  H   UNL     1      38.219 -12.019   2.952  1.00  0.00     0.187 HD
BRANCH  24  30
HETATM   30  C   UNL     1      41.128 -15.948   1.102  1.00  0.00     0.030 C 
HETATM   31  C   UNL     1      41.317 -15.893  -0.416  1.00  0.00     0.016 C 
HETATM   32  C   UNL     1      40.576 -17.306   1.537  1.00  0.00     0.016 C 
ENDBRANCH  24  30
ENDBRANCH   1  22
BRANCH   3  33
HETATM   33  C   UNL     1      39.188  -9.677   6.371  1.00  0.00     0.105 A 
HETATM   34  O   UNL     1      38.113  -8.971   5.905  1.00  0.00    -0.320 OA
HETATM   35  C   UNL     1      38.010  -7.848   6.662  1.00  0.00     0.142 A 
HETATM   36  C   UNL     1      39.003  -7.814   7.612  1.00  0.00     0.027 A 
HETATM   37  C   UNL     1      39.764  -8.993   7.426  1.00  0.00     0.041 A 
ENDBRANCH   3  33
TORSDOF 7
ENDMDL
MODEL 10
REMARK VINA RESULT:      -8.9      4.463      8.316
REMARK  7 active torsions:
REMARK  status: ('A' for Active; 'I' for Inactive)
REMARK    1  A    between atoms: C_2  and  C_3 
REMARK    2  A    between atoms: C_5  and  N_6 
REMARK    3  A    between atoms: C_8  and  C_9 
REMARK    4  A    between atoms: C_15  and  N_16 
REMARK       I    between atoms: N_16  and  C_17 
REMARK    5  A    between atoms: C_17  and  C_18 
REMARK    6  A    between atoms: C_18  and  O_19 
REMARK    7  A    between atoms: O_19  and  C_20 
ROOT
HETATM    1  N   UNL     1      43.345 -16.554   3.039  1.00  0.00    -0.044 N 
HETATM    2  N   UNL     1      43.912 -17.711   3.509  1.00  0.00    -0.148 NA
HETATM    3  C   UNL     1      43.604 -18.625   2.582  1.00  0.00     0.115 C 
HETATM    4  C   UNL     1      42.915 -18.067   1.483  1.00  0.00     0.087 C 
HETATM    5  C   UNL     1      42.865 -16.718   1.743  1.00  0.00     0.152 C 
ENDROOT
BRANCH   5   6
HETATM    6  N   UNL     1      42.381 -15.782   0.840  1.00  0.00    -0.309 N 
HETATM    7  C   UNL     1      40.968 -15.527   0.731  1.00  0.00     0.247 C 
HETATM    8  O   UNL     1      40.215 -15.921   1.610  1.00  0.00    -0.271 OA
HETATM    9  H   UNL     1      43.016 -15.178   0.327  1.00  0.00     0.170 HD
BRANCH   7  10
HETATM   10  C   UNL     1      40.543 -14.767  -0.506  1.00  0.00     0.278 C 
BRANCH  10  11
HETATM   11  O   UNL     1      41.624 -14.704  -1.433  1.00  0.00    -0.342 OA
BRANCH  11  12
HETATM   12  C   UNL     1      41.894 -13.448  -1.916  1.00  0.00     0.070 A 
HETATM   13  C   UNL     1      42.285 -12.507  -0.960  1.00  0.00     0.049 A 
HETATM   14  C   UNL     1      42.579 -11.180  -1.324  1.00  0.00    -0.023 A 
HETATM   15  C   UNL     1      42.492 -10.802  -2.682  1.00  0.00    -0.026 A 
HETATM   16  C   UNL     1      42.951 -10.219  -0.370  1.00  0.00     0.012 A 
HETATM   17  C   UNL     1      42.120 -11.758  -3.636  1.00  0.00     0.015 A 
HETATM   18  C   UNL     1      42.781  -9.478  -3.051  1.00  0.00     0.012 A 
HETATM   19  C   UNL     1      41.824 -13.072  -3.258  1.00  0.00     0.037 A 
HETATM   20  C   UNL     1      43.147  -8.536  -2.090  1.00  0.00     0.001 A 
HETATM   21  C   UNL     1      43.232  -8.905  -0.751  1.00  0.00     0.001 A 
ENDBRANCH  11  12
ENDBRANCH  10  11
ENDBRANCH   7  10
ENDBRANCH   5   6
BRANCH   1  22
HETATM   22  C   UNL     1      43.178 -15.473   3.929  1.00  0.00     0.732 A 
HETATM   23  N   UNL     1      42.595 -14.357   3.616  1.00  0.00    -0.067 NA
HETATM   24  C   UNL     1      42.494 -13.418   4.627  1.00  0.00     0.062 A 
HETATM   25  C   UNL     1      42.922 -13.631   5.882  1.00  0.00     0.103 A 
HETATM   26  C   UNL     1      43.548 -14.919   6.215  1.00  0.00     0.261 A 
HETATM   27  N   UNL     1      43.659 -15.781   5.174  1.00  0.00    -0.152 N 
HETATM   28  O   UNL     1      43.924 -15.176   7.350  1.00  0.00    -0.268 OA
HETATM   29  H   UNL     1      44.063 -16.697   5.346  1.00  0.00     0.187 HD
BRANCH  24  30
HETATM   30  C   UNL     1      41.855 -12.084   4.261  1.00  0.00     0.030 C 
HETATM   31  C   UNL     1      40.781 -11.668   5.269  1.00  0.00     0.016 C 
HETATM   32  C   UNL     1      41.290 -12.122   2.841  1.00  0.00     0.016 C 
ENDBRANCH  24  30
ENDBRANCH   1  22
BRANCH   3  33
HETATM   33  C   UNL     1      43.978 -20.063   2.716  1.00  0.00     0.105 A 
HETATM   34  O   UNL     1      44.490 -20.623   3.855  1.00  0.00    -0.320 OA
HETATM   35  C   UNL     1      44.701 -21.939   3.596  1.00  0.00     0.142 A 
HETATM   36  C   UNL     1      44.334 -22.242   2.306  1.00  0.00     0.027 A 
HETATM   37  C   UNL     1      43.867 -21.032   1.737  1.00  0.00     0.041 A 
ENDBRANCH   3  33
TORSDOF 7
ENDMDL
