MODEL 1
REMARK VINA RESULT:      -7.9      0.000      0.000
REMARK  5 active torsions:
REMARK  status: ('A' for Active; 'I' for Inactive)
REMARK    1  A    between atoms: O_2  and  C_3 
REMARK    2  A    between atoms: C_4  and  C_5 
REMARK    3  A    between atoms: C_6  and  C_7 
REMARK    4  A    between atoms: C_6  and  C_16 
REMARK       I    between atoms: C_7  and  N_8 
REMARK    5  A    between atoms: N_8  and  C_9 
ROOT
HETATM    1  C   UNL     1      43.569 -17.392   4.616  1.00  0.00     0.032 C 
HETATM    2  C   UNL     1      43.672 -17.784   3.328  1.00  0.00     0.043 C 
ENDROOT
BRANCH   2   3
HETATM    3  C   UNL     1      43.540 -16.930   2.089  1.00  0.00     0.257 C 
HETATM    4  N   UNL     1      42.270 -16.467   1.820  1.00  0.00    -0.323 N 
HETATM    5  H   UNL     1      41.532 -16.757   2.444  1.00  0.00     0.169 HD
HETATM    6  O   UNL     1      44.541 -16.684   1.421  1.00  0.00    -0.267 OA
BRANCH   4   7
HETATM    7  C   UNL     1      41.865 -15.660   0.736  1.00  0.00     0.037 A 
HETATM    8  C   UNL     1      41.373 -16.160  -0.465  1.00  0.00     0.049 A 
HETATM    9  C   UNL     1      41.018 -15.260  -1.458  1.00  0.00     0.118 A 
HETATM   10  N   UNL     1      41.106 -13.920  -1.330  1.00  0.00    -0.273 NA
HETATM   11  C   UNL     1      41.582 -13.459  -0.156  1.00  0.00     0.118 A 
HETATM   12  C   UNL     1      41.979 -14.278   0.890  1.00  0.00     0.049 A 
ENDBRANCH   4   7
ENDBRANCH   2   3
BRANCH   2  13
HETATM   13  C   UNL     1      43.851 -19.241   3.139  1.00  0.00    -0.021 A 
HETATM   14  C   UNL     1      44.545 -20.000   4.090  1.00  0.00     0.012 A 
HETATM   15  C   UNL     1      44.751 -21.366   3.886  1.00  0.00     0.001 A 
HETATM   16  C   UNL     1      44.265 -21.980   2.732  1.00  0.00     0.000 A 
HETATM   17  C   UNL     1      43.570 -21.230   1.783  1.00  0.00     0.001 A 
HETATM   18  C   UNL     1      43.363 -19.865   1.983  1.00  0.00     0.012 A 
ENDBRANCH   2  13
BRANCH   1  19
HETATM   19  C   UNL     1      43.337 -16.049   5.156  1.00  0.00    -0.002 A 
HETATM   20  C   UNL     1      42.109 -15.389   4.990  1.00  0.00     0.078 A 
HETATM   21  C   UNL     1      41.892 -14.134   5.561  1.00  0.00     0.037 A 
HETATM   22  C   UNL     1      42.916 -13.508   6.269  1.00  0.00     0.003 A 
HETATM   23  C   UNL     1      44.146 -14.145   6.424  1.00  0.00     0.001 A 
HETATM   24  C   UNL     1      44.354 -15.413   5.874  1.00  0.00     0.014 A 
BRANCH  20  25
HETATM   25  O   UNL     1      41.033 -15.990   4.388  1.00  0.00    -0.355 OA
HETATM   26  C   UNL     1      40.032 -15.035   4.034  1.00  0.00     0.210 C 
ENDBRANCH  20  25
ENDBRANCH   1  19
TORSDOF 5
ENDMDL
MODEL 2
REMARK VINA RESULT:      -7.7      0.927      2.077
REMARK  5 active torsions:
REMARK  status: ('A' for Active; 'I' for Inactive)
REMARK    1  A    between atoms: O_2  and  C_3 
REMARK    2  A    between atoms: C_4  and  C_5 
REMARK    3  A    between atoms: C_6  and  C_7 
REMARK    4  A    between atoms: C_6  and  C_16 
REMARK       I    between atoms: C_7  and  N_8 
REMARK    5  A    between atoms: N_8  and  C_9 
ROOT
HETATM    1  C   UNL     1      42.688 -17.444   4.410  1.00  0.00     0.032 C 
HETATM    2  C   UNL     1      43.159 -17.763   3.185  1.00  0.00     0.043 C 
ENDROOT
BRANCH   2   3
HETATM    3  C   UNL     1      43.175 -16.898   1.946  1.00  0.00     0.257 C 
HETATM    4  N   UNL     1      41.950 -16.407   1.550  1.00  0.00    -0.323 N 
HETATM    5  H   UNL     1      41.144 -16.685   2.090  1.00  0.00     0.169 HD
HETATM    6  O   UNL     1      44.246 -16.669   1.389  1.00  0.00    -0.267 OA
BRANCH   4   7
HETATM    7  C   UNL     1      41.678 -15.584   0.436  1.00  0.00     0.037 A 
HETATM    8  C   UNL     1      41.265 -16.063  -0.802  1.00  0.00     0.049 A 
HETATM    9  C   UNL     1      41.039 -15.150  -1.821  1.00  0.00     0.118 A 
HETATM   10  N   UNL     1      41.182 -13.815  -1.684  1.00  0.00    -0.273 NA
HETATM   11  C   UNL     1      41.580 -13.375  -0.473  1.00  0.00     0.118 A 
HETATM   12  C   UNL     1      41.846 -14.209   0.601  1.00  0.00     0.049 A 
ENDBRANCH   4   7
ENDBRANCH   2   3
BRANCH   2  13
HETATM   13  C   UNL     1      43.629 -19.160   3.050  1.00  0.00    -0.021 A 
HETATM   14  C   UNL     1      43.263 -19.928   1.937  1.00  0.00     0.012 A 
HETATM   15  C   UNL     1      43.671 -21.259   1.835  1.00  0.00     0.001 A 
HETATM   16  C   UNL     1      44.446 -21.830   2.844  1.00  0.00     0.000 A 
HETATM   17  C   UNL     1      44.817 -21.070   3.953  1.00  0.00     0.001 A 
HETATM   18  C   UNL     1      44.410 -19.740   4.059  1.00  0.00     0.012 A 
ENDBRANCH   2  13
BRANCH   1  19
HETATM   19  C   UNL     1      42.105 -16.182   4.873  1.00  0.00    -0.002 A 
HETATM   20  C   UNL     1      42.857 -15.243   5.596  1.00  0.00     0.078 A 
HETATM   21  C   UNL     1      42.296 -14.023   5.978  1.00  0.00     0.037 A 
HETATM   22  C   UNL     1      40.964 -13.747   5.676  1.00  0.00     0.003 A 
HETATM   23  C   UNL     1      40.202 -14.680   4.975  1.00  0.00     0.001 A 
HETATM   24  C   UNL     1      40.771 -15.890   4.570  1.00  0.00     0.014 A 
BRANCH  20  25
HETATM   25  O   UNL     1      44.195 -15.412   5.842  1.00  0.00    -0.355 OA
HETATM   26  C   UNL     1      44.633 -14.604   6.935  1.00  0.00     0.210 C 
ENDBRANCH  20  25
ENDBRANCH   1  19
TORSDOF 5
ENDMDL
MODEL 3
REMARK VINA RESULT:      -7.7      1.763      4.835
REMARK  5 active torsions:
REMARK  status: ('A' for Active; 'I' for Inactive)
REMARK    1  A    between atoms: O_2  and  C_3 
REMARK    2  A    between atoms: C_4  and  C_5 
REMARK    3  A    between atoms: C_6  and  C_7 
REMARK    4  A    between atoms: C_6  and  C_16 
REMARK       I    between atoms: C_7  and  N_8 
REMARK    5  A    between atoms: N_8  and  C_9 
ROOT
HETATM    1  C   UNL     1      41.901 -17.710   1.299  1.00  0.00     0.032 C 
HETATM    2  C   UNL     1      42.818 -17.755   2.288  1.00  0.00     0.043 C 
ENDROOT
BRANCH   2   3
HETATM    3  C   UNL     1      43.402 -16.596   3.062  1.00  0.00     0.257 C 
HETATM    4  N   UNL     1      42.925 -16.440   4.345  1.00  0.00    -0.323 N 
HETATM    5  H   UNL     1      42.209 -17.081   4.653  1.00  0.00     0.169 HD
HETATM    6  O   UNL     1      44.258 -15.892   2.532  1.00  0.00    -0.267 OA
BRANCH   4   7
HETATM    7  C   UNL     1      43.291 -15.447   5.279  1.00  0.00     0.037 A 
HETATM    8  C   UNL     1      42.886 -14.119   5.203  1.00  0.00     0.049 A 
HETATM    9  C   UNL     1      43.324 -13.239   6.180  1.00  0.00     0.118 A 
HETATM   10  N   UNL     1      44.113 -13.592   7.216  1.00  0.00    -0.273 NA
HETATM   11  C   UNL     1      44.489 -14.885   7.271  1.00  0.00     0.118 A 
HETATM   12  C   UNL     1      44.118 -15.836   6.334  1.00  0.00     0.049 A 
ENDBRANCH   4   7
ENDBRANCH   2   3
BRANCH   2  13
HETATM   13  C   UNL     1      43.359 -19.105   2.566  1.00  0.00    -0.021 A 
HETATM   14  C   UNL     1      44.177 -19.326   3.682  1.00  0.00     0.012 A 
HETATM   15  C   UNL     1      44.722 -20.590   3.916  1.00  0.00     0.001 A 
HETATM   16  C   UNL     1      44.453 -21.639   3.038  1.00  0.00     0.000 A 
HETATM   17  C   UNL     1      43.636 -21.427   1.927  1.00  0.00     0.001 A 
HETATM   18  C   UNL     1      43.091 -20.165   1.689  1.00  0.00     0.012 A 
ENDBRANCH   2  13
BRANCH   1  19
HETATM   19  C   UNL     1      41.208 -16.547   0.737  1.00  0.00    -0.002 A 
HETATM   20  C   UNL     1      40.330 -15.767   1.507  1.00  0.00     0.078 A 
HETATM   21  C   UNL     1      39.726 -14.631   0.966  1.00  0.00     0.037 A 
HETATM   22  C   UNL     1      39.961 -14.286  -0.363  1.00  0.00     0.003 A 
HETATM   23  C   UNL     1      40.816 -15.063  -1.143  1.00  0.00     0.001 A 
HETATM   24  C   UNL     1      41.441 -16.186  -0.594  1.00  0.00     0.014 A 
BRANCH  20  25
HETATM   25  O   UNL     1      40.131 -15.998   2.843  1.00  0.00    -0.355 OA
HETATM   26  C   UNL     1      39.791 -14.796   3.537  1.00  0.00     0.210 C 
ENDBRANCH  20  25
ENDBRANCH   1  19
TORSDOF 5
ENDMDL
MODEL 4
REMARK VINA RESULT:      -7.5      1.947      5.662
REMARK  5 active torsions:
REMARK  status: ('A' for Active; 'I' for Inactive)
REMARK    1  A    between atoms: O_2  and  C_3 
REMARK    2  A    between atoms: C_4  and  C_5 
REMARK    3  A    between atoms: C_6  and  C_7 
REMARK    4  A    between atoms: C_6  and  C_16 
REMARK       I    between atoms: C_7  and  N_8 
REMARK    5  A    between atoms: N_8  and  C_9 
ROOT
HETATM    1  C   UNL     1      42.303 -15.514   4.024  1.00  0.00     0.032 C 
HETATM    2  C   UNL     1      42.597 -16.033   2.812  1.00  0.00     0.043 C 
ENDROOT
BRANCH   2   3
HETATM    3  C   UNL     1      43.422 -17.262   2.508  1.00  0.00     0.257 C 
HETATM    4  N   UNL     1      42.917 -18.449   2.991  1.00  0.00    -0.323 N 
HETATM    5  H   UNL     1      42.066 -18.403   3.531  1.00  0.00     0.169 HD
HETATM    6  O   UNL     1      44.453 -17.144   1.850  1.00  0.00    -0.267 OA
BRANCH   4   7
HETATM    7  C   UNL     1      43.480 -19.736   2.857  1.00  0.00     0.037 A 
HETATM    8  C   UNL     1      43.293 -20.555   1.748  1.00  0.00     0.049 A 
HETATM    9  C   UNL     1      43.893 -21.805   1.743  1.00  0.00     0.118 A 
HETATM   10  N   UNL     1      44.665 -22.277   2.744  1.00  0.00    -0.273 NA
HETATM   11  C   UNL     1      44.834 -21.464   3.806  1.00  0.00     0.118 A 
HETATM   12  C   UNL     1      44.262 -20.205   3.913  1.00  0.00     0.049 A 
ENDBRANCH   4   7
ENDBRANCH   2   3
BRANCH   2  13
HETATM   13  C   UNL     1      42.113 -15.233   1.665  1.00  0.00    -0.021 A 
HETATM   14  C   UNL     1      41.623 -15.865   0.515  1.00  0.00     0.012 A 
HETATM   15  C   UNL     1      41.209 -15.109  -0.582  1.00  0.00     0.001 A 
HETATM   16  C   UNL     1      41.281 -13.717  -0.537  1.00  0.00     0.000 A 
HETATM   17  C   UNL     1      41.764 -13.080   0.607  1.00  0.00     0.001 A 
HETATM   18  C   UNL     1      42.181 -13.833   1.704  1.00  0.00     0.012 A 
ENDBRANCH   2  13
BRANCH   1  19
HETATM   19  C   UNL     1      42.670 -16.012   5.353  1.00  0.00    -0.002 A 
HETATM   20  C   UNL     1      43.666 -15.392   6.124  1.00  0.00     0.078 A 
HETATM   21  C   UNL     1      43.959 -15.849   7.410  1.00  0.00     0.037 A 
HETATM   22  C   UNL     1      43.287 -16.957   7.922  1.00  0.00     0.003 A 
HETATM   23  C   UNL     1      42.309 -17.592   7.159  1.00  0.00     0.001 A 
HETATM   24  C   UNL     1      41.998 -17.118   5.882  1.00  0.00     0.014 A 
BRANCH  20  25
HETATM   25  O   UNL     1      44.295 -14.244   5.717  1.00  0.00    -0.355 OA
HETATM   26  C   UNL     1      45.227 -13.782   6.696  1.00  0.00     0.210 C 
ENDBRANCH  20  25
ENDBRANCH   1  19
TORSDOF 5
ENDMDL
MODEL 5
REMARK VINA RESULT:      -7.5      3.345      6.142
REMARK  5 active torsions:
REMARK  status: ('A' for Active; 'I' for Inactive)
REMARK    1  A    between atoms: O_2  and  C_3 
REMARK    2  A    between atoms: C_4  and  C_5 
REMARK    3  A    between atoms: C_6  and  C_7 
REMARK    4  A    between atoms: C_6  and  C_16 
REMARK       I    between atoms: C_7  and  N_8 
REMARK    5  A    between atoms: N_8  and  C_9 
ROOT
HETATM    1  C   UNL     1      41.660 -15.326   5.253  1.00  0.00     0.032 C 
HETATM    2  C   UNL     1      42.953 -15.364   5.640  1.00  0.00     0.043 C 
ENDROOT
BRANCH   2   3
HETATM    3  C   UNL     1      43.845 -14.200   6.004  1.00  0.00     0.257 C 
HETATM    4  N   UNL     1      43.949 -13.932   7.351  1.00  0.00    -0.323 N 
HETATM    5  H   UNL     1      43.405 -14.504   7.980  1.00  0.00     0.169 HD
HETATM    6  O   UNL     1      44.426 -13.588   5.111  1.00  0.00    -0.267 OA
BRANCH   4   7
HETATM    7  C   UNL     1      44.704 -12.908   7.964  1.00  0.00     0.037 A 
HETATM    8  C   UNL     1      46.064 -12.714   7.755  1.00  0.00     0.049 A 
HETATM    9  C   UNL     1      46.693 -11.677   8.427  1.00  0.00     0.118 A 
HETATM   10  N   UNL     1      46.063 -10.828   9.266  1.00  0.00    -0.273 NA
HETATM   11  C   UNL     1      44.744 -11.035   9.450  1.00  0.00     0.118 A 
HETATM   12  C   UNL     1      44.030 -12.054   8.838  1.00  0.00     0.049 A 
ENDBRANCH   4   7
ENDBRANCH   2   3
BRANCH   2  13
HETATM   13  C   UNL     1      43.565 -16.712   5.613  1.00  0.00    -0.021 A 
HETATM   14  C   UNL     1      44.490 -17.091   6.594  1.00  0.00     0.012 A 
HETATM   15  C   UNL     1      45.099 -18.346   6.541  1.00  0.00     0.001 A 
HETATM   16  C   UNL     1      44.789 -19.228   5.506  1.00  0.00     0.000 A 
HETATM   17  C   UNL     1      43.866 -18.858   4.527  1.00  0.00     0.001 A 
HETATM   18  C   UNL     1      43.257 -17.604   4.577  1.00  0.00     0.012 A 
ENDBRANCH   2  13
BRANCH   1  19
HETATM   19  C   UNL     1      40.774 -14.167   5.113  1.00  0.00    -0.002 A 
HETATM   20  C   UNL     1      40.592 -13.522   3.879  1.00  0.00     0.078 A 
HETATM   21  C   UNL     1      39.699 -12.456   3.758  1.00  0.00     0.037 A 
HETATM   22  C   UNL     1      39.011 -11.996   4.879  1.00  0.00     0.003 A 
HETATM   23  C   UNL     1      39.198 -12.617   6.113  1.00  0.00     0.001 A 
HETATM   24  C   UNL     1      40.072 -13.701   6.229  1.00  0.00     0.014 A 
BRANCH  20  25
HETATM   25  O   UNL     1      41.165 -13.984   2.722  1.00  0.00    -0.355 OA
HETATM   26  C   UNL     1      42.269 -13.170   2.325  1.00  0.00     0.210 C 
ENDBRANCH  20  25
ENDBRANCH   1  19
TORSDOF 5
ENDMDL
MODEL 6
REMARK VINA RESULT:      -7.5      2.114      5.071
REMARK  5 active torsions:
REMARK  status: ('A' for Active; 'I' for Inactive)
REMARK    1  A    between atoms: O_2  and  C_3 
REMARK    2  A    between atoms: C_4  and  C_5 
REMARK    3  A    between atoms: C_6  and  C_7 
REMARK    4  A    between atoms: C_6  and  C_16 
REMARK       I    between atoms: C_7  and  N_8 
REMARK    5  A    between atoms: N_8  and  C_9 
ROOT
HETATM    1  C   UNL     1      41.475 -17.274   1.818  1.00  0.00     0.032 C 
HETATM    2  C   UNL     1      42.539 -17.327   2.647  1.00  0.00     0.043 C 
ENDROOT
BRANCH   2   3
HETATM    3  C   UNL     1      43.183 -16.185   3.399  1.00  0.00     0.257 C 
HETATM    4  N   UNL     1      42.806 -16.058   4.718  1.00  0.00    -0.323 N 
HETATM    5  H   UNL     1      42.116 -16.706   5.067  1.00  0.00     0.169 HD
HETATM    6  O   UNL     1      43.996 -15.469   2.821  1.00  0.00    -0.267 OA
BRANCH   4   7
HETATM    7  C   UNL     1      43.245 -15.086   5.644  1.00  0.00     0.037 A 
HETATM    8  C   UNL     1      44.284 -15.285   6.546  1.00  0.00     0.049 A 
HETATM    9  C   UNL     1      44.612 -14.253   7.412  1.00  0.00     0.118 A 
HETATM   10  N   UNL     1      43.994 -13.053   7.426  1.00  0.00    -0.273 NA
HETATM   11  C   UNL     1      42.993 -12.883   6.539  1.00  0.00     0.118 A 
HETATM   12  C   UNL     1      42.580 -13.860   5.646  1.00  0.00     0.049 A 
ENDBRANCH   4   7
ENDBRANCH   2   3
BRANCH   2  13
HETATM   13  C   UNL     1      43.181 -18.657   2.744  1.00  0.00    -0.021 A 
HETATM   14  C   UNL     1      44.052 -18.951   3.801  1.00  0.00     0.012 A 
HETATM   15  C   UNL     1      44.690 -20.191   3.864  1.00  0.00     0.001 A 
HETATM   16  C   UNL     1      44.462 -21.143   2.872  1.00  0.00     0.000 A 
HETATM   17  C   UNL     1      43.593 -20.860   1.818  1.00  0.00     0.001 A 
HETATM   18  C   UNL     1      42.955 -19.621   1.751  1.00  0.00     0.012 A 
ENDBRANCH   2  13
BRANCH   1  19
HETATM   19  C   UNL     1      40.648 -16.121   1.452  1.00  0.00    -0.002 A 
HETATM   20  C   UNL     1      40.717 -15.537   0.177  1.00  0.00     0.078 A 
HETATM   21  C   UNL     1      39.879 -14.476  -0.167  1.00  0.00     0.037 A 
HETATM   22  C   UNL     1      38.991 -13.959   0.774  1.00  0.00     0.003 A 
HETATM   23  C   UNL     1      38.926 -14.519   2.050  1.00  0.00     0.001 A 
HETATM   24  C   UNL     1      39.747 -15.598   2.386  1.00  0.00     0.014 A 
BRANCH  20  25
HETATM   25  O   UNL     1      41.500 -16.057  -0.822  1.00  0.00    -0.355 OA
HETATM   26  C   UNL     1      41.033 -15.661  -2.112  1.00  0.00     0.210 C 
ENDBRANCH  20  25
ENDBRANCH   1  19
TORSDOF 5
ENDMDL
MODEL 7
REMARK VINA RESULT:      -7.3      1.462      5.403
REMARK  5 active torsions:
REMARK  status: ('A' for Active; 'I' for Inactive)
REMARK    1  A    between atoms: O_2  and  C_3 
REMARK    2  A    between atoms: C_4  and  C_5 
REMARK    3  A    between atoms: C_6  and  C_7 
REMARK    4  A    between atoms: C_6  and  C_16 
REMARK       I    between atoms: C_7  and  N_8 
REMARK    5  A    between atoms: N_8  and  C_9 
ROOT
HETATM    1  C   UNL     1      43.968 -18.047   4.331  1.00  0.00     0.032 C 
HETATM    2  C   UNL     1      43.173 -16.962   4.216  1.00  0.00     0.043 C 
ENDROOT
BRANCH   2   3
HETATM    3  C   UNL     1      42.134 -16.685   3.156  1.00  0.00     0.257 C 
HETATM    4  N   UNL     1      42.559 -15.915   2.095  1.00  0.00    -0.323 N 
HETATM    5  H   UNL     1      43.509 -15.574   2.124  1.00  0.00     0.169 HD
HETATM    6  O   UNL     1      41.008 -17.161   3.280  1.00  0.00    -0.267 OA
BRANCH   4   7
HETATM    7  C   UNL     1      41.802 -15.504   0.977  1.00  0.00     0.037 A 
HETATM    8  C   UNL     1      41.703 -16.231  -0.204  1.00  0.00     0.049 A 
HETATM    9  C   UNL     1      40.934 -15.712  -1.235  1.00  0.00     0.118 A 
HETATM   10  N   UNL     1      40.258 -14.547  -1.160  1.00  0.00    -0.273 NA
HETATM   11  C   UNL     1      40.366 -13.863  -0.004  1.00  0.00     0.118 A 
HETATM   12  C   UNL     1      41.124 -14.289   1.076  1.00  0.00     0.049 A 
ENDBRANCH   4   7
ENDBRANCH   2   3
BRANCH   2  13
HETATM   13  C   UNL     1      43.434 -15.899   5.213  1.00  0.00    -0.021 A 
HETATM   14  C   UNL     1      42.981 -14.592   4.992  1.00  0.00     0.012 A 
HETATM   15  C   UNL     1      43.267 -13.582   5.912  1.00  0.00     0.001 A 
HETATM   16  C   UNL     1      44.009 -13.872   7.056  1.00  0.00     0.000 A 
HETATM   17  C   UNL     1      44.461 -15.171   7.285  1.00  0.00     0.001 A 
HETATM   18  C   UNL     1      44.178 -16.183   6.367  1.00  0.00     0.012 A 
ENDBRANCH   2  13
BRANCH   1  19
HETATM   19  C   UNL     1      44.016 -19.247   3.491  1.00  0.00    -0.002 A 
HETATM   20  C   UNL     1      44.452 -20.484   3.994  1.00  0.00     0.078 A 
HETATM   21  C   UNL     1      44.436 -21.625   3.191  1.00  0.00     0.037 A 
HETATM   22  C   UNL     1      44.023 -21.534   1.863  1.00  0.00     0.003 A 
HETATM   23  C   UNL     1      43.606 -20.308   1.347  1.00  0.00     0.001 A 
HETATM   24  C   UNL     1      43.598 -19.170   2.159  1.00  0.00     0.014 A 
BRANCH  20  25
HETATM   25  O   UNL     1      44.780 -20.660   5.313  1.00  0.00    -0.355 OA
HETATM   26  C   UNL     1      44.786 -22.042   5.671  1.00  0.00     0.210 C 
ENDBRANCH  20  25
ENDBRANCH   1  19
TORSDOF 5
ENDMDL
MODEL 8
REMARK VINA RESULT:      -7.2      2.495      5.723
REMARK  5 active torsions:
REMARK  status: ('A' for Active; 'I' for Inactive)
REMARK    1  A    between atoms: O_2  and  C_3 
REMARK    2  A    between atoms: C_4  and  C_5 
REMARK    3  A    between atoms: C_6  and  C_7 
REMARK    4  A    between atoms: C_6  and  C_16 
REMARK       I    between atoms: C_7  and  N_8 
REMARK    5  A    between atoms: N_8  and  C_9 
ROOT
HETATM    1  C   UNL     1      41.777 -16.081   0.039  1.00  0.00     0.032 C 
HETATM    2  C   UNL     1      41.373 -16.232   1.319  1.00  0.00     0.043 C 
ENDROOT
BRANCH   2   3
HETATM    3  C   UNL     1      40.322 -15.436   2.057  1.00  0.00     0.257 C 
HETATM    4  N   UNL     1      40.784 -14.327   2.733  1.00  0.00    -0.323 N 
HETATM    5  H   UNL     1      41.778 -14.153   2.710  1.00  0.00     0.169 HD
HETATM    6  O   UNL     1      39.149 -15.795   2.000  1.00  0.00    -0.267 OA
BRANCH   4   7
HETATM    7  C   UNL     1      40.027 -13.416   3.500  1.00  0.00     0.037 A 
HETATM    8  C   UNL     1      39.379 -12.305   2.973  1.00  0.00     0.049 A 
HETATM    9  C   UNL     1      38.675 -11.480   3.837  1.00  0.00     0.118 A 
HETATM   10  N   UNL     1      38.565 -11.695   5.165  1.00  0.00    -0.273 NA
HETATM   11  C   UNL     1      39.199 -12.780   5.652  1.00  0.00     0.118 A 
HETATM   12  C   UNL     1      39.941 -13.654   4.873  1.00  0.00     0.049 A 
ENDBRANCH   4   7
ENDBRANCH   2   3
BRANCH   2  13
HETATM   13  C   UNL     1      42.127 -17.248   2.088  1.00  0.00    -0.021 A 
HETATM   14  C   UNL     1      41.865 -17.446   3.449  1.00  0.00     0.012 A 
HETATM   15  C   UNL     1      42.609 -18.373   4.182  1.00  0.00     0.001 A 
HETATM   16  C   UNL     1      43.618 -19.106   3.559  1.00  0.00     0.000 A 
HETATM   17  C   UNL     1      43.881 -18.917   2.202  1.00  0.00     0.001 A 
HETATM   18  C   UNL     1      43.141 -17.990   1.467  1.00  0.00     0.012 A 
ENDBRANCH   2  13
BRANCH   1  19
HETATM   19  C   UNL     1      41.292 -15.141  -0.975  1.00  0.00    -0.002 A 
HETATM   20  C   UNL     1      41.422 -13.752  -0.817  1.00  0.00     0.078 A 
HETATM   21  C   UNL     1      41.004 -12.879  -1.822  1.00  0.00     0.037 A 
HETATM   22  C   UNL     1      40.413 -13.383  -2.979  1.00  0.00     0.003 A 
HETATM   23  C   UNL     1      40.262 -14.760  -3.139  1.00  0.00     0.001 A 
HETATM   24  C   UNL     1      40.704 -15.635  -2.144  1.00  0.00     0.014 A 
BRANCH  20  25
HETATM   25  O   UNL     1      42.079 -13.197   0.251  1.00  0.00    -0.355 OA
HETATM   26  C   UNL     1      42.019 -11.771   0.219  1.00  0.00     0.210 C 
ENDBRANCH  20  25
ENDBRANCH   1  19
TORSDOF 5
ENDMDL
MODEL 9
REMARK VINA RESULT:      -7.2      1.680      2.545
REMARK  5 active torsions:
REMARK  status: ('A' for Active; 'I' for Inactive)
REMARK    1  A    between atoms: O_2  and  C_3 
REMARK    2  A    between atoms: C_4  and  C_5 
REMARK    3  A    between atoms: C_6  and  C_7 
REMARK    4  A    between atoms: C_6  and  C_16 
REMARK       I    between atoms: C_7  and  N_8 
REMARK    5  A    between atoms: N_8  and  C_9 
ROOT
HETATM    1  C   UNL     1      42.290 -16.733   4.343  1.00  0.00     0.032 C 
HETATM    2  C   UNL     1      42.203 -17.349   3.145  1.00  0.00     0.043 C 
ENDROOT
BRANCH   2   3
HETATM    3  C   UNL     1      41.310 -16.985   1.981  1.00  0.00     0.257 C 
HETATM    4  N   UNL     1      41.767 -15.960   1.182  1.00  0.00    -0.323 N 
HETATM    5  H   UNL     1      42.632 -15.516   1.449  1.00  0.00     0.169 HD
HETATM    6  O   UNL     1      40.270 -17.615   1.803  1.00  0.00    -0.267 OA
BRANCH   4   7
HETATM    7  C   UNL     1      41.136 -15.420   0.040  1.00  0.00     0.037 A 
HETATM    8  C   UNL     1      40.277 -14.327   0.070  1.00  0.00     0.049 A 
HETATM    9  C   UNL     1      39.713 -13.899  -1.122  1.00  0.00     0.118 A 
HETATM   10  N   UNL     1      39.957 -14.468  -2.321  1.00  0.00    -0.273 NA
HETATM   11  C   UNL     1      40.797 -15.523  -2.325  1.00  0.00     0.118 A 
HETATM   12  C   UNL     1      41.396 -16.036  -1.185  1.00  0.00     0.049 A 
ENDBRANCH   4   7
ENDBRANCH   2   3
BRANCH   2  13
HETATM   13  C   UNL     1      43.028 -18.571   3.018  1.00  0.00    -0.021 A 
HETATM   14  C   UNL     1      42.918 -19.387   1.885  1.00  0.00     0.012 A 
HETATM   15  C   UNL     1      43.665 -20.563   1.788  1.00  0.00     0.001 A 
HETATM   16  C   UNL     1      44.525 -20.929   2.823  1.00  0.00     0.000 A 
HETATM   17  C   UNL     1      44.642 -20.119   3.953  1.00  0.00     0.001 A 
HETATM   18  C   UNL     1      43.896 -18.944   4.053  1.00  0.00     0.012 A 
ENDBRANCH   2  13
BRANCH   1  19
HETATM   19  C   UNL     1      41.579 -15.544   4.823  1.00  0.00    -0.002 A 
HETATM   20  C   UNL     1      41.853 -14.265   4.312  1.00  0.00     0.078 A 
HETATM   21  C   UNL     1      41.124 -13.155   4.744  1.00  0.00     0.037 A 
HETATM   22  C   UNL     1      40.142 -13.307   5.720  1.00  0.00     0.003 A 
HETATM   23  C   UNL     1      39.875 -14.569   6.248  1.00  0.00     0.001 A 
HETATM   24  C   UNL     1      40.587 -15.684   5.798  1.00  0.00     0.014 A 
BRANCH  20  25
HETATM   25  O   UNL     1      42.737 -14.063   3.285  1.00  0.00    -0.355 OA
HETATM   26  C   UNL     1      44.058 -13.819   3.771  1.00  0.00     0.210 C 
ENDBRANCH  20  25
ENDBRANCH   1  19
TORSDOF 5
ENDMDL
MODEL 10
REMARK VINA RESULT:      -7.0      2.485      6.197
REMARK  5 active torsions:
REMARK  status: ('A' for Active; 'I' for Inactive)
REMARK    1  A    between atoms: O_2  and  C_3 
REMARK    2  A    between atoms: C_4  and  C_5 
REMARK    3  A    between atoms: C_6  and  C_7 
REMARK    4  A    between atoms: C_6  and  C_16 
REMARK       I    between atoms: C_7  and  N_8 
REMARK    5  A    between atoms: N_8  and  C_9 
ROOT
HETATM    1  C   UNL     1      42.089 -16.148   0.603  1.00  0.00     0.032 C 
HETATM    2  C   UNL     1      41.053 -15.286   0.510  1.00  0.00     0.043 C 
ENDROOT
BRANCH   2   3
HETATM    3  C   UNL     1      40.131 -14.826   1.615  1.00  0.00     0.257 C 
HETATM    4  N   UNL     1      40.606 -13.792   2.391  1.00  0.00    -0.323 N 
HETATM    5  H   UNL     1      41.533 -13.449   2.186  1.00  0.00     0.169 HD
HETATM    6  O   UNL     1      39.035 -15.366   1.744  1.00  0.00    -0.267 OA
BRANCH   4   7
HETATM    7  C   UNL     1      39.960 -13.175   3.484  1.00  0.00     0.037 A 
HETATM    8  C   UNL     1      39.997 -13.662   4.786  1.00  0.00     0.049 A 
HETATM    9  C   UNL     1      39.310 -12.968   5.770  1.00  0.00     0.118 A 
HETATM   10  N   UNL     1      38.613 -11.833   5.547  1.00  0.00    -0.273 NA
HETATM   11  C   UNL     1      38.595 -11.379   4.278  1.00  0.00     0.118 A 
HETATM   12  C   UNL     1      39.235 -12.011   3.223  1.00  0.00     0.049 A 
ENDBRANCH   4   7
ENDBRANCH   2   3
BRANCH   2  13
HETATM   13  C   UNL     1      40.760 -14.821  -0.864  1.00  0.00    -0.021 A 
HETATM   14  C   UNL     1      40.949 -15.675  -1.959  1.00  0.00     0.012 A 
HETATM   15  C   UNL     1      40.715 -15.219  -3.257  1.00  0.00     0.001 A 
HETATM   16  C   UNL     1      40.290 -13.908  -3.469  1.00  0.00     0.000 A 
HETATM   17  C   UNL     1      40.095 -13.054  -2.384  1.00  0.00     0.001 A 
HETATM   18  C   UNL     1      40.330 -13.506  -1.085  1.00  0.00     0.012 A 
ENDBRANCH   2  13
BRANCH   1  19
HETATM   19  C   UNL     1      42.613 -16.835   1.787  1.00  0.00    -0.002 A 
HETATM   20  C   UNL     1      43.266 -16.138   2.816  1.00  0.00     0.078 A 
HETATM   21  C   UNL     1      43.706 -16.805   3.960  1.00  0.00     0.037 A 
HETATM   22  C   UNL     1      43.535 -18.184   4.068  1.00  0.00     0.003 A 
HETATM   23  C   UNL     1      42.905 -18.890   3.044  1.00  0.00     0.001 A 
HETATM   24  C   UNL     1      42.441 -18.217   1.911  1.00  0.00     0.014 A 
BRANCH  20  25
HETATM   25  O   UNL     1      43.380 -14.772   2.814  1.00  0.00    -0.355 OA
HETATM   26  C   UNL     1      43.640 -14.266   4.124  1.00  0.00     0.210 C 
ENDBRANCH  20  25
ENDBRANCH   1  19
TORSDOF 5
ENDMDL
