MODEL 1
REMARK VINA RESULT:      -8.7      0.000      0.000
REMARK  3 active torsions:
REMARK  status: ('A' for Active; 'I' for Inactive)
REMARK    1  A    between atoms: C_6  and  N_7 
REMARK       I    between atoms: N_7  and  C_8 
REMARK    2  A    between atoms: C_8  and  C_9 
REMARK    3  A    between atoms: C_9  and  C_10 
ROOT
HETATM    1  C   UNL     1      41.072 -15.695  -0.406  1.00  0.00     0.286 C 
HETATM    2  N   UNL     1      41.663 -15.339  -1.765  1.00  0.00    -0.056 N 
HETATM    3  H   UNL     1      42.246 -14.489  -1.597  1.00  0.00     0.278 HD
HETATM    4  H   UNL     1      42.322 -16.059  -2.083  1.00  0.00     0.278 HD
HETATM    5  C   UNL     1      40.655 -15.010  -2.828  1.00  0.00     0.209 C 
HETATM    6  C   UNL     1      39.670 -13.934  -2.302  1.00  0.00     0.115 C 
HETATM    7  N   UNL     1      39.155 -14.225  -0.963  1.00  0.00    -0.353 N 
HETATM    8  C   UNL     1      39.945 -14.744   0.036  1.00  0.00     0.249 C 
HETATM    9  O   UNL     1      39.671 -14.541   1.213  1.00  0.00    -0.271 OA
HETATM   10  C   UNL     1      39.970 -16.292  -3.303  1.00  0.00     0.035 C 
HETATM   11  C   UNL     1      38.870 -15.986  -4.314  1.00  0.00     0.002 C 
HETATM   12  C   UNL     1      37.855 -15.003  -3.741  1.00  0.00     0.002 C 
HETATM   13  C   UNL     1      38.522 -13.703  -3.293  1.00  0.00     0.027 C 
HETATM   14  H   UNL     1      38.447 -13.594  -0.591  1.00  0.00     0.163 HD
ENDROOT
BRANCH   1  15
HETATM   15  C   UNL     1      42.155 -15.833   0.670  1.00  0.00     0.146 C 
BRANCH  15  16
HETATM   16  C   UNL     1      42.145 -17.200   1.321  1.00  0.00     0.224 C 
HETATM   17  N   UNL     1      43.385 -17.574   1.778  1.00  0.00    -0.327 N 
HETATM   18  H   UNL     1      44.176 -17.169   1.285  1.00  0.00     0.169 HD
HETATM   19  O   UNL     1      41.077 -17.795   1.446  1.00  0.00    -0.273 OA
BRANCH  17  20
HETATM   20  C   UNL     1      43.741 -18.592   2.695  1.00  0.00     0.040 A 
HETATM   21  C   UNL     1      43.845 -18.473   4.092  1.00  0.00    -0.035 A 
HETATM   22  C   UNL     1      44.244 -19.603   4.843  1.00  0.00     0.015 A 
HETATM   23  C   UNL     1      43.611 -17.215   4.877  1.00  0.00     0.050 C 
HETATM   24  C   UNL     1      44.579 -20.819   4.238  1.00  0.00    -0.061 A 
HETATM   25  C   UNL     1      45.071 -21.972   5.061  1.00  0.00     0.048 C 
HETATM   26  C   UNL     1      44.524 -20.910   2.852  1.00  0.00     0.009 A 
HETATM   27  C   UNL     1      44.109 -19.812   2.095  1.00  0.00     0.030 A 
ENDBRANCH  17  20
ENDBRANCH  15  16
ENDBRANCH   1  15
TORSDOF 3
ENDMDL
MODEL 2
REMARK VINA RESULT:      -8.4      1.791      2.615
REMARK  3 active torsions:
REMARK  status: ('A' for Active; 'I' for Inactive)
REMARK    1  A    between atoms: C_6  and  N_7 
REMARK       I    between atoms: N_7  and  C_8 
REMARK    2  A    between atoms: C_8  and  C_9 
REMARK    3  A    between atoms: C_9  and  C_10 
ROOT
HETATM    1  C   UNL     1      39.495 -14.802   1.060  1.00  0.00     0.286 C 
HETATM    2  N   UNL     1      40.790 -14.246   0.481  1.00  0.00    -0.056 N 
HETATM    3  H   UNL     1      40.850 -13.264   0.833  1.00  0.00     0.278 HD
HETATM    4  H   UNL     1      41.608 -14.724   0.876  1.00  0.00     0.278 HD
HETATM    5  C   UNL     1      40.849 -14.207  -1.019  1.00  0.00     0.209 C 
HETATM    6  C   UNL     1      39.589 -13.494  -1.574  1.00  0.00     0.115 C 
HETATM    7  N   UNL     1      38.342 -13.964  -0.969  1.00  0.00    -0.353 N 
HETATM    8  C   UNL     1      38.233 -14.248   0.373  1.00  0.00     0.249 C 
HETATM    9  O   UNL     1      37.149 -14.170   0.937  1.00  0.00    -0.271 OA
HETATM   10  C   UNL     1      41.046 -15.623  -1.563  1.00  0.00     0.035 C 
HETATM   11  C   UNL     1      41.013 -15.635  -3.088  1.00  0.00     0.002 C 
HETATM   12  C   UNL     1      39.720 -15.021  -3.614  1.00  0.00     0.002 C 
HETATM   13  C   UNL     1      39.527 -13.593  -3.104  1.00  0.00     0.027 C 
HETATM   14  H   UNL     1      37.474 -13.587  -1.344  1.00  0.00     0.163 HD
ENDROOT
BRANCH   1  15
HETATM   15  C   UNL     1      39.432 -14.636   2.583  1.00  0.00     0.146 C 
BRANCH  15  16
HETATM   16  C   UNL     1      40.685 -15.140   3.266  1.00  0.00     0.224 C 
HETATM   17  N   UNL     1      40.751 -16.512   3.299  1.00  0.00    -0.327 N 
HETATM   18  H   UNL     1      39.857 -16.995   3.290  1.00  0.00     0.169 HD
HETATM   19  O   UNL     1      41.527 -14.329   3.645  1.00  0.00    -0.273 OA
BRANCH  17  20
HETATM   20  C   UNL     1      41.858 -17.358   3.549  1.00  0.00     0.040 A 
HETATM   21  C   UNL     1      42.827 -17.778   2.620  1.00  0.00    -0.035 A 
HETATM   22  C   UNL     1      43.850 -18.653   3.055  1.00  0.00     0.015 A 
HETATM   23  C   UNL     1      42.852 -17.414   1.164  1.00  0.00     0.050 C 
HETATM   24  C   UNL     1      43.903 -19.145   4.363  1.00  0.00    -0.061 A 
HETATM   25  C   UNL     1      44.960 -20.130   4.766  1.00  0.00     0.048 C 
HETATM   26  C   UNL     1      42.910 -18.764   5.258  1.00  0.00     0.009 A 
HETATM   27  C   UNL     1      41.905 -17.883   4.855  1.00  0.00     0.030 A 
ENDBRANCH  17  20
ENDBRANCH  15  16
ENDBRANCH   1  15
TORSDOF 3
ENDMDL
MODEL 3
REMARK VINA RESULT:      -8.4      4.055      5.406
REMARK  3 active torsions:
REMARK  status: ('A' for Active; 'I' for Inactive)
REMARK    1  A    between atoms: C_6  and  N_7 
REMARK       I    between atoms: N_7  and  C_8 
REMARK    2  A    between atoms: C_8  and  C_9 
REMARK    3  A    between atoms: C_9  and  C_10 
ROOT
HETATM    1  C   UNL     1      41.779 -14.093   5.362  1.00  0.00     0.286 C 
HETATM    2  N   UNL     1      40.384 -14.311   4.790  1.00  0.00    -0.056 N 
HETATM    3  H   UNL     1      40.482 -15.109   4.122  1.00  0.00     0.278 HD
HETATM    4  H   UNL     1      39.734 -14.643   5.511  1.00  0.00     0.278 HD
HETATM    5  C   UNL     1      39.817 -13.141   4.037  1.00  0.00     0.209 C 
HETATM    6  C   UNL     1      40.835 -12.662   2.971  1.00  0.00     0.115 C 
HETATM    7  N   UNL     1      42.197 -12.523   3.489  1.00  0.00    -0.353 N 
HETATM    8  C   UNL     1      42.748 -13.425   4.369  1.00  0.00     0.249 C 
HETATM    9  O   UNL     1      43.962 -13.581   4.419  1.00  0.00    -0.271 OA
HETATM   10  C   UNL     1      39.396 -12.050   5.023  1.00  0.00     0.035 C 
HETATM   11  C   UNL     1      38.906 -10.806   4.289  1.00  0.00     0.002 C 
HETATM   12  C   UNL     1      39.961 -10.289   3.317  1.00  0.00     0.002 C 
HETATM   13  C   UNL     1      40.367 -11.361   2.305  1.00  0.00     0.027 C 
HETATM   14  H   UNL     1      42.897 -12.140   2.856  1.00  0.00     0.163 HD
ENDROOT
BRANCH   1  15
HETATM   15  C   UNL     1      42.364 -15.382   5.949  1.00  0.00     0.146 C 
BRANCH  15  16
HETATM   16  C   UNL     1      42.094 -16.585   5.071  1.00  0.00     0.224 C 
HETATM   17  N   UNL     1      43.173 -16.920   4.289  1.00  0.00    -0.327 N 
HETATM   18  H   UNL     1      43.799 -16.155   4.053  1.00  0.00     0.169 HD
HETATM   19  O   UNL     1      41.021 -17.175   5.178  1.00  0.00    -0.273 OA
BRANCH  17  20
HETATM   20  C   UNL     1      43.445 -18.120   3.590  1.00  0.00     0.040 A 
HETATM   21  C   UNL     1      42.878 -18.536   2.372  1.00  0.00    -0.035 A 
HETATM   22  C   UNL     1      43.258 -19.790   1.840  1.00  0.00     0.015 A 
HETATM   23  C   UNL     1      41.848 -17.777   1.589  1.00  0.00     0.050 C 
HETATM   24  C   UNL     1      44.144 -20.645   2.504  1.00  0.00    -0.061 A 
HETATM   25  C   UNL     1      44.463 -21.999   1.945  1.00  0.00     0.048 C 
HETATM   26  C   UNL     1      44.657 -20.246   3.733  1.00  0.00     0.009 A 
HETATM   27  C   UNL     1      44.313 -19.001   4.265  1.00  0.00     0.030 A 
ENDBRANCH  17  20
ENDBRANCH  15  16
ENDBRANCH   1  15
TORSDOF 3
ENDMDL
MODEL 4
REMARK VINA RESULT:      -8.4      2.386      3.481
REMARK  3 active torsions:
REMARK  status: ('A' for Active; 'I' for Inactive)
REMARK    1  A    between atoms: C_6  and  N_7 
REMARK       I    between atoms: N_7  and  C_8 
REMARK    2  A    between atoms: C_8  and  C_9 
REMARK    3  A    between atoms: C_9  and  C_10 
ROOT
HETATM    1  C   UNL     1      41.130 -14.741   3.413  1.00  0.00     0.286 C 
HETATM    2  N   UNL     1      40.210 -15.784   2.789  1.00  0.00    -0.056 N 
HETATM    3  H   UNL     1      40.812 -16.624   2.636  1.00  0.00     0.278 HD
HETATM    4  H   UNL     1      39.487 -16.086   3.452  1.00  0.00     0.278 HD
HETATM    5  C   UNL     1      39.613 -15.392   1.467  1.00  0.00     0.209 C 
HETATM    6  C   UNL     1      40.734 -14.927   0.503  1.00  0.00     0.115 C 
HETATM    7  N   UNL     1      41.671 -13.983   1.115  1.00  0.00    -0.353 N 
HETATM    8  C   UNL     1      42.118 -14.121   2.409  1.00  0.00     0.249 C 
HETATM    9  O   UNL     1      43.202 -13.657   2.743  1.00  0.00    -0.271 OA
HETATM   10  C   UNL     1      38.516 -14.350   1.687  1.00  0.00     0.035 C 
HETATM   11  C   UNL     1      37.953 -13.856   0.358  1.00  0.00     0.002 C 
HETATM   12  C   UNL     1      39.059 -13.308  -0.538  1.00  0.00     0.002 C 
HETATM   13  C   UNL     1      40.146 -14.352  -0.792  1.00  0.00     0.027 C 
HETATM   14  H   UNL     1      42.387 -13.583   0.511  1.00  0.00     0.163 HD
ENDROOT
BRANCH   1  15
HETATM   15  C   UNL     1      41.845 -15.281   4.656  1.00  0.00     0.146 C 
BRANCH  15  16
HETATM   16  C   UNL     1      41.914 -16.793   4.666  1.00  0.00     0.224 C 
HETATM   17  N   UNL     1      43.086 -17.270   4.131  1.00  0.00    -0.327 N 
HETATM   18  H   UNL     1      43.530 -16.671   3.441  1.00  0.00     0.169 HD
HETATM   19  O   UNL     1      41.002 -17.430   5.191  1.00  0.00    -0.273 OA
BRANCH  17  20
HETATM   20  C   UNL     1      43.670 -18.556   4.236  1.00  0.00     0.040 A 
HETATM   21  C   UNL     1      43.940 -19.449   3.184  1.00  0.00    -0.035 A 
HETATM   22  C   UNL     1      44.506 -20.708   3.492  1.00  0.00     0.015 A 
HETATM   23  C   UNL     1      43.634 -19.206   1.735  1.00  0.00     0.050 C 
HETATM   24  C   UNL     1      44.765 -21.108   4.807  1.00  0.00    -0.061 A 
HETATM   25  C   UNL     1      45.294 -22.480   5.099  1.00  0.00     0.048 C 
HETATM   26  C   UNL     1      44.445 -20.237   5.842  1.00  0.00     0.009 A 
HETATM   27  C   UNL     1      43.907 -18.979   5.558  1.00  0.00     0.030 A 
ENDBRANCH  17  20
ENDBRANCH  15  16
ENDBRANCH   1  15
TORSDOF 3
ENDMDL
MODEL 5
REMARK VINA RESULT:      -8.2      2.437      3.346
REMARK  3 active torsions:
REMARK  status: ('A' for Active; 'I' for Inactive)
REMARK    1  A    between atoms: C_6  and  N_7 
REMARK       I    between atoms: N_7  and  C_8 
REMARK    2  A    between atoms: C_8  and  C_9 
REMARK    3  A    between atoms: C_9  and  C_10 
ROOT
HETATM    1  C   UNL     1      40.980 -14.409   3.302  1.00  0.00     0.286 C 
HETATM    2  N   UNL     1      39.900 -15.307   2.711  1.00  0.00    -0.056 N 
HETATM    3  H   UNL     1      40.383 -16.205   2.485  1.00  0.00     0.278 HD
HETATM    4  H   UNL     1      39.194 -15.551   3.415  1.00  0.00     0.278 HD
HETATM    5  C   UNL     1      39.264 -14.791   1.452  1.00  0.00     0.209 C 
HETATM    6  C   UNL     1      40.363 -14.419   0.424  1.00  0.00     0.115 C 
HETATM    7  N   UNL     1      41.448 -13.621   0.998  1.00  0.00    -0.353 N 
HETATM    8  C   UNL     1      41.964 -13.867   2.249  1.00  0.00     0.249 C 
HETATM    9  O   UNL     1      43.116 -13.549   2.518  1.00  0.00    -0.271 OA
HETATM   10  C   UNL     1      38.319 -13.636   1.789  1.00  0.00     0.035 C 
HETATM   11  C   UNL     1      37.729 -13.021   0.524  1.00  0.00     0.002 C 
HETATM   12  C   UNL     1      38.828 -12.569  -0.432  1.00  0.00     0.002 C 
HETATM   13  C   UNL     1      39.760 -13.722  -0.803  1.00  0.00     0.027 C 
HETATM   14  H   UNL     1      42.164 -13.282   0.357  1.00  0.00     0.163 HD
ENDROOT
BRANCH   1  15
HETATM   15  C   UNL     1      41.710 -15.083   4.468  1.00  0.00     0.146 C 
BRANCH  15  16
HETATM   16  C   UNL     1      41.718 -16.592   4.344  1.00  0.00     0.224 C 
HETATM   17  N   UNL     1      42.705 -17.045   3.502  1.00  0.00    -0.327 N 
HETATM   18  H   UNL     1      42.992 -16.398   2.773  1.00  0.00     0.169 HD
HETATM   19  O   UNL     1      40.935 -17.252   5.024  1.00  0.00    -0.273 OA
BRANCH  17  20
HETATM   20  C   UNL     1      43.245 -18.346   3.360  1.00  0.00     0.040 A 
HETATM   21  C   UNL     1      44.123 -18.998   4.244  1.00  0.00    -0.035 A 
HETATM   22  C   UNL     1      44.579 -20.295   3.915  1.00  0.00     0.015 A 
HETATM   23  C   UNL     1      44.673 -18.413   5.513  1.00  0.00     0.050 C 
HETATM   24  C   UNL     1      44.218 -20.932   2.723  1.00  0.00    -0.061 A 
HETATM   25  C   UNL     1      44.783 -22.277   2.373  1.00  0.00     0.048 C 
HETATM   26  C   UNL     1      43.392 -20.257   1.832  1.00  0.00     0.009 A 
HETATM   27  C   UNL     1      42.912 -18.984   2.149  1.00  0.00     0.030 A 
ENDBRANCH  17  20
ENDBRANCH  15  16
ENDBRANCH   1  15
TORSDOF 3
ENDMDL
MODEL 6
REMARK VINA RESULT:      -8.1      1.652      2.215
REMARK  3 active torsions:
REMARK  status: ('A' for Active; 'I' for Inactive)
REMARK    1  A    between atoms: C_6  and  N_7 
REMARK       I    between atoms: N_7  and  C_8 
REMARK    2  A    between atoms: C_8  and  C_9 
REMARK    3  A    between atoms: C_9  and  C_10 
ROOT
HETATM    1  C   UNL     1      40.544 -14.088   0.849  1.00  0.00     0.286 C 
HETATM    2  N   UNL     1      40.225 -15.138  -0.208  1.00  0.00    -0.056 N 
HETATM    3  H   UNL     1      40.955 -15.877  -0.091  1.00  0.00     0.278 HD
HETATM    4  H   UNL     1      39.334 -15.606  -0.010  1.00  0.00     0.278 HD
HETATM    5  C   UNL     1      40.283 -14.647  -1.627  1.00  0.00     0.209 C 
HETATM    6  C   UNL     1      41.635 -13.933  -1.880  1.00  0.00     0.115 C 
HETATM    7  N   UNL     1      41.992 -12.978  -0.830  1.00  0.00    -0.353 N 
HETATM    8  C   UNL     1      41.776 -13.232   0.505  1.00  0.00     0.249 C 
HETATM    9  O   UNL     1      42.472 -12.695   1.358  1.00  0.00    -0.271 OA
HETATM   10  C   UNL     1      39.060 -13.776  -1.920  1.00  0.00     0.035 C 
HETATM   11  C   UNL     1      39.134 -13.179  -3.322  1.00  0.00     0.002 C 
HETATM   12  C   UNL     1      40.427 -12.395  -3.518  1.00  0.00     0.002 C 
HETATM   13  C   UNL     1      41.657 -13.264  -3.260  1.00  0.00     0.027 C 
HETATM   14  H   UNL     1      42.833 -12.422  -0.975  1.00  0.00     0.163 HD
ENDROOT
BRANCH   1  15
HETATM   15  C   UNL     1      40.651 -14.701   2.250  1.00  0.00     0.146 C 
BRANCH  15  16
HETATM   16  C   UNL     1      40.894 -16.195   2.204  1.00  0.00     0.224 C 
HETATM   17  N   UNL     1      42.221 -16.517   2.357  1.00  0.00    -0.327 N 
HETATM   18  H   UNL     1      42.883 -15.809   2.053  1.00  0.00     0.169 HD
HETATM   19  O   UNL     1      39.932 -16.955   2.115  1.00  0.00    -0.273 OA
BRANCH  17  20
HETATM   20  C   UNL     1      42.818 -17.759   2.683  1.00  0.00     0.040 A 
HETATM   21  C   UNL     1      43.375 -18.130   3.920  1.00  0.00    -0.035 A 
HETATM   22  C   UNL     1      43.954 -19.414   4.045  1.00  0.00     0.015 A 
HETATM   23  C   UNL     1      43.457 -17.253   5.135  1.00  0.00     0.050 C 
HETATM   24  C   UNL     1      44.027 -20.307   2.971  1.00  0.00    -0.061 A 
HETATM   25  C   UNL     1      44.717 -21.630   3.122  1.00  0.00     0.048 C 
HETATM   26  C   UNL     1      43.520 -19.909   1.739  1.00  0.00     0.009 A 
HETATM   27  C   UNL     1      42.923 -18.654   1.601  1.00  0.00     0.030 A 
ENDBRANCH  17  20
ENDBRANCH  15  16
ENDBRANCH   1  15
TORSDOF 3
ENDMDL
MODEL 7
REMARK VINA RESULT:      -8.0      2.632      3.452
REMARK  3 active torsions:
REMARK  status: ('A' for Active; 'I' for Inactive)
REMARK    1  A    between atoms: C_6  and  N_7 
REMARK       I    between atoms: N_7  and  C_8 
REMARK    2  A    between atoms: C_8  and  C_9 
REMARK    3  A    between atoms: C_9  and  C_10 
ROOT
HETATM    1  C   UNL     1      41.496 -14.377  -1.364  1.00  0.00     0.286 C 
HETATM    2  N   UNL     1      40.853 -13.151  -0.728  1.00  0.00    -0.056 N 
HETATM    3  H   UNL     1      39.824 -13.330  -0.764  1.00  0.00     0.278 HD
HETATM    4  H   UNL     1      41.081 -13.087   0.270  1.00  0.00     0.278 HD
HETATM    5  C   UNL     1      41.124 -11.853  -1.436  1.00  0.00     0.209 C 
HETATM    6  C   UNL     1      40.784 -11.997  -2.941  1.00  0.00     0.115 C 
HETATM    7  N   UNL     1      41.330 -13.213  -3.546  1.00  0.00    -0.353 N 
HETATM    8  C   UNL     1      41.337 -14.424  -2.894  1.00  0.00     0.249 C 
HETATM    9  O   UNL     1      41.337 -15.470  -3.531  1.00  0.00    -0.271 OA
HETATM   10  C   UNL     1      42.564 -11.413  -1.168  1.00  0.00     0.035 C 
HETATM   11  C   UNL     1      42.907 -10.149  -1.950  1.00  0.00     0.002 C 
HETATM   12  C   UNL     1      42.661 -10.343  -3.443  1.00  0.00     0.002 C 
HETATM   13  C   UNL     1      41.216 -10.752  -3.727  1.00  0.00     0.027 C 
HETATM   14  H   UNL     1      41.204 -13.327  -4.551  1.00  0.00     0.163 HD
ENDROOT
BRANCH   1  15
HETATM   15  C   UNL     1      41.024 -15.677  -0.703  1.00  0.00     0.146 C 
BRANCH  15  16
HETATM   16  C   UNL     1      41.676 -15.904   0.644  1.00  0.00     0.224 C 
HETATM   17  N   UNL     1      41.591 -17.212   1.055  1.00  0.00    -0.327 N 
HETATM   18  H   UNL     1      40.798 -17.736   0.696  1.00  0.00     0.169 HD
HETATM   19  O   UNL     1      42.259 -14.971   1.191  1.00  0.00    -0.273 OA
BRANCH  17  20
HETATM   20  C   UNL     1      42.319 -17.892   2.062  1.00  0.00     0.040 A 
HETATM   21  C   UNL     1      42.170 -17.752   3.453  1.00  0.00    -0.035 A 
HETATM   22  C   UNL     1      43.013 -18.501   4.305  1.00  0.00     0.015 A 
HETATM   23  C   UNL     1      41.207 -16.824   4.136  1.00  0.00     0.050 C 
HETATM   24  C   UNL     1      44.016 -19.342   3.810  1.00  0.00    -0.061 A 
HETATM   25  C   UNL     1      44.941 -20.062   4.746  1.00  0.00     0.048 C 
HETATM   26  C   UNL     1      44.188 -19.432   2.434  1.00  0.00     0.009 A 
HETATM   27  C   UNL     1      43.350 -18.718   1.575  1.00  0.00     0.030 A 
ENDBRANCH  17  20
ENDBRANCH  15  16
ENDBRANCH   1  15
TORSDOF 3
ENDMDL
MODEL 8
REMARK VINA RESULT:      -8.0      3.159      3.882
REMARK  3 active torsions:
REMARK  status: ('A' for Active; 'I' for Inactive)
REMARK    1  A    between atoms: C_6  and  N_7 
REMARK       I    between atoms: N_7  and  C_8 
REMARK    2  A    between atoms: C_8  and  C_9 
REMARK    3  A    between atoms: C_9  and  C_10 
ROOT
HETATM    1  C   UNL     1      40.835 -14.114   3.748  1.00  0.00     0.286 C 
HETATM    2  N   UNL     1      41.017 -14.472   2.278  1.00  0.00    -0.056 N 
HETATM    3  H   UNL     1      41.942 -14.067   2.009  1.00  0.00     0.278 HD
HETATM    4  H   UNL     1      41.120 -15.485   2.152  1.00  0.00     0.278 HD
HETATM    5  C   UNL     1      39.975 -13.908   1.355  1.00  0.00     0.209 C 
HETATM    6  C   UNL     1      39.839 -12.382   1.588  1.00  0.00     0.115 C 
HETATM    7  N   UNL     1      39.743 -12.017   3.003  1.00  0.00    -0.353 N 
HETATM    8  C   UNL     1      40.497 -12.630   3.977  1.00  0.00     0.249 C 
HETATM    9  O   UNL     1      40.768 -12.039   5.015  1.00  0.00    -0.271 OA
HETATM   10  C   UNL     1      38.664 -14.677   1.527  1.00  0.00     0.035 C 
HETATM   11  C   UNL     1      37.554 -14.069   0.675  1.00  0.00     0.002 C 
HETATM   12  C   UNL     1      37.367 -12.589   0.992  1.00  0.00     0.002 C 
HETATM   13  C   UNL     1      38.662 -11.803   0.792  1.00  0.00     0.027 C 
HETATM   14  H   UNL     1      39.577 -11.036   3.219  1.00  0.00     0.163 HD
ENDROOT
BRANCH   1  15
HETATM   15  C   UNL     1      42.030 -14.562   4.597  1.00  0.00     0.146 C 
BRANCH  15  16
HETATM   16  C   UNL     1      42.938 -15.517   3.850  1.00  0.00     0.224 C 
HETATM   17  N   UNL     1      42.736 -16.827   4.213  1.00  0.00    -0.327 N 
HETATM   18  H   UNL     1      42.384 -16.973   5.155  1.00  0.00     0.169 HD
HETATM   19  O   UNL     1      43.683 -15.075   2.979  1.00  0.00    -0.273 OA
BRANCH  17  20
HETATM   20  C   UNL     1      43.131 -18.017   3.556  1.00  0.00     0.040 A 
HETATM   21  C   UNL     1      42.655 -18.501   2.324  1.00  0.00    -0.035 A 
HETATM   22  C   UNL     1      43.153 -19.733   1.841  1.00  0.00     0.015 A 
HETATM   23  C   UNL     1      41.608 -17.840   1.476  1.00  0.00     0.050 C 
HETATM   24  C   UNL     1      44.068 -20.503   2.565  1.00  0.00    -0.061 A 
HETATM   25  C   UNL     1      44.515 -21.841   2.055  1.00  0.00     0.048 C 
HETATM   26  C   UNL     1      44.492 -20.040   3.806  1.00  0.00     0.009 A 
HETATM   27  C   UNL     1      44.029 -18.814   4.291  1.00  0.00     0.030 A 
ENDBRANCH  17  20
ENDBRANCH  15  16
ENDBRANCH   1  15
TORSDOF 3
ENDMDL
MODEL 9
REMARK VINA RESULT:      -7.9      1.874      8.151
REMARK  3 active torsions:
REMARK  status: ('A' for Active; 'I' for Inactive)
REMARK    1  A    between atoms: C_6  and  N_7 
REMARK       I    between atoms: N_7  and  C_8 
REMARK    2  A    between atoms: C_8  and  C_9 
REMARK    3  A    between atoms: C_9  and  C_10 
ROOT
HETATM    1  C   UNL     1      43.608 -17.242   2.771  1.00  0.00     0.286 C 
HETATM    2  N   UNL     1      42.815 -18.417   3.331  1.00  0.00    -0.056 N 
HETATM    3  H   UNL     1      41.849 -18.302   2.951  1.00  0.00     0.278 HD
HETATM    4  H   UNL     1      43.151 -19.308   2.948  1.00  0.00     0.278 HD
HETATM    5  C   UNL     1      42.724 -18.464   4.829  1.00  0.00     0.209 C 
HETATM    6  C   UNL     1      42.231 -17.097   5.367  1.00  0.00     0.115 C 
HETATM    7  N   UNL     1      42.932 -15.954   4.778  1.00  0.00    -0.353 N 
HETATM    8  C   UNL     1      43.268 -15.901   3.446  1.00  0.00     0.249 C 
HETATM    9  O   UNL     1      43.400 -14.821   2.883  1.00  0.00    -0.271 OA
HETATM   10  C   UNL     1      44.066 -18.908   5.413  1.00  0.00     0.035 C 
HETATM   11  C   UNL     1      44.041 -18.874   6.938  1.00  0.00     0.002 C 
HETATM   12  C   UNL     1      43.652 -17.491   7.449  1.00  0.00     0.002 C 
HETATM   13  C   UNL     1      42.296 -17.049   6.899  1.00  0.00     0.027 C 
HETATM   14  H   UNL     1      42.704 -15.031   5.146  1.00  0.00     0.163 HD
ENDROOT
BRANCH   1  15
HETATM   15  C   UNL     1      43.500 -17.154   1.245  1.00  0.00     0.146 C 
BRANCH  15  16
HETATM   16  C   UNL     1      42.095 -16.822   0.788  1.00  0.00     0.224 C 
HETATM   17  N   UNL     1      42.035 -15.640   0.091  1.00  0.00    -0.327 N 
HETATM   18  H   UNL     1      42.750 -14.956   0.322  1.00  0.00     0.169 HD
HETATM   19  O   UNL     1      41.191 -17.627   1.001  1.00  0.00    -0.273 OA
BRANCH  17  20
HETATM   20  C   UNL     1      41.014 -15.140  -0.754  1.00  0.00     0.040 A 
HETATM   21  C   UNL     1      39.970 -14.270  -0.394  1.00  0.00    -0.035 A 
HETATM   22  C   UNL     1      39.024 -13.901  -1.378  1.00  0.00     0.015 A 
HETATM   23  C   UNL     1      39.733 -13.718   0.981  1.00  0.00     0.050 C 
HETATM   24  C   UNL     1      39.069 -14.407  -2.682  1.00  0.00    -0.061 A 
HETATM   25  C   UNL     1      38.004 -14.052  -3.677  1.00  0.00     0.048 C 
HETATM   26  C   UNL     1      40.075 -15.308  -3.011  1.00  0.00     0.009 A 
HETATM   27  C   UNL     1      41.033 -15.666  -2.060  1.00  0.00     0.030 A 
ENDBRANCH  17  20
ENDBRANCH  15  16
ENDBRANCH   1  15
TORSDOF 3
ENDMDL
MODEL 10
REMARK VINA RESULT:      -7.8      7.270     10.191
REMARK  3 active torsions:
REMARK  status: ('A' for Active; 'I' for Inactive)
REMARK    1  A    between atoms: C_6  and  N_7 
REMARK       I    between atoms: N_7  and  C_8 
REMARK    2  A    between atoms: C_8  and  C_9 
REMARK    3  A    between atoms: C_9  and  C_10 
ROOT
HETATM    1  C   UNL     1      41.466 -12.356   6.208  1.00  0.00     0.286 C 
HETATM    2  N   UNL     1      42.308 -13.026   5.129  1.00  0.00    -0.056 N 
HETATM    3  H   UNL     1      41.848 -12.775   4.225  1.00  0.00     0.278 HD
HETATM    4  H   UNL     1      43.245 -12.611   5.078  1.00  0.00     0.278 HD
HETATM    5  C   UNL     1      42.376 -14.524   5.217  1.00  0.00     0.209 C 
HETATM    6  C   UNL     1      40.944 -15.109   5.308  1.00  0.00     0.115 C 
HETATM    7  N   UNL     1      40.098 -14.422   6.286  1.00  0.00    -0.353 N 
HETATM    8  C   UNL     1      40.116 -13.057   6.449  1.00  0.00     0.249 C 
HETATM    9  O   UNL     1      39.131 -12.471   6.881  1.00  0.00    -0.271 OA
HETATM   10  C   UNL     1      43.284 -14.931   6.378  1.00  0.00     0.035 C 
HETATM   11  C   UNL     1      43.300 -16.445   6.559  1.00  0.00     0.002 C 
HETATM   12  C   UNL     1      41.888 -16.991   6.750  1.00  0.00     0.002 C 
HETATM   13  C   UNL     1      40.979 -16.619   5.579  1.00  0.00     0.027 C 
HETATM   14  H   UNL     1      39.169 -14.807   6.447  1.00  0.00     0.163 HD
ENDROOT
BRANCH   1  15
HETATM   15  C   UNL     1      41.289 -10.856   5.945  1.00  0.00     0.146 C 
BRANCH  15  16
HETATM   16  C   UNL     1      41.636 -10.018   7.157  1.00  0.00     0.224 C 
HETATM   17  N   UNL     1      41.689 -10.759   8.312  1.00  0.00    -0.327 N 
HETATM   18  H   UNL     1      41.107 -11.592   8.327  1.00  0.00     0.169 HD
HETATM   19  O   UNL     1      41.901  -8.827   7.004  1.00  0.00    -0.273 OA
BRANCH  17  20
HETATM   20  C   UNL     1      42.268 -10.442   9.565  1.00  0.00     0.040 A 
HETATM   21  C   UNL     1      43.544 -10.813  10.025  1.00  0.00    -0.035 A 
HETATM   22  C   UNL     1      43.937 -10.422  11.325  1.00  0.00     0.015 A 
HETATM   23  C   UNL     1      44.534 -11.646   9.264  1.00  0.00     0.050 C 
HETATM   24  C   UNL     1      43.085  -9.716  12.181  1.00  0.00    -0.061 A 
HETATM   25  C   UNL     1      43.510  -9.385  13.581  1.00  0.00     0.048 C 
HETATM   26  C   UNL     1      41.807  -9.400  11.735  1.00  0.00     0.009 A 
HETATM   27  C   UNL     1      41.407  -9.757  10.445  1.00  0.00     0.030 A 
ENDBRANCH  17  20
ENDBRANCH  15  16
ENDBRANCH   1  15
TORSDOF 3
ENDMDL
