MODEL 1
REMARK VINA RESULT:      -7.9      0.000      0.000
REMARK  3 active torsions:
REMARK  status: ('A' for Active; 'I' for Inactive)
REMARK    1  A    between atoms: C_3  and  N_4 
REMARK    2  A    between atoms: C_14  and  N_15 
REMARK       I    between atoms: N_15  and  C_16 
REMARK    3  A    between atoms: C_16  and  C_17 
ROOT
HETATM    1  N   UNL     1      42.959 -14.898   5.127  1.00  0.00    -0.237 N 
HETATM    2  N   UNL     1      43.905 -14.582   6.055  1.00  0.00    -0.179 NA
HETATM    3  C   UNL     1      43.560 -13.387   6.525  1.00  0.00     0.150 A 
HETATM    4  C   UNL     1      42.395 -12.897   5.926  1.00  0.00     0.008 A 
HETATM    5  C   UNL     1      42.003 -13.892   5.047  1.00  0.00     0.047 A 
HETATM    6  C   UNL     1      40.898 -13.748   4.048  1.00  0.00     0.069 C 
HETATM    7  C   UNL     1      39.936 -12.581   4.432  1.00  0.00    -0.040 C 
HETATM    8  C   UNL     1      38.937 -13.054   5.509  1.00  0.00     0.015 C 
HETATM    9  C   UNL     1      39.122 -12.186   3.183  1.00  0.00     0.015 C 
HETATM   10  C   UNL     1      40.734 -11.329   4.915  1.00  0.00     0.039 C 
HETATM   11  C   UNL     1      41.723 -11.580   6.079  1.00  0.00     0.122 C 
ENDROOT
BRANCH  11  12
HETATM   12  N   UNL     1      41.083 -11.547   7.379  1.00  0.00    -0.347 N 
HETATM   13  C   UNL     1      41.495 -10.663   8.342  1.00  0.00     0.270 C 
HETATM   14  O   UNL     1      42.399  -9.849   8.177  1.00  0.00    -0.266 OA
HETATM   15  H   UNL     1      40.319 -12.184   7.550  1.00  0.00     0.163 HD
BRANCH  13  16
HETATM   16  C   UNL     1      40.789 -10.738   9.646  1.00  0.00     0.120 A 
HETATM   17  N   UNL     1      41.390 -11.339  10.732  1.00  0.00    -0.303 N 
HETATM   18  C   UNL     1      40.527 -11.298  11.827  1.00  0.00     0.324 A 
HETATM   19  H   UNL     1      42.311 -11.752  10.724  1.00  0.00     0.171 HD
HETATM   20  O   UNL     1      40.713 -11.733  12.946  1.00  0.00    -0.247 OA
HETATM   21  N   UNL     1      39.385 -10.641  11.346  1.00  0.00    -0.316 N 
HETATM   22  C   UNL     1      39.571 -10.315  10.024  1.00  0.00     0.128 A 
HETATM   23  H   UNL     1      38.572 -10.463  11.916  1.00  0.00     0.170 HD
ENDBRANCH  13  16
ENDBRANCH  11  12
BRANCH   1  24
HETATM   24  C   UNL     1      43.049 -16.125   4.405  1.00  0.00     0.064 A 
HETATM   25  C   UNL     1      42.602 -17.346   4.963  1.00  0.00    -0.033 A 
HETATM   26  C   UNL     1      42.047 -17.477   6.358  1.00  0.00     0.050 C 
HETATM   27  C   UNL     1      42.699 -18.519   4.191  1.00  0.00     0.009 A 
HETATM   28  C   UNL     1      43.231 -18.494   2.903  1.00  0.00     0.001 A 
HETATM   29  C   UNL     1      43.658 -17.291   2.354  1.00  0.00     0.002 A 
HETATM   30  C   UNL     1      43.562 -16.112   3.097  1.00  0.00     0.032 A 
ENDBRANCH   1  24
TORSDOF 3
ENDMDL
MODEL 2
REMARK VINA RESULT:      -7.5      4.175      6.403
REMARK  3 active torsions:
REMARK  status: ('A' for Active; 'I' for Inactive)
REMARK    1  A    between atoms: C_3  and  N_4 
REMARK    2  A    between atoms: C_14  and  N_15 
REMARK       I    between atoms: N_15  and  C_16 
REMARK    3  A    between atoms: C_16  and  C_17 
ROOT
HETATM    1  N   UNL     1      42.531 -17.701   4.182  1.00  0.00    -0.237 N 
HETATM    2  N   UNL     1      41.423 -17.762   3.391  1.00  0.00    -0.179 NA
HETATM    3  C   UNL     1      40.889 -16.545   3.429  1.00  0.00     0.150 A 
HETATM    4  C   UNL     1      41.625 -15.667   4.232  1.00  0.00     0.008 A 
HETATM    5  C   UNL     1      42.695 -16.417   4.689  1.00  0.00     0.047 A 
HETATM    6  C   UNL     1      43.668 -15.955   5.728  1.00  0.00     0.069 C 
HETATM    7  C   UNL     1      43.650 -14.400   5.868  1.00  0.00    -0.040 C 
HETATM    8  C   UNL     1      44.498 -13.760   4.749  1.00  0.00     0.015 C 
HETATM    9  C   UNL     1      44.295 -14.022   7.216  1.00  0.00     0.015 C 
HETATM   10  C   UNL     1      42.188 -13.850   5.851  1.00  0.00     0.039 C 
HETATM   11  C   UNL     1      41.337 -14.263   4.626  1.00  0.00     0.122 C 
ENDROOT
BRANCH  11  12
HETATM   12  N   UNL     1      41.561 -13.414   3.473  1.00  0.00    -0.347 N 
HETATM   13  C   UNL     1      40.534 -12.691   2.924  1.00  0.00     0.270 C 
HETATM   14  O   UNL     1      39.388 -12.696   3.362  1.00  0.00    -0.266 OA
HETATM   15  H   UNL     1      42.495 -13.363   3.093  1.00  0.00     0.163 HD
BRANCH  13  16
HETATM   16  C   UNL     1      40.872 -11.880   1.726  1.00  0.00     0.120 A 
HETATM   17  N   UNL     1      42.174 -11.804   1.279  1.00  0.00    -0.303 N 
HETATM   18  C   UNL     1      42.237 -10.977   0.157  1.00  0.00     0.324 A 
HETATM   19  H   UNL     1      42.958 -12.272   1.709  1.00  0.00     0.171 HD
HETATM   20  O   UNL     1      43.214 -10.674  -0.498  1.00  0.00    -0.247 OA
HETATM   21  N   UNL     1      40.911 -10.567  -0.046  1.00  0.00    -0.316 N 
HETATM   22  C   UNL     1      40.108 -11.126   0.918  1.00  0.00     0.128 A 
HETATM   23  H   UNL     1      40.637  -9.947  -0.794  1.00  0.00     0.170 HD
ENDBRANCH  13  16
ENDBRANCH  11  12
BRANCH   1  24
HETATM   24  C   UNL     1      43.331 -18.865   4.380  1.00  0.00     0.064 A 
HETATM   25  C   UNL     1      44.069 -19.444   3.321  1.00  0.00    -0.033 A 
HETATM   26  C   UNL     1      44.045 -18.931   1.903  1.00  0.00     0.050 C 
HETATM   27  C   UNL     1      44.857 -20.580   3.585  1.00  0.00     0.009 A 
HETATM   28  C   UNL     1      44.911 -21.140   4.861  1.00  0.00     0.001 A 
HETATM   29  C   UNL     1      44.194 -20.562   5.901  1.00  0.00     0.002 A 
HETATM   30  C   UNL     1      43.414 -19.427   5.665  1.00  0.00     0.032 A 
ENDBRANCH   1  24
TORSDOF 3
ENDMDL
MODEL 3
REMARK VINA RESULT:      -7.4      5.466      8.076
REMARK  3 active torsions:
REMARK  status: ('A' for Active; 'I' for Inactive)
REMARK    1  A    between atoms: C_3  and  N_4 
REMARK    2  A    between atoms: C_14  and  N_15 
REMARK       I    between atoms: N_15  and  C_16 
REMARK    3  A    between atoms: C_16  and  C_17 
ROOT
HETATM    1  N   UNL     1      42.164 -17.637   2.967  1.00  0.00    -0.237 N 
HETATM    2  N   UNL     1      41.737 -18.202   1.803  1.00  0.00    -0.179 NA
HETATM    3  C   UNL     1      41.083 -17.241   1.158  1.00  0.00     0.150 A 
HETATM    4  C   UNL     1      41.067 -16.039   1.871  1.00  0.00     0.008 A 
HETATM    5  C   UNL     1      41.790 -16.299   3.022  1.00  0.00     0.047 A 
HETATM    6  C   UNL     1      41.898 -15.360   4.182  1.00  0.00     0.069 C 
HETATM    7  C   UNL     1      41.543 -13.899   3.762  1.00  0.00    -0.040 C 
HETATM    8  C   UNL     1      42.757 -13.238   3.077  1.00  0.00     0.015 C 
HETATM    9  C   UNL     1      41.226 -13.087   5.035  1.00  0.00     0.015 C 
HETATM   10  C   UNL     1      40.287 -13.870   2.835  1.00  0.00     0.039 C 
HETATM   11  C   UNL     1      40.374 -14.758   1.570  1.00  0.00     0.122 C 
ENDROOT
BRANCH  11  12
HETATM   12  N   UNL     1      41.071 -14.112   0.476  1.00  0.00    -0.347 N 
HETATM   13  C   UNL     1      40.468 -13.954  -0.744  1.00  0.00     0.270 C 
HETATM   14  O   UNL     1      39.323 -14.321  -0.990  1.00  0.00    -0.266 OA
HETATM   15  H   UNL     1      42.008 -13.775   0.641  1.00  0.00     0.163 HD
BRANCH  13  16
HETATM   16  C   UNL     1      41.287 -13.307  -1.801  1.00  0.00     0.120 A 
HETATM   17  N   UNL     1      41.686 -11.993  -1.669  1.00  0.00    -0.303 N 
HETATM   18  C   UNL     1      42.426 -11.614  -2.789  1.00  0.00     0.324 A 
HETATM   19  H   UNL     1      41.463 -11.401  -0.883  1.00  0.00     0.171 HD
HETATM   20  O   UNL     1      42.932 -10.534  -3.023  1.00  0.00    -0.247 OA
HETATM   21  N   UNL     1      42.455 -12.762  -3.592  1.00  0.00    -0.316 N 
HETATM   22  C   UNL     1      41.757 -13.770  -2.971  1.00  0.00     0.128 A 
HETATM   23  H   UNL     1      42.921 -12.796  -4.486  1.00  0.00     0.170 HD
ENDBRANCH  13  16
ENDBRANCH  11  12
BRANCH   1  24
HETATM   24  C   UNL     1      42.888 -18.418   3.916  1.00  0.00     0.064 A 
HETATM   25  C   UNL     1      43.991 -19.216   3.528  1.00  0.00    -0.033 A 
HETATM   26  C   UNL     1      44.467 -19.356   2.105  1.00  0.00     0.050 C 
HETATM   27  C   UNL     1      44.678 -19.947   4.516  1.00  0.00     0.009 A 
HETATM   28  C   UNL     1      44.284 -19.902   5.853  1.00  0.00     0.001 A 
HETATM   29  C   UNL     1      43.208 -19.108   6.230  1.00  0.00     0.002 A 
HETATM   30  C   UNL     1      42.518 -18.365   5.270  1.00  0.00     0.032 A 
ENDBRANCH   1  24
TORSDOF 3
ENDMDL
MODEL 4
REMARK VINA RESULT:      -7.4      5.307      8.054
REMARK  3 active torsions:
REMARK  status: ('A' for Active; 'I' for Inactive)
REMARK    1  A    between atoms: C_3  and  N_4 
REMARK    2  A    between atoms: C_14  and  N_15 
REMARK       I    between atoms: N_15  and  C_16 
REMARK    3  A    between atoms: C_16  and  C_17 
ROOT
HETATM    1  N   UNL     1      41.515 -17.096   3.122  1.00  0.00    -0.237 N 
HETATM    2  N   UNL     1      40.624 -17.735   2.312  1.00  0.00    -0.179 NA
HETATM    3  C   UNL     1      39.859 -16.777   1.797  1.00  0.00     0.150 A 
HETATM    4  C   UNL     1      40.224 -15.505   2.249  1.00  0.00     0.008 A 
HETATM    5  C   UNL     1      41.309 -15.722   3.081  1.00  0.00     0.047 A 
HETATM    6  C   UNL     1      41.937 -14.670   3.940  1.00  0.00     0.069 C 
HETATM    7  C   UNL     1      41.577 -13.237   3.436  1.00  0.00    -0.040 C 
HETATM    8  C   UNL     1      42.486 -12.851   2.250  1.00  0.00     0.015 C 
HETATM    9  C   UNL     1      41.847 -12.234   4.575  1.00  0.00     0.015 C 
HETATM   10  C   UNL     1      40.068 -13.142   3.044  1.00  0.00     0.039 C 
HETATM   11  C   UNL     1      39.583 -14.185   2.008  1.00  0.00     0.122 C 
ENDROOT
BRANCH  11  12
HETATM   12  N   UNL     1      39.859 -13.791   0.641  1.00  0.00    -0.347 N 
HETATM   13  C   UNL     1      38.867 -13.801  -0.305  1.00  0.00     0.270 C 
HETATM   14  O   UNL     1      37.705 -14.120  -0.071  1.00  0.00    -0.266 OA
HETATM   15  H   UNL     1      40.797 -13.500   0.409  1.00  0.00     0.163 HD
BRANCH  13  16
HETATM   16  C   UNL     1      39.270 -13.408  -1.680  1.00  0.00     0.120 A 
HETATM   17  N   UNL     1      40.585 -13.104  -1.962  1.00  0.00    -0.303 N 
HETATM   18  C   UNL     1      40.706 -12.753  -3.307  1.00  0.00     0.324 A 
HETATM   19  H   UNL     1      41.337 -13.126  -1.289  1.00  0.00     0.171 HD
HETATM   20  O   UNL     1      41.709 -12.422  -3.908  1.00  0.00    -0.247 OA
HETATM   21  N   UNL     1      39.404 -12.867  -3.815  1.00  0.00    -0.316 N 
HETATM   22  C   UNL     1      38.556 -13.263  -2.809  1.00  0.00     0.128 A 
HETATM   23  H   UNL     1      39.171 -12.669  -4.776  1.00  0.00     0.170 HD
ENDBRANCH  13  16
ENDBRANCH  11  12
BRANCH   1  24
HETATM   24  C   UNL     1      42.477 -17.849   3.858  1.00  0.00     0.064 A 
HETATM   25  C   UNL     1      43.678 -18.297   3.260  1.00  0.00    -0.033 A 
HETATM   26  C   UNL     1      44.028 -18.074   1.811  1.00  0.00     0.050 C 
HETATM   27  C   UNL     1      44.599 -19.018   4.046  1.00  0.00     0.009 A 
HETATM   28  C   UNL     1      44.339 -19.297   5.387  1.00  0.00     0.001 A 
HETATM   29  C   UNL     1      43.164 -18.845   5.973  1.00  0.00     0.002 A 
HETATM   30  C   UNL     1      42.241 -18.119   5.216  1.00  0.00     0.032 A 
ENDBRANCH   1  24
TORSDOF 3
ENDMDL
MODEL 5
REMARK VINA RESULT:      -7.4      5.259      8.045
REMARK  3 active torsions:
REMARK  status: ('A' for Active; 'I' for Inactive)
REMARK    1  A    between atoms: C_3  and  N_4 
REMARK    2  A    between atoms: C_14  and  N_15 
REMARK       I    between atoms: N_15  and  C_16 
REMARK    3  A    between atoms: C_16  and  C_17 
ROOT
HETATM    1  N   UNL     1      41.867 -16.777   3.929  1.00  0.00    -0.237 N 
HETATM    2  N   UNL     1      41.688 -17.722   2.964  1.00  0.00    -0.179 NA
HETATM    3  C   UNL     1      40.986 -17.126   2.005  1.00  0.00     0.150 A 
HETATM    4  C   UNL     1      40.694 -15.793   2.312  1.00  0.00     0.008 A 
HETATM    5  C   UNL     1      41.290 -15.573   3.541  1.00  0.00     0.047 A 
HETATM    6  C   UNL     1      41.102 -14.336   4.362  1.00  0.00     0.069 C 
HETATM    7  C   UNL     1      40.587 -13.149   3.487  1.00  0.00    -0.040 C 
HETATM    8  C   UNL     1      41.766 -12.502   2.731  1.00  0.00     0.015 C 
HETATM    9  C   UNL     1      39.987 -12.078   4.419  1.00  0.00     0.015 C 
HETATM   10  C   UNL     1      39.475 -13.621   2.498  1.00  0.00     0.039 C 
HETATM   11  C   UNL     1      39.861 -14.804   1.578  1.00  0.00     0.122 C 
ENDROOT
BRANCH  11  12
HETATM   12  N   UNL     1      40.590 -14.385   0.398  1.00  0.00    -0.347 N 
HETATM   13  C   UNL     1      39.930 -14.087  -0.766  1.00  0.00     0.270 C 
HETATM   14  O   UNL     1      38.710 -14.137  -0.889  1.00  0.00    -0.266 OA
HETATM   15  H   UNL     1      41.595 -14.309   0.461  1.00  0.00     0.163 HD
BRANCH  13  16
HETATM   16  C   UNL     1      40.781 -13.698  -1.920  1.00  0.00     0.120 A 
HETATM   17  N   UNL     1      41.216 -12.397  -2.060  1.00  0.00    -0.303 N 
HETATM   18  C   UNL     1      41.980 -12.281  -3.222  1.00  0.00     0.324 A 
HETATM   19  H   UNL     1      41.000 -11.647  -1.420  1.00  0.00     0.171 HD
HETATM   20  O   UNL     1      42.520 -11.289  -3.668  1.00  0.00    -0.247 OA
HETATM   21  N   UNL     1      41.985 -13.574  -3.764  1.00  0.00    -0.316 N 
HETATM   22  C   UNL     1      41.251 -14.410  -2.958  1.00  0.00     0.128 A 
HETATM   23  H   UNL     1      42.461 -13.807  -4.623  1.00  0.00     0.170 HD
ENDBRANCH  13  16
ENDBRANCH  11  12
BRANCH   1  24
HETATM   24  C   UNL     1      42.570 -17.104   5.127  1.00  0.00     0.064 A 
HETATM   25  C   UNL     1      41.905 -17.194   6.372  1.00  0.00    -0.033 A 
HETATM   26  C   UNL     1      40.436 -16.912   6.561  1.00  0.00     0.050 C 
HETATM   27  C   UNL     1      42.650 -17.541   7.515  1.00  0.00     0.009 A 
HETATM   28  C   UNL     1      44.021 -17.786   7.435  1.00  0.00     0.001 A 
HETATM   29  C   UNL     1      44.667 -17.708   6.208  1.00  0.00     0.002 A 
HETATM   30  C   UNL     1      43.946 -17.375   5.059  1.00  0.00     0.032 A 
ENDBRANCH   1  24
TORSDOF 3
ENDMDL
MODEL 6
REMARK VINA RESULT:      -7.4      5.033      8.014
REMARK  3 active torsions:
REMARK  status: ('A' for Active; 'I' for Inactive)
REMARK    1  A    between atoms: C_3  and  N_4 
REMARK    2  A    between atoms: C_14  and  N_15 
REMARK       I    between atoms: N_15  and  C_16 
REMARK    3  A    between atoms: C_16  and  C_17 
ROOT
HETATM    1  N   UNL     1      41.818 -16.775   3.969  1.00  0.00    -0.237 N 
HETATM    2  N   UNL     1      41.014 -17.673   3.333  1.00  0.00    -0.179 NA
HETATM    3  C   UNL     1      40.133 -16.946   2.654  1.00  0.00     0.150 A 
HETATM    4  C   UNL     1      40.334 -15.573   2.822  1.00  0.00     0.008 A 
HETATM    5  C   UNL     1      41.439 -15.475   3.650  1.00  0.00     0.047 A 
HETATM    6  C   UNL     1      41.931 -14.198   4.256  1.00  0.00     0.069 C 
HETATM    7  C   UNL     1      41.391 -12.958   3.476  1.00  0.00    -0.040 C 
HETATM    8  C   UNL     1      42.241 -12.718   2.211  1.00  0.00     0.015 C 
HETATM    9  C   UNL     1      41.534 -11.714   4.376  1.00  0.00     0.015 C 
HETATM   10  C   UNL     1      39.882 -13.133   3.116  1.00  0.00     0.039 C 
HETATM   11  C   UNL     1      39.531 -14.421   2.333  1.00  0.00     0.122 C 
ENDROOT
BRANCH  11  12
HETATM   12  N   UNL     1      39.752 -14.290   0.906  1.00  0.00    -0.347 N 
HETATM   13  C   UNL     1      38.714 -13.999   0.059  1.00  0.00     0.270 C 
HETATM   14  O   UNL     1      37.559 -13.820   0.434  1.00  0.00    -0.266 OA
HETATM   15  H   UNL     1      40.691 -14.408   0.556  1.00  0.00     0.163 HD
BRANCH  13  16
HETATM   16  C   UNL     1      39.050 -13.919  -1.385  1.00  0.00     0.120 A 
HETATM   17  N   UNL     1      39.428 -15.050  -2.078  1.00  0.00    -0.303 N 
HETATM   18  C   UNL     1      39.705 -14.717  -3.404  1.00  0.00     0.324 A 
HETATM   19  H   UNL     1      39.501 -15.973  -1.676  1.00  0.00     0.171 HD
HETATM   20  O   UNL     1      40.069 -15.450  -4.302  1.00  0.00    -0.247 OA
HETATM   21  N   UNL     1      39.469 -13.336  -3.472  1.00  0.00    -0.316 N 
HETATM   22  C   UNL     1      39.076 -12.880  -2.236  1.00  0.00     0.128 A 
HETATM   23  H   UNL     1      39.590 -12.799  -4.317  1.00  0.00     0.170 HD
ENDBRANCH  13  16
ENDBRANCH  11  12
BRANCH   1  24
HETATM   24  C   UNL     1      42.870 -17.232   4.817  1.00  0.00     0.064 A 
HETATM   25  C   UNL     1      43.891 -18.083   4.333  1.00  0.00    -0.033 A 
HETATM   26  C   UNL     1      43.942 -18.617   2.924  1.00  0.00     0.050 C 
HETATM   27  C   UNL     1      44.914 -18.483   5.214  1.00  0.00     0.009 A 
HETATM   28  C   UNL     1      44.926 -18.063   6.544  1.00  0.00     0.001 A 
HETATM   29  C   UNL     1      43.927 -17.218   7.011  1.00  0.00     0.002 A 
HETATM   30  C   UNL     1      42.908 -16.799   6.152  1.00  0.00     0.032 A 
ENDBRANCH   1  24
TORSDOF 3
ENDMDL
MODEL 7
REMARK VINA RESULT:      -7.2      7.129      9.938
REMARK  3 active torsions:
REMARK  status: ('A' for Active; 'I' for Inactive)
REMARK    1  A    between atoms: C_3  and  N_4 
REMARK    2  A    between atoms: C_14  and  N_15 
REMARK       I    between atoms: N_15  and  C_16 
REMARK    3  A    between atoms: C_16  and  C_17 
ROOT
HETATM    1  N   UNL     1      40.274 -15.323   1.199  1.00  0.00    -0.237 N 
HETATM    2  N   UNL     1      39.008 -15.179   1.681  1.00  0.00    -0.179 NA
HETATM    3  C   UNL     1      38.432 -14.265   0.906  1.00  0.00     0.150 A 
HETATM    4  C   UNL     1      39.293 -13.796  -0.092  1.00  0.00     0.008 A 
HETATM    5  C   UNL     1      40.467 -14.505   0.091  1.00  0.00     0.047 A 
HETATM    6  C   UNL     1      41.746 -14.222  -0.632  1.00  0.00     0.069 C 
HETATM    7  C   UNL     1      41.489 -13.402  -1.937  1.00  0.00    -0.040 C 
HETATM    8  C   UNL     1      41.025 -14.344  -3.067  1.00  0.00     0.015 C 
HETATM    9  C   UNL     1      42.818 -12.759  -2.381  1.00  0.00     0.015 C 
HETATM   10  C   UNL     1      40.450 -12.263  -1.689  1.00  0.00     0.039 C 
HETATM   11  C   UNL     1      39.095 -12.717  -1.096  1.00  0.00     0.122 C 
ENDROOT
BRANCH  11  12
HETATM   12  N   UNL     1      38.172 -13.202  -2.103  1.00  0.00    -0.347 N 
HETATM   13  C   UNL     1      37.416 -12.328  -2.840  1.00  0.00     0.270 C 
HETATM   14  O   UNL     1      37.471 -11.108  -2.717  1.00  0.00    -0.266 OA
HETATM   15  H   UNL     1      38.111 -14.198  -2.254  1.00  0.00     0.163 HD
BRANCH  13  16
HETATM   16  C   UNL     1      36.483 -12.936  -3.823  1.00  0.00     0.120 A 
HETATM   17  N   UNL     1      35.398 -12.224  -4.290  1.00  0.00    -0.303 N 
HETATM   18  C   UNL     1      34.671 -13.010  -5.183  1.00  0.00     0.324 A 
HETATM   19  H   UNL     1      35.168 -11.281  -4.014  1.00  0.00     0.171 HD
HETATM   20  O   UNL     1      33.657 -12.719  -5.785  1.00  0.00    -0.247 OA
HETATM   21  N   UNL     1      35.374 -14.222  -5.232  1.00  0.00    -0.316 N 
HETATM   22  C   UNL     1      36.464 -14.150  -4.398  1.00  0.00     0.128 A 
HETATM   23  H   UNL     1      35.083 -15.004  -5.799  1.00  0.00     0.170 HD
ENDBRANCH  13  16
ENDBRANCH  11  12
BRANCH   1  24
HETATM   24  C   UNL     1      41.181 -16.225   1.831  1.00  0.00     0.064 A 
HETATM   25  C   UNL     1      41.910 -15.850   2.984  1.00  0.00    -0.033 A 
HETATM   26  C   UNL     1      41.842 -14.481   3.613  1.00  0.00     0.050 C 
HETATM   27  C   UNL     1      42.774 -16.792   3.576  1.00  0.00     0.009 A 
HETATM   28  C   UNL     1      42.923 -18.070   3.039  1.00  0.00     0.001 A 
HETATM   29  C   UNL     1      42.196 -18.438   1.914  1.00  0.00     0.002 A 
HETATM   30  C   UNL     1      41.324 -17.524   1.317  1.00  0.00     0.032 A 
ENDBRANCH   1  24
TORSDOF 3
ENDMDL
MODEL 8
REMARK VINA RESULT:      -7.0      3.502      5.348
REMARK  3 active torsions:
REMARK  status: ('A' for Active; 'I' for Inactive)
REMARK    1  A    between atoms: C_3  and  N_4 
REMARK    2  A    between atoms: C_14  and  N_15 
REMARK       I    between atoms: N_15  and  C_16 
REMARK    3  A    between atoms: C_16  and  C_17 
ROOT
HETATM    1  N   UNL     1      42.387 -17.886   4.754  1.00  0.00    -0.237 N 
HETATM    2  N   UNL     1      41.053 -18.148   4.833  1.00  0.00    -0.179 NA
HETATM    3  C   UNL     1      40.491 -17.018   5.250  1.00  0.00     0.150 A 
HETATM    4  C   UNL     1      41.429 -16.001   5.451  1.00  0.00     0.008 A 
HETATM    5  C   UNL     1      42.644 -16.565   5.102  1.00  0.00     0.047 A 
HETATM    6  C   UNL     1      43.972 -15.911   5.319  1.00  0.00     0.069 C 
HETATM    7  C   UNL     1      43.819 -14.368   5.507  1.00  0.00    -0.040 C 
HETATM    8  C   UNL     1      43.674 -13.682   4.133  1.00  0.00     0.015 C 
HETATM    9  C   UNL     1      45.103 -13.826   6.166  1.00  0.00     0.015 C 
HETATM   10  C   UNL     1      42.610 -14.032   6.435  1.00  0.00     0.039 C 
HETATM   11  C   UNL     1      41.251 -14.630   6.000  1.00  0.00     0.122 C 
ENDROOT
BRANCH  11  12
HETATM   12  N   UNL     1      40.576 -13.827   5.000  1.00  0.00    -0.347 N 
HETATM   13  C   UNL     1      39.668 -12.868   5.367  1.00  0.00     0.270 C 
HETATM   14  O   UNL     1      39.378 -12.615   6.532  1.00  0.00    -0.266 OA
HETATM   15  H   UNL     1      40.801 -13.986   4.029  1.00  0.00     0.163 HD
BRANCH  13  16
HETATM   16  C   UNL     1      39.015 -12.126   4.258  1.00  0.00     0.120 A 
HETATM   17  N   UNL     1      39.048 -12.622   2.971  1.00  0.00    -0.303 N 
HETATM   18  C   UNL     1      38.384 -11.744   2.114  1.00  0.00     0.324 A 
HETATM   19  H   UNL     1      39.496 -13.485   2.699  1.00  0.00     0.171 HD
HETATM   20  O   UNL     1      38.218 -11.849   0.915  1.00  0.00    -0.247 OA
HETATM   21  N   UNL     1      37.949 -10.705   2.949  1.00  0.00    -0.316 N 
HETATM   22  C   UNL     1      38.346 -10.961   4.239  1.00  0.00     0.128 A 
HETATM   23  H   UNL     1      37.434  -9.907   2.609  1.00  0.00     0.170 HD
ENDBRANCH  13  16
ENDBRANCH  11  12
BRANCH   1  24
HETATM   24  C   UNL     1      43.294 -18.913   4.355  1.00  0.00     0.064 A 
HETATM   25  C   UNL     1      44.009 -19.677   5.306  1.00  0.00    -0.033 A 
HETATM   26  C   UNL     1      43.925 -19.456   6.795  1.00  0.00     0.050 C 
HETATM   27  C   UNL     1      44.874 -20.691   4.850  1.00  0.00     0.009 A 
HETATM   28  C   UNL     1      45.036 -20.941   3.487  1.00  0.00     0.001 A 
HETATM   29  C   UNL     1      44.323 -20.195   2.557  1.00  0.00     0.002 A 
HETATM   30  C   UNL     1      43.452 -19.192   2.987  1.00  0.00     0.032 A 
ENDBRANCH   1  24
TORSDOF 3
ENDMDL
MODEL 9
REMARK VINA RESULT:      -7.0      5.219      8.677
REMARK  3 active torsions:
REMARK  status: ('A' for Active; 'I' for Inactive)
REMARK    1  A    between atoms: C_3  and  N_4 
REMARK    2  A    between atoms: C_14  and  N_15 
REMARK       I    between atoms: N_15  and  C_16 
REMARK    3  A    between atoms: C_16  and  C_17 
ROOT
HETATM    1  N   UNL     1      40.787 -14.449   1.682  1.00  0.00    -0.237 N 
HETATM    2  N   UNL     1      41.688 -14.543   0.665  1.00  0.00    -0.179 NA
HETATM    3  C   UNL     1      42.690 -15.277   1.141  1.00  0.00     0.150 A 
HETATM    4  C   UNL     1      42.473 -15.677   2.463  1.00  0.00     0.008 A 
HETATM    5  C   UNL     1      41.232 -15.160   2.791  1.00  0.00     0.047 A 
HETATM    6  C   UNL     1      40.646 -15.180   4.169  1.00  0.00     0.069 C 
HETATM    7  C   UNL     1      41.336 -16.258   5.062  1.00  0.00    -0.040 C 
HETATM    8  C   UNL     1      40.744 -17.650   4.760  1.00  0.00     0.015 C 
HETATM    9  C   UNL     1      41.037 -15.934   6.540  1.00  0.00     0.015 C 
HETATM   10  C   UNL     1      42.885 -16.248   4.860  1.00  0.00     0.039 C 
HETATM   11  C   UNL     1      43.366 -16.411   3.398  1.00  0.00     0.122 C 
ENDROOT
BRANCH  11  12
HETATM   12  N   UNL     1      43.422 -17.797   2.976  1.00  0.00    -0.347 N 
HETATM   13  C   UNL     1      44.119 -18.725   3.704  1.00  0.00     0.270 C 
HETATM   14  O   UNL     1      44.718 -18.464   4.744  1.00  0.00    -0.266 OA
HETATM   15  H   UNL     1      42.925 -18.060   2.137  1.00  0.00     0.163 HD
BRANCH  13  16
HETATM   16  C   UNL     1      44.134 -20.107   3.162  1.00  0.00     0.120 A 
HETATM   17  N   UNL     1      44.624 -21.150   3.919  1.00  0.00    -0.303 N 
HETATM   18  C   UNL     1      44.546 -22.336   3.190  1.00  0.00     0.324 A 
HETATM   19  H   UNL     1      44.991 -21.057   4.855  1.00  0.00     0.171 HD
HETATM   20  O   UNL     1      44.888 -23.451   3.531  1.00  0.00    -0.247 OA
HETATM   21  N   UNL     1      43.981 -21.955   1.965  1.00  0.00    -0.316 N 
HETATM   22  C   UNL     1      43.744 -20.601   1.974  1.00  0.00     0.128 A 
HETATM   23  H   UNL     1      43.802 -22.606   1.215  1.00  0.00     0.170 HD
ENDBRANCH  13  16
ENDBRANCH  11  12
BRANCH   1  24
HETATM   24  C   UNL     1      39.589 -13.695   1.507  1.00  0.00     0.064 A 
HETATM   25  C   UNL     1      39.512 -12.333   1.883  1.00  0.00    -0.033 A 
HETATM   26  C   UNL     1      40.641 -11.577   2.535  1.00  0.00     0.050 C 
HETATM   27  C   UNL     1      38.307 -11.637   1.665  1.00  0.00     0.009 A 
HETATM   28  C   UNL     1      37.201 -12.269   1.098  1.00  0.00     0.001 A 
HETATM   29  C   UNL     1      37.285 -13.603   0.720  1.00  0.00     0.002 A 
HETATM   30  C   UNL     1      38.473 -14.311   0.917  1.00  0.00     0.032 A 
ENDBRANCH   1  24
TORSDOF 3
ENDMDL
MODEL 10
REMARK VINA RESULT:      -6.9      3.571      6.069
REMARK  3 active torsions:
REMARK  status: ('A' for Active; 'I' for Inactive)
REMARK    1  A    between atoms: C_3  and  N_4 
REMARK    2  A    between atoms: C_14  and  N_15 
REMARK       I    between atoms: N_15  and  C_16 
REMARK    3  A    between atoms: C_16  and  C_17 
ROOT
HETATM    1  N   UNL     1      41.242 -13.375   1.945  1.00  0.00    -0.237 N 
HETATM    2  N   UNL     1      42.392 -14.015   1.592  1.00  0.00    -0.179 NA
HETATM    3  C   UNL     1      43.079 -14.166   2.720  1.00  0.00     0.150 A 
HETATM    4  C   UNL     1      42.405 -13.639   3.826  1.00  0.00     0.008 A 
HETATM    5  C   UNL     1      41.212 -13.156   3.318  1.00  0.00     0.047 A 
HETATM    6  C   UNL     1      40.230 -12.340   4.099  1.00  0.00     0.069 C 
HETATM    7  C   UNL     1      40.444 -12.515   5.636  1.00  0.00    -0.040 C 
HETATM    8  C   UNL     1      39.781 -13.824   6.115  1.00  0.00     0.015 C 
HETATM    9  C   UNL     1      39.749 -11.347   6.363  1.00  0.00     0.015 C 
HETATM   10  C   UNL     1      41.962 -12.487   5.999  1.00  0.00     0.039 C 
HETATM   11  C   UNL     1      42.846 -13.507   5.240  1.00  0.00     0.122 C 
ENDROOT
BRANCH  11  12
HETATM   12  N   UNL     1      42.830 -14.824   5.844  1.00  0.00    -0.347 N 
HETATM   13  C   UNL     1      43.888 -15.265   6.596  1.00  0.00     0.270 C 
HETATM   14  O   UNL     1      44.890 -14.593   6.819  1.00  0.00    -0.266 OA
HETATM   15  H   UNL     1      42.015 -15.403   5.704  1.00  0.00     0.163 HD
BRANCH  13  16
HETATM   16  C   UNL     1      43.777 -16.642   7.140  1.00  0.00     0.120 A 
HETATM   17  N   UNL     1      43.986 -17.734   6.324  1.00  0.00    -0.303 N 
HETATM   18  C   UNL     1      43.811 -18.907   7.058  1.00  0.00     0.324 A 
HETATM   19  H   UNL     1      44.221 -17.683   5.344  1.00  0.00     0.171 HD
HETATM   20  O   UNL     1      43.909 -20.055   6.672  1.00  0.00    -0.247 OA
HETATM   21  N   UNL     1      43.493 -18.465   8.350  1.00  0.00    -0.316 N 
HETATM   22  C   UNL     1      43.477 -17.091   8.370  1.00  0.00     0.128 A 
HETATM   23  H   UNL     1      43.303 -19.095   9.115  1.00  0.00     0.170 HD
ENDBRANCH  13  16
ENDBRANCH  11  12
BRANCH   1  24
HETATM   24  C   UNL     1      40.281 -13.032   0.949  1.00  0.00     0.064 A 
HETATM   25  C   UNL     1      39.071 -13.752   0.812  1.00  0.00    -0.033 A 
HETATM   26  C   UNL     1      38.709 -14.953   1.649  1.00  0.00     0.050 C 
HETATM   27  C   UNL     1      38.152 -13.352  -0.177  1.00  0.00     0.009 A 
HETATM   28  C   UNL     1      38.422 -12.272  -1.017  1.00  0.00     0.001 A 
HETATM   29  C   UNL     1      39.606 -11.561  -0.871  1.00  0.00     0.002 A 
HETATM   30  C   UNL     1      40.527 -11.933   0.110  1.00  0.00     0.032 A 
ENDBRANCH   1  24
TORSDOF 3
ENDMDL
