MODEL 1
REMARK VINA RESULT:      -8.5      0.000      0.000
REMARK  9 active torsions:
REMARK  status: ('A' for Active; 'I' for Inactive)
REMARK    1  A    between atoms: O_2  and  C_3 
REMARK    2  A    between atoms: C_6  and  N_7 
REMARK    3  A    between atoms: N_10  and  C_11 
REMARK    4  A    between atoms: C_11  and  C_12 
REMARK    5  A    between atoms: C_14  and  O_15 
REMARK    6  A    between atoms: C_17  and  O_18 
REMARK    7  A    between atoms: C_22  and  C_23 
REMARK    8  A    between atoms: C_23  and  C_24 
REMARK       I    between atoms: C_24  and  N_25 
REMARK    9  A    between atoms: N_25  and  C_26 
ROOT
HETATM    1  N   UNL     1      40.330 -13.822   0.928  1.00  0.00    -0.232 N 
HETATM    2  C   UNL     1      40.865 -13.903   2.195  1.00  0.00     0.333 C 
HETATM    3  O   UNL     1      40.542 -13.290   3.203  1.00  0.00    -0.246 OA
HETATM    4  N   UNL     1      41.990 -14.739   2.173  1.00  0.00    -0.315 N 
HETATM    5  C   UNL     1      42.239 -15.242   0.835  1.00  0.00     0.191 C 
HETATM    6  C   UNL     1      41.159 -14.491   0.061  1.00  0.00     0.256 C 
HETATM    7  O   UNL     1      41.112 -14.564  -1.166  1.00  0.00    -0.270 OA
ENDROOT
BRANCH   4   8
HETATM    8  C   UNL     1      43.072 -14.353   3.065  1.00  0.00     0.167 C 
BRANCH   8   9
HETATM    9  C   UNL     1      43.082 -14.973   4.434  1.00  0.00    -0.037 A 
HETATM   10  C   UNL     1      43.702 -14.312   5.507  1.00  0.00     0.048 A 
HETATM   11  C   UNL     1      43.887 -14.960   6.735  1.00  0.00     0.102 A 
HETATM   12  C   UNL     1      43.426 -16.278   6.894  1.00  0.00     0.101 A 
HETATM   13  C   UNL     1      42.749 -16.914   5.850  1.00  0.00     0.040 A 
HETATM   14  C   UNL     1      42.587 -16.269   4.624  1.00  0.00     0.012 A 
BRANCH  11  15
HETATM   15  O   UNL     1      44.525 -14.408   7.816  1.00  0.00    -0.353 OA
HETATM   16  C   UNL     1      45.423 -13.336   7.566  1.00  0.00     0.210 C 
ENDBRANCH  11  15
BRANCH  12  17
HETATM   17  O   UNL     1      43.647 -16.887   8.106  1.00  0.00    -0.353 OA
HETATM   18  C   UNL     1      43.786 -18.303   8.034  1.00  0.00     0.210 C 
ENDBRANCH  12  17
ENDBRANCH   8   9
ENDBRANCH   4   8
BRANCH   5  19
HETATM   19  C   UNL     1      41.960 -16.738   0.693  1.00  0.00     0.138 C 
BRANCH  19  20
HETATM   20  C   UNL     1      43.065 -17.624   1.253  1.00  0.00     0.224 C 
HETATM   21  N   UNL     1      42.633 -18.786   1.861  1.00  0.00    -0.327 N 
HETATM   22  H   UNL     1      41.637 -19.004   1.841  1.00  0.00     0.169 HD
HETATM   23  O   UNL     1      44.234 -17.250   1.174  1.00  0.00    -0.273 OA
BRANCH  21  24
HETATM   24  C   UNL     1      43.425 -19.763   2.506  1.00  0.00     0.034 A 
HETATM   25  C   UNL     1      44.048 -19.575   3.740  1.00  0.00     0.029 A 
HETATM   26  C   UNL     1      44.805 -20.603   4.314  1.00  0.00     0.002 A 
HETATM   27  C   UNL     1      44.956 -21.820   3.652  1.00  0.00     0.000 A 
HETATM   28  C   UNL     1      44.339 -22.017   2.421  1.00  0.00     0.002 A 
HETATM   29  C   UNL     1      43.567 -20.997   1.857  1.00  0.00     0.029 A 
ENDBRANCH  21  24
ENDBRANCH  19  20
ENDBRANCH   5  19
BRANCH   1  30
HETATM   30  C   UNL     1      39.207 -13.011   0.555  1.00  0.00     0.047 A 
HETATM   31  C   UNL     1      37.885 -13.418   0.806  1.00  0.00     0.033 A 
HETATM   32  C   UNL     1      36.781 -12.603   0.504  1.00  0.00     0.039 A 
HETATM   33  C   UNL     1      36.968 -11.354  -0.071  1.00  0.00     0.068 A 
HETATM   34  C   UNL     1      38.263 -10.952  -0.380  1.00  0.00     0.039 A 
HETATM   35  C   UNL     1      39.364 -11.766  -0.072  1.00  0.00     0.033 A 
BRANCH  33  36
HETATM   36  O   UNL     1      35.984 -10.462  -0.387  1.00  0.00    -0.356 OA
HETATM   37  C   UNL     1      34.754 -10.601   0.316  1.00  0.00     0.210 C 
ENDBRANCH  33  36
ENDBRANCH   1  30
TORSDOF 9
ENDMDL
MODEL 2
REMARK VINA RESULT:      -8.5      1.974      2.583
REMARK  9 active torsions:
REMARK  status: ('A' for Active; 'I' for Inactive)
REMARK    1  A    between atoms: O_2  and  C_3 
REMARK    2  A    between atoms: C_6  and  N_7 
REMARK    3  A    between atoms: N_10  and  C_11 
REMARK    4  A    between atoms: C_11  and  C_12 
REMARK    5  A    between atoms: C_14  and  O_15 
REMARK    6  A    between atoms: C_17  and  O_18 
REMARK    7  A    between atoms: C_22  and  C_23 
REMARK    8  A    between atoms: C_23  and  C_24 
REMARK       I    between atoms: C_24  and  N_25 
REMARK    9  A    between atoms: N_25  and  C_26 
ROOT
HETATM    1  N   UNL     1      40.675 -14.455   0.912  1.00  0.00    -0.232 N 
HETATM    2  C   UNL     1      40.267 -15.324   1.900  1.00  0.00     0.333 C 
HETATM    3  O   UNL     1      39.246 -15.996   1.954  1.00  0.00    -0.246 OA
HETATM    4  N   UNL     1      41.159 -15.255   2.979  1.00  0.00    -0.315 N 
HETATM    5  C   UNL     1      42.215 -14.293   2.721  1.00  0.00     0.191 C 
HETATM    6  C   UNL     1      41.746 -13.733   1.381  1.00  0.00     0.256 C 
HETATM    7  O   UNL     1      42.333 -12.783   0.866  1.00  0.00    -0.270 OA
ENDROOT
BRANCH   4   8
HETATM    8  C   UNL     1      40.560 -15.407   4.295  1.00  0.00     0.167 C 
BRANCH   8   9
HETATM    9  C   UNL     1      41.378 -16.113   5.340  1.00  0.00    -0.037 A 
HETATM   10  C   UNL     1      42.304 -15.397   6.117  1.00  0.00     0.048 A 
HETATM   11  C   UNL     1      43.204 -16.069   6.954  1.00  0.00     0.102 A 
HETATM   12  C   UNL     1      43.162 -17.472   7.027  1.00  0.00     0.101 A 
HETATM   13  C   UNL     1      42.197 -18.181   6.306  1.00  0.00     0.040 A 
HETATM   14  C   UNL     1      41.318 -17.506   5.460  1.00  0.00     0.012 A 
BRANCH  11  15
HETATM   15  O   UNL     1      44.171 -15.453   7.708  1.00  0.00    -0.353 OA
HETATM   16  C   UNL     1      44.784 -14.295   7.161  1.00  0.00     0.210 C 
ENDBRANCH  11  15
BRANCH  12  17
HETATM   17  O   UNL     1      44.076 -18.094   7.842  1.00  0.00    -0.353 OA
HETATM   18  C   UNL     1      43.970 -19.515   7.864  1.00  0.00     0.210 C 
ENDBRANCH  12  17
ENDBRANCH   8   9
ENDBRANCH   4   8
BRANCH   5  19
HETATM   19  C   UNL     1      43.580 -14.943   2.504  1.00  0.00     0.138 C 
BRANCH  19  20
HETATM   20  C   UNL     1      43.505 -16.411   2.104  1.00  0.00     0.224 C 
HETATM   21  N   UNL     1      43.884 -17.306   3.086  1.00  0.00    -0.327 N 
HETATM   22  H   UNL     1      44.121 -16.943   4.008  1.00  0.00     0.169 HD
HETATM   23  O   UNL     1      43.166 -16.705   0.960  1.00  0.00    -0.273 OA
BRANCH  21  24
HETATM   24  C   UNL     1      43.961 -18.713   2.980  1.00  0.00     0.034 A 
HETATM   25  C   UNL     1      43.472 -19.445   1.897  1.00  0.00     0.029 A 
HETATM   26  C   UNL     1      43.603 -20.837   1.867  1.00  0.00     0.002 A 
HETATM   27  C   UNL     1      44.209 -21.510   2.927  1.00  0.00     0.000 A 
HETATM   28  C   UNL     1      44.699 -20.790   4.011  1.00  0.00     0.002 A 
HETATM   29  C   UNL     1      44.587 -19.397   4.031  1.00  0.00     0.029 A 
ENDBRANCH  21  24
ENDBRANCH  19  20
ENDBRANCH   5  19
BRANCH   1  30
HETATM   30  C   UNL     1      39.975 -14.212  -0.316  1.00  0.00     0.047 A 
HETATM   31  C   UNL     1      40.443 -14.708  -1.545  1.00  0.00     0.033 A 
HETATM   32  C   UNL     1      39.733 -14.532  -2.744  1.00  0.00     0.039 A 
HETATM   33  C   UNL     1      38.530 -13.839  -2.751  1.00  0.00     0.068 A 
HETATM   34  C   UNL     1      38.073 -13.290  -1.557  1.00  0.00     0.039 A 
HETATM   35  C   UNL     1      38.783 -13.473  -0.360  1.00  0.00     0.033 A 
BRANCH  33  36
HETATM   36  O   UNL     1      37.735 -13.622  -3.839  1.00  0.00    -0.356 OA
HETATM   37  C   UNL     1      36.835 -14.671  -4.183  1.00  0.00     0.210 C 
ENDBRANCH  33  36
ENDBRANCH   1  30
TORSDOF 9
ENDMDL
MODEL 3
REMARK VINA RESULT:      -8.3      1.745      2.472
REMARK  9 active torsions:
REMARK  status: ('A' for Active; 'I' for Inactive)
REMARK    1  A    between atoms: O_2  and  C_3 
REMARK    2  A    between atoms: C_6  and  N_7 
REMARK    3  A    between atoms: N_10  and  C_11 
REMARK    4  A    between atoms: C_11  and  C_12 
REMARK    5  A    between atoms: C_14  and  O_15 
REMARK    6  A    between atoms: C_17  and  O_18 
REMARK    7  A    between atoms: C_22  and  C_23 
REMARK    8  A    between atoms: C_23  and  C_24 
REMARK       I    between atoms: C_24  and  N_25 
REMARK    9  A    between atoms: N_25  and  C_26 
ROOT
HETATM    1  N   UNL     1      39.857 -14.249  -0.027  1.00  0.00    -0.232 N 
HETATM    2  C   UNL     1      39.349 -14.748   1.153  1.00  0.00     0.333 C 
HETATM    3  O   UNL     1      38.231 -14.603   1.626  1.00  0.00    -0.246 OA
HETATM    4  N   UNL     1      40.373 -15.386   1.868  1.00  0.00    -0.315 N 
HETATM    5  C   UNL     1      41.632 -15.313   1.152  1.00  0.00     0.191 C 
HETATM    6  C   UNL     1      41.217 -14.444  -0.033  1.00  0.00     0.256 C 
HETATM    7  O   UNL     1      42.059 -14.050  -0.838  1.00  0.00    -0.270 OA
ENDROOT
BRANCH   4   8
HETATM    8  C   UNL     1      40.299 -15.255   3.314  1.00  0.00     0.167 C 
BRANCH   8   9
HETATM    9  C   UNL     1      41.600 -15.112   4.053  1.00  0.00    -0.037 A 
HETATM   10  C   UNL     1      42.092 -16.171   4.833  1.00  0.00     0.048 A 
HETATM   11  C   UNL     1      43.196 -15.987   5.675  1.00  0.00     0.102 A 
HETATM   12  C   UNL     1      43.825 -14.731   5.719  1.00  0.00     0.101 A 
HETATM   13  C   UNL     1      43.379 -13.695   4.894  1.00  0.00     0.040 A 
HETATM   14  C   UNL     1      42.267 -13.881   4.074  1.00  0.00     0.012 A 
BRANCH  11  15
HETATM   15  O   UNL     1      43.710 -16.950   6.505  1.00  0.00    -0.353 OA
HETATM   16  C   UNL     1      42.901 -17.371   7.594  1.00  0.00     0.210 C 
ENDBRANCH  11  15
BRANCH  12  17
HETATM   17  O   UNL     1      44.891 -14.583   6.574  1.00  0.00    -0.353 OA
HETATM   18  C   UNL     1      44.687 -13.621   7.605  1.00  0.00     0.210 C 
ENDBRANCH  12  17
ENDBRANCH   8   9
ENDBRANCH   4   8
BRANCH   5  19
HETATM   19  C   UNL     1      42.092 -16.663   0.603  1.00  0.00     0.138 C 
BRANCH  19  20
HETATM   20  C   UNL     1      43.091 -17.382   1.500  1.00  0.00     0.224 C 
HETATM   21  N   UNL     1      42.783 -18.700   1.780  1.00  0.00    -0.327 N 
HETATM   22  H   UNL     1      41.967 -19.114   1.332  1.00  0.00     0.169 HD
HETATM   23  O   UNL     1      44.055 -16.763   1.943  1.00  0.00    -0.273 OA
BRANCH  21  24
HETATM   24  C   UNL     1      43.496 -19.587   2.617  1.00  0.00     0.034 A 
HETATM   25  C   UNL     1      43.897 -19.284   3.919  1.00  0.00     0.029 A 
HETATM   26  C   UNL     1      44.589 -20.229   4.684  1.00  0.00     0.002 A 
HETATM   27  C   UNL     1      44.898 -21.478   4.149  1.00  0.00     0.000 A 
HETATM   28  C   UNL     1      44.504 -21.790   2.852  1.00  0.00     0.002 A 
HETATM   29  C   UNL     1      43.794 -20.853   2.095  1.00  0.00     0.029 A 
ENDBRANCH  21  24
ENDBRANCH  19  20
ENDBRANCH   5  19
BRANCH   1  30
HETATM   30  C   UNL     1      39.117 -13.483  -0.987  1.00  0.00     0.047 A 
HETATM   31  C   UNL     1      39.023 -12.083  -0.903  1.00  0.00     0.033 A 
HETATM   32  C   UNL     1      38.356 -11.317  -1.873  1.00  0.00     0.039 A 
HETATM   33  C   UNL     1      37.749 -11.934  -2.958  1.00  0.00     0.068 A 
HETATM   34  C   UNL     1      37.780 -13.323  -3.035  1.00  0.00     0.039 A 
HETATM   35  C   UNL     1      38.453 -14.085  -2.066  1.00  0.00     0.033 A 
BRANCH  33  36
HETATM   36  O   UNL     1      37.095 -11.304  -3.977  1.00  0.00    -0.356 OA
HETATM   37  C   UNL     1      35.966 -11.983  -4.518  1.00  0.00     0.210 C 
ENDBRANCH  33  36
ENDBRANCH   1  30
TORSDOF 9
ENDMDL
MODEL 4
REMARK VINA RESULT:      -8.1      3.062      8.174
REMARK  9 active torsions:
REMARK  status: ('A' for Active; 'I' for Inactive)
REMARK    1  A    between atoms: O_2  and  C_3 
REMARK    2  A    between atoms: C_6  and  N_7 
REMARK    3  A    between atoms: N_10  and  C_11 
REMARK    4  A    between atoms: C_11  and  C_12 
REMARK    5  A    between atoms: C_14  and  O_15 
REMARK    6  A    between atoms: C_17  and  O_18 
REMARK    7  A    between atoms: C_22  and  C_23 
REMARK    8  A    between atoms: C_23  and  C_24 
REMARK       I    between atoms: C_24  and  N_25 
REMARK    9  A    between atoms: N_25  and  C_26 
ROOT
HETATM    1  N   UNL     1      42.686 -16.785   2.356  1.00  0.00    -0.232 N 
HETATM    2  C   UNL     1      43.145 -15.487   2.420  1.00  0.00     0.333 C 
HETATM    3  O   UNL     1      44.107 -15.045   3.032  1.00  0.00    -0.246 OA
HETATM    4  N   UNL     1      42.246 -14.641   1.754  1.00  0.00    -0.315 N 
HETATM    5  C   UNL     1      41.123 -15.390   1.222  1.00  0.00     0.191 C 
HETATM    6  C   UNL     1      41.444 -16.779   1.769  1.00  0.00     0.256 C 
HETATM    7  O   UNL     1      40.644 -17.702   1.624  1.00  0.00    -0.270 OA
ENDROOT
BRANCH   4   8
HETATM    8  C   UNL     1      42.084 -13.319   2.338  1.00  0.00     0.167 C 
BRANCH   8   9
HETATM    9  C   UNL     1      41.144 -13.199   3.505  1.00  0.00    -0.037 A 
HETATM   10  C   UNL     1      40.041 -12.333   3.440  1.00  0.00     0.048 A 
HETATM   11  C   UNL     1      39.272 -12.067   4.580  1.00  0.00     0.102 A 
HETATM   12  C   UNL     1      39.602 -12.694   5.794  1.00  0.00     0.101 A 
HETATM   13  C   UNL     1      40.658 -13.608   5.845  1.00  0.00     0.040 A 
HETATM   14  C   UNL     1      41.430 -13.852   4.710  1.00  0.00     0.012 A 
BRANCH  11  15
HETATM   15  O   UNL     1      38.212 -11.198   4.617  1.00  0.00    -0.353 OA
HETATM   16  C   UNL     1      38.395  -9.921   4.023  1.00  0.00     0.210 C 
ENDBRANCH  11  15
BRANCH  12  17
HETATM   17  O   UNL     1      38.838 -12.390   6.895  1.00  0.00    -0.353 OA
HETATM   18  C   UNL     1      39.495 -11.567   7.855  1.00  0.00     0.210 C 
ENDBRANCH  12  17
ENDBRANCH   8   9
ENDBRANCH   4   8
BRANCH   5  19
HETATM   19  C   UNL     1      41.127 -15.477  -0.303  1.00  0.00     0.138 C 
BRANCH  19  20
HETATM   20  C   UNL     1      40.996 -14.125  -0.995  1.00  0.00     0.224 C 
HETATM   21  N   UNL     1      42.141 -13.677  -1.625  1.00  0.00    -0.327 N 
HETATM   22  H   UNL     1      42.956 -14.287  -1.643  1.00  0.00     0.169 HD
HETATM   23  O   UNL     1      39.933 -13.513  -0.920  1.00  0.00    -0.273 OA
BRANCH  21  24
HETATM   24  C   UNL     1      42.323 -12.447  -2.297  1.00  0.00     0.034 A 
HETATM   25  C   UNL     1      42.827 -11.293  -1.695  1.00  0.00     0.029 A 
HETATM   26  C   UNL     1      42.989 -10.120  -2.440  1.00  0.00     0.002 A 
HETATM   27  C   UNL     1      42.634 -10.087  -3.788  1.00  0.00     0.000 A 
HETATM   28  C   UNL     1      42.130 -11.232  -4.396  1.00  0.00     0.002 A 
HETATM   29  C   UNL     1      41.988 -12.410  -3.657  1.00  0.00     0.029 A 
ENDBRANCH  21  24
ENDBRANCH  19  20
ENDBRANCH   5  19
BRANCH   1  30
HETATM   30  C   UNL     1      43.313 -17.915   2.976  1.00  0.00     0.047 A 
HETATM   31  C   UNL     1      43.356 -18.063   4.374  1.00  0.00     0.033 A 
HETATM   32  C   UNL     1      43.910 -19.197   4.990  1.00  0.00     0.039 A 
HETATM   33  C   UNL     1      44.452 -20.218   4.222  1.00  0.00     0.068 A 
HETATM   34  C   UNL     1      44.472 -20.070   2.839  1.00  0.00     0.039 A 
HETATM   35  C   UNL     1      43.912 -18.938   2.226  1.00  0.00     0.033 A 
BRANCH  33  36
HETATM   36  O   UNL     1      44.995 -21.377   4.697  1.00  0.00    -0.356 OA
HETATM   37  C   UNL     1      44.629 -22.572   4.014  1.00  0.00     0.210 C 
ENDBRANCH  33  36
ENDBRANCH   1  30
TORSDOF 9
ENDMDL
MODEL 5
REMARK VINA RESULT:      -8.1      3.141      7.077
REMARK  9 active torsions:
REMARK  status: ('A' for Active; 'I' for Inactive)
REMARK    1  A    between atoms: O_2  and  C_3 
REMARK    2  A    between atoms: C_6  and  N_7 
REMARK    3  A    between atoms: N_10  and  C_11 
REMARK    4  A    between atoms: C_11  and  C_12 
REMARK    5  A    between atoms: C_14  and  O_15 
REMARK    6  A    between atoms: C_17  and  O_18 
REMARK    7  A    between atoms: C_22  and  C_23 
REMARK    8  A    between atoms: C_23  and  C_24 
REMARK       I    between atoms: C_24  and  N_25 
REMARK    9  A    between atoms: N_25  and  C_26 
ROOT
HETATM    1  N   UNL     1      40.565 -13.503   5.085  1.00  0.00    -0.232 N 
HETATM    2  C   UNL     1      40.220 -13.253   3.775  1.00  0.00     0.333 C 
HETATM    3  O   UNL     1      39.781 -12.223   3.282  1.00  0.00    -0.246 OA
HETATM    4  N   UNL     1      40.316 -14.439   3.033  1.00  0.00    -0.315 N 
HETATM    5  C   UNL     1      40.736 -15.546   3.872  1.00  0.00     0.191 C 
HETATM    6  C   UNL     1      40.765 -14.854   5.233  1.00  0.00     0.256 C 
HETATM    7  O   UNL     1      40.973 -15.506   6.255  1.00  0.00    -0.270 OA
ENDROOT
BRANCH   4   8
HETATM    8  C   UNL     1      39.323 -14.601   1.983  1.00  0.00     0.167 C 
BRANCH   8   9
HETATM    9  C   UNL     1      39.746 -14.254   0.584  1.00  0.00    -0.037 A 
HETATM   10  C   UNL     1      38.782 -14.035  -0.414  1.00  0.00     0.048 A 
HETATM   11  C   UNL     1      39.160 -13.902  -1.757  1.00  0.00     0.102 A 
HETATM   12  C   UNL     1      40.522 -13.967  -2.098  1.00  0.00     0.101 A 
HETATM   13  C   UNL     1      41.488 -14.117  -1.099  1.00  0.00     0.040 A 
HETATM   14  C   UNL     1      41.101 -14.269   0.232  1.00  0.00     0.012 A 
BRANCH  11  15
HETATM   15  O   UNL     1      38.283 -13.737  -2.798  1.00  0.00    -0.353 OA
HETATM   16  C   UNL     1      37.569 -14.883  -3.237  1.00  0.00     0.210 C 
ENDBRANCH  11  15
BRANCH  12  17
HETATM   17  O   UNL     1      40.851 -13.855  -3.427  1.00  0.00    -0.353 OA
HETATM   18  C   UNL     1      41.554 -12.661  -3.758  1.00  0.00     0.210 C 
ENDBRANCH  12  17
ENDBRANCH   8   9
ENDBRANCH   4   8
BRANCH   5  19
HETATM   19  C   UNL     1      42.152 -16.031   3.565  1.00  0.00     0.138 C 
BRANCH  19  20
HETATM   20  C   UNL     1      42.346 -17.528   3.770  1.00  0.00     0.224 C 
HETATM   21  N   UNL     1      43.409 -18.080   3.082  1.00  0.00    -0.327 N 
HETATM   22  H   UNL     1      44.017 -17.461   2.549  1.00  0.00     0.169 HD
HETATM   23  O   UNL     1      41.551 -18.145   4.475  1.00  0.00    -0.273 OA
BRANCH  21  24
HETATM   24  C   UNL     1      43.792 -19.440   3.046  1.00  0.00     0.034 A 
HETATM   25  C   UNL     1      44.486 -20.086   4.070  1.00  0.00     0.029 A 
HETATM   26  C   UNL     1      44.814 -21.441   3.957  1.00  0.00     0.002 A 
HETATM   27  C   UNL     1      44.465 -22.157   2.813  1.00  0.00     0.000 A 
HETATM   28  C   UNL     1      43.774 -21.522   1.786  1.00  0.00     0.002 A 
HETATM   29  C   UNL     1      43.428 -20.173   1.908  1.00  0.00     0.029 A 
ENDBRANCH  21  24
ENDBRANCH  19  20
ENDBRANCH   5  19
BRANCH   1  30
HETATM   30  C   UNL     1      40.528 -12.541   6.147  1.00  0.00     0.047 A 
HETATM   31  C   UNL     1      39.388 -12.373   6.952  1.00  0.00     0.033 A 
HETATM   32  C   UNL     1      39.362 -11.480   8.037  1.00  0.00     0.039 A 
HETATM   33  C   UNL     1      40.479 -10.717   8.343  1.00  0.00     0.068 A 
HETATM   34  C   UNL     1      41.602 -10.824   7.528  1.00  0.00     0.039 A 
HETATM   35  C   UNL     1      41.626 -11.721   6.448  1.00  0.00     0.033 A 
BRANCH  33  36
HETATM   36  O   UNL     1      40.590  -9.836   9.381  1.00  0.00    -0.356 OA
HETATM   37  C   UNL     1      41.146 -10.348  10.587  1.00  0.00     0.210 C 
ENDBRANCH  33  36
ENDBRANCH   1  30
TORSDOF 9
ENDMDL
MODEL 6
REMARK VINA RESULT:      -7.9      2.324      7.594
REMARK  9 active torsions:
REMARK  status: ('A' for Active; 'I' for Inactive)
REMARK    1  A    between atoms: O_2  and  C_3 
REMARK    2  A    between atoms: C_6  and  N_7 
REMARK    3  A    between atoms: N_10  and  C_11 
REMARK    4  A    between atoms: C_11  and  C_12 
REMARK    5  A    between atoms: C_14  and  O_15 
REMARK    6  A    between atoms: C_17  and  O_18 
REMARK    7  A    between atoms: C_22  and  C_23 
REMARK    8  A    between atoms: C_23  and  C_24 
REMARK       I    between atoms: C_24  and  N_25 
REMARK    9  A    between atoms: N_25  and  C_26 
ROOT
HETATM    1  N   UNL     1      42.005 -14.409   4.178  1.00  0.00    -0.232 N 
HETATM    2  C   UNL     1      42.214 -13.872   2.927  1.00  0.00     0.333 C 
HETATM    3  O   UNL     1      43.065 -13.069   2.572  1.00  0.00    -0.246 OA
HETATM    4  N   UNL     1      41.187 -14.284   2.066  1.00  0.00    -0.315 N 
HETATM    5  C   UNL     1      40.233 -15.129   2.758  1.00  0.00     0.191 C 
HETATM    6  C   UNL     1      40.795 -15.061   4.176  1.00  0.00     0.256 C 
HETATM    7  O   UNL     1      40.183 -15.575   5.111  1.00  0.00    -0.270 OA
ENDROOT
BRANCH   4   8
HETATM    8  C   UNL     1      40.771 -13.302   1.077  1.00  0.00     0.167 C 
BRANCH   8   9
HETATM    9  C   UNL     1      40.679 -13.767  -0.349  1.00  0.00    -0.037 A 
HETATM   10  C   UNL     1      39.965 -13.013  -1.295  1.00  0.00     0.048 A 
HETATM   11  C   UNL     1      39.710 -13.527  -2.574  1.00  0.00     0.102 A 
HETATM   12  C   UNL     1      40.194 -14.802  -2.912  1.00  0.00     0.101 A 
HETATM   13  C   UNL     1      40.962 -15.525  -1.996  1.00  0.00     0.040 A 
HETATM   14  C   UNL     1      41.195 -15.015  -0.719  1.00  0.00     0.012 A 
BRANCH  11  15
HETATM   15  O   UNL     1      38.981 -12.881  -3.539  1.00  0.00    -0.353 OA
HETATM   16  C   UNL     1      37.572 -12.832  -3.368  1.00  0.00     0.210 C 
ENDBRANCH  11  15
BRANCH  12  17
HETATM   17  O   UNL     1      39.904 -15.280  -4.167  1.00  0.00    -0.353 OA
HETATM   18  C   UNL     1      38.932 -16.322  -4.188  1.00  0.00     0.210 C 
ENDBRANCH  12  17
ENDBRANCH   8   9
ENDBRANCH   4   8
BRANCH   5  19
HETATM   19  C   UNL     1      40.283 -16.588   2.306  1.00  0.00     0.138 C 
BRANCH  19  20
HETATM   20  C   UNL     1      41.673 -17.206   2.379  1.00  0.00     0.224 C 
HETATM   21  N   UNL     1      41.834 -18.176   3.350  1.00  0.00    -0.327 N 
HETATM   22  H   UNL     1      41.020 -18.455   3.896  1.00  0.00     0.169 HD
HETATM   23  O   UNL     1      42.554 -16.793   1.627  1.00  0.00    -0.273 OA
BRANCH  21  24
HETATM   24  C   UNL     1      43.017 -18.877   3.674  1.00  0.00     0.034 A 
HETATM   25  C   UNL     1      43.648 -19.785   2.823  1.00  0.00     0.029 A 
HETATM   26  C   UNL     1      44.827 -20.425   3.220  1.00  0.00     0.002 A 
HETATM   27  C   UNL     1      45.376 -20.174   4.476  1.00  0.00     0.000 A 
HETATM   28  C   UNL     1      44.754 -19.271   5.332  1.00  0.00     0.002 A 
HETATM   29  C   UNL     1      43.587 -18.616   4.927  1.00  0.00     0.029 A 
ENDBRANCH  21  24
ENDBRANCH  19  20
ENDBRANCH   5  19
BRANCH   1  30
HETATM   30  C   UNL     1      42.819 -14.159   5.332  1.00  0.00     0.047 A 
HETATM   31  C   UNL     1      43.787 -15.080   5.768  1.00  0.00     0.033 A 
HETATM   32  C   UNL     1      44.634 -14.817   6.857  1.00  0.00     0.039 A 
HETATM   33  C   UNL     1      44.530 -13.622   7.554  1.00  0.00     0.068 A 
HETATM   34  C   UNL     1      43.542 -12.717   7.177  1.00  0.00     0.039 A 
HETATM   35  C   UNL     1      42.701 -12.981   6.084  1.00  0.00     0.033 A 
BRANCH  33  36
HETATM   36  O   UNL     1      45.306 -13.237   8.609  1.00  0.00    -0.356 OA
HETATM   37  C   UNL     1      45.302 -11.849   8.923  1.00  0.00     0.210 C 
ENDBRANCH  33  36
ENDBRANCH   1  30
TORSDOF 9
ENDMDL
MODEL 7
REMARK VINA RESULT:      -7.7      3.728      9.413
REMARK  9 active torsions:
REMARK  status: ('A' for Active; 'I' for Inactive)
REMARK    1  A    between atoms: O_2  and  C_3 
REMARK    2  A    between atoms: C_6  and  N_7 
REMARK    3  A    between atoms: N_10  and  C_11 
REMARK    4  A    between atoms: C_11  and  C_12 
REMARK    5  A    between atoms: C_14  and  O_15 
REMARK    6  A    between atoms: C_17  and  O_18 
REMARK    7  A    between atoms: C_22  and  C_23 
REMARK    8  A    between atoms: C_23  and  C_24 
REMARK       I    between atoms: C_24  and  N_25 
REMARK    9  A    between atoms: N_25  and  C_26 
ROOT
HETATM    1  N   UNL     1      41.681 -16.239   3.585  1.00  0.00    -0.232 N 
HETATM    2  C   UNL     1      40.501 -16.043   2.901  1.00  0.00     0.333 C 
HETATM    3  O   UNL     1      40.014 -16.720   2.006  1.00  0.00    -0.246 OA
HETATM    4  N   UNL     1      39.936 -14.819   3.286  1.00  0.00    -0.315 N 
HETATM    5  C   UNL     1      40.768 -14.147   4.267  1.00  0.00     0.191 C 
HETATM    6  C   UNL     1      41.954 -15.108   4.315  1.00  0.00     0.256 C 
HETATM    7  O   UNL     1      42.955 -14.823   4.970  1.00  0.00    -0.270 OA
ENDROOT
BRANCH   4   8
HETATM    8  C   UNL     1      39.245 -14.091   2.233  1.00  0.00     0.167 C 
BRANCH   8   9
HETATM    9  C   UNL     1      40.083 -13.575   1.097  1.00  0.00    -0.037 A 
HETATM   10  C   UNL     1      39.889 -14.064  -0.205  1.00  0.00     0.048 A 
HETATM   11  C   UNL     1      40.784 -13.737  -1.232  1.00  0.00     0.102 A 
HETATM   12  C   UNL     1      41.874 -12.895  -0.953  1.00  0.00     0.101 A 
HETATM   13  C   UNL     1      42.031 -12.353   0.326  1.00  0.00     0.040 A 
HETATM   14  C   UNL     1      41.147 -12.700   1.347  1.00  0.00     0.012 A 
BRANCH  11  15
HETATM   15  O   UNL     1      40.697 -14.209  -2.517  1.00  0.00    -0.353 OA
HETATM   16  C   UNL     1      40.951 -15.591  -2.722  1.00  0.00     0.210 C 
ENDBRANCH  11  15
BRANCH  12  17
HETATM   17  O   UNL     1      42.742 -12.616  -1.981  1.00  0.00    -0.353 OA
HETATM   18  C   UNL     1      42.788 -11.242  -2.354  1.00  0.00     0.210 C 
ENDBRANCH  12  17
ENDBRANCH   8   9
ENDBRANCH   4   8
BRANCH   5  19
HETATM   19  C   UNL     1      40.143 -14.107   5.660  1.00  0.00     0.138 C 
BRANCH  19  20
HETATM   20  C   UNL     1      39.542 -12.756   6.024  1.00  0.00     0.224 C 
HETATM   21  N   UNL     1      40.086 -12.155   7.143  1.00  0.00    -0.327 N 
HETATM   22  H   UNL     1      40.875 -12.608   7.603  1.00  0.00     0.169 HD
HETATM   23  O   UNL     1      38.612 -12.311   5.354  1.00  0.00    -0.273 OA
BRANCH  21  24
HETATM   24  C   UNL     1      39.694 -10.934   7.737  1.00  0.00     0.034 A 
HETATM   25  C   UNL     1      39.868  -9.683   7.144  1.00  0.00     0.029 A 
HETATM   26  C   UNL     1      39.437  -8.524   7.797  1.00  0.00     0.002 A 
HETATM   27  C   UNL     1      38.843  -8.605   9.056  1.00  0.00     0.000 A 
HETATM   28  C   UNL     1      38.666  -9.847   9.656  1.00  0.00     0.002 A 
HETATM   29  C   UNL     1      39.077 -11.007   8.994  1.00  0.00     0.029 A 
ENDBRANCH  21  24
ENDBRANCH  19  20
ENDBRANCH   5  19
BRANCH   1  30
HETATM   30  C   UNL     1      42.565 -17.354   3.407  1.00  0.00     0.047 A 
HETATM   31  C   UNL     1      42.869 -18.233   4.460  1.00  0.00     0.033 A 
HETATM   32  C   UNL     1      43.681 -19.365   4.281  1.00  0.00     0.039 A 
HETATM   33  C   UNL     1      44.226 -19.646   3.036  1.00  0.00     0.068 A 
HETATM   34  C   UNL     1      43.985 -18.762   1.990  1.00  0.00     0.039 A 
HETATM   35  C   UNL     1      43.168 -17.634   2.172  1.00  0.00     0.033 A 
BRANCH  33  36
HETATM   36  O   UNL     1      45.007 -20.723   2.727  1.00  0.00    -0.356 OA
HETATM   37  C   UNL     1      44.375 -21.774   2.004  1.00  0.00     0.210 C 
ENDBRANCH  33  36
ENDBRANCH   1  30
TORSDOF 9
ENDMDL
MODEL 8
REMARK VINA RESULT:      -7.7      2.957      6.793
REMARK  9 active torsions:
REMARK  status: ('A' for Active; 'I' for Inactive)
REMARK    1  A    between atoms: O_2  and  C_3 
REMARK    2  A    between atoms: C_6  and  N_7 
REMARK    3  A    between atoms: N_10  and  C_11 
REMARK    4  A    between atoms: C_11  and  C_12 
REMARK    5  A    between atoms: C_14  and  O_15 
REMARK    6  A    between atoms: C_17  and  O_18 
REMARK    7  A    between atoms: C_22  and  C_23 
REMARK    8  A    between atoms: C_23  and  C_24 
REMARK       I    between atoms: C_24  and  N_25 
REMARK    9  A    between atoms: N_25  and  C_26 
ROOT
HETATM    1  N   UNL     1      40.566 -13.673   4.989  1.00  0.00    -0.232 N 
HETATM    2  C   UNL     1      40.077 -13.534   3.708  1.00  0.00     0.333 C 
HETATM    3  O   UNL     1      39.534 -12.563   3.198  1.00  0.00    -0.246 OA
HETATM    4  N   UNL     1      40.164 -14.762   3.039  1.00  0.00    -0.315 N 
HETATM    5  C   UNL     1      40.728 -15.785   3.900  1.00  0.00     0.191 C 
HETATM    6  C   UNL     1      40.855 -14.999   5.203  1.00  0.00     0.256 C 
HETATM    7  O   UNL     1      41.202 -15.566   6.237  1.00  0.00    -0.270 OA
ENDROOT
BRANCH   4   8
HETATM    8  C   UNL     1      39.081 -15.047   2.112  1.00  0.00     0.167 C 
BRANCH   8   9
HETATM    9  C   UNL     1      39.207 -14.487   0.723  1.00  0.00    -0.037 A 
HETATM   10  C   UNL     1      40.466 -14.392   0.109  1.00  0.00     0.048 A 
HETATM   11  C   UNL     1      40.622 -13.700  -1.099  1.00  0.00     0.102 A 
HETATM   12  C   UNL     1      39.498 -13.115  -1.707  1.00  0.00     0.101 A 
HETATM   13  C   UNL     1      38.233 -13.266  -1.133  1.00  0.00     0.040 A 
HETATM   14  C   UNL     1      38.090 -13.940   0.080  1.00  0.00     0.012 A 
BRANCH  11  15
HETATM   15  O   UNL     1      41.821 -13.516  -1.740  1.00  0.00    -0.353 OA
HETATM   16  C   UNL     1      42.620 -12.418  -1.324  1.00  0.00     0.210 C 
ENDBRANCH  11  15
BRANCH  12  17
HETATM   17  O   UNL     1      39.696 -12.426  -2.879  1.00  0.00    -0.353 OA
HETATM   18  C   UNL     1      39.049 -11.157  -2.930  1.00  0.00     0.210 C 
ENDBRANCH  12  17
ENDBRANCH   8   9
ENDBRANCH   4   8
BRANCH   5  19
HETATM   19  C   UNL     1      42.131 -16.220   3.479  1.00  0.00     0.138 C 
BRANCH  19  20
HETATM   20  C   UNL     1      42.436 -17.683   3.778  1.00  0.00     0.224 C 
HETATM   21  N   UNL     1      43.360 -18.272   2.938  1.00  0.00    -0.327 N 
HETATM   22  H   UNL     1      43.815 -17.693   2.233  1.00  0.00     0.169 HD
HETATM   23  O   UNL     1      41.833 -18.248   4.688  1.00  0.00    -0.273 OA
BRANCH  21  24
HETATM   24  C   UNL     1      43.794 -19.617   2.949  1.00  0.00     0.034 A 
HETATM   25  C   UNL     1      44.480 -20.210   4.009  1.00  0.00     0.029 A 
HETATM   26  C   UNL     1      44.860 -21.555   3.942  1.00  0.00     0.002 A 
HETATM   27  C   UNL     1      44.571 -22.313   2.809  1.00  0.00     0.000 A 
HETATM   28  C   UNL     1      43.888 -21.731   1.746  1.00  0.00     0.002 A 
HETATM   29  C   UNL     1      43.490 -20.392   1.822  1.00  0.00     0.029 A 
ENDBRANCH  21  24
ENDBRANCH  19  20
ENDBRANCH   5  19
BRANCH   1  30
HETATM   30  C   UNL     1      40.582 -12.642   5.985  1.00  0.00     0.047 A 
HETATM   31  C   UNL     1      39.461 -12.373   6.789  1.00  0.00     0.033 A 
HETATM   32  C   UNL     1      39.486 -11.410   7.812  1.00  0.00     0.039 A 
HETATM   33  C   UNL     1      40.637 -10.674   8.053  1.00  0.00     0.068 A 
HETATM   34  C   UNL     1      41.743 -10.882   7.234  1.00  0.00     0.039 A 
HETATM   35  C   UNL     1      41.716 -11.849   6.218  1.00  0.00     0.033 A 
BRANCH  33  36
HETATM   36  O   UNL     1      40.797  -9.732   9.028  1.00  0.00    -0.356 OA
HETATM   37  C   UNL     1      40.645 -10.179  10.371  1.00  0.00     0.210 C 
ENDBRANCH  33  36
ENDBRANCH   1  30
TORSDOF 9
ENDMDL
MODEL 9
REMARK VINA RESULT:      -7.7      3.345      6.782
REMARK  9 active torsions:
REMARK  status: ('A' for Active; 'I' for Inactive)
REMARK    1  A    between atoms: O_2  and  C_3 
REMARK    2  A    between atoms: C_6  and  N_7 
REMARK    3  A    between atoms: N_10  and  C_11 
REMARK    4  A    between atoms: C_11  and  C_12 
REMARK    5  A    between atoms: C_14  and  O_15 
REMARK    6  A    between atoms: C_17  and  O_18 
REMARK    7  A    between atoms: C_22  and  C_23 
REMARK    8  A    between atoms: C_23  and  C_24 
REMARK       I    between atoms: C_24  and  N_25 
REMARK    9  A    between atoms: N_25  and  C_26 
ROOT
HETATM    1  N   UNL     1      40.997 -12.675   5.479  1.00  0.00    -0.232 N 
HETATM    2  C   UNL     1      41.932 -13.685   5.414  1.00  0.00     0.333 C 
HETATM    3  O   UNL     1      42.765 -14.012   6.248  1.00  0.00    -0.246 OA
HETATM    4  N   UNL     1      41.906 -14.263   4.137  1.00  0.00    -0.315 N 
HETATM    5  C   UNL     1      40.919 -13.615   3.293  1.00  0.00     0.191 C 
HETATM    6  C   UNL     1      40.451 -12.505   4.230  1.00  0.00     0.256 C 
HETATM    7  O   UNL     1      39.671 -11.643   3.829  1.00  0.00    -0.270 OA
ENDROOT
BRANCH   4   8
HETATM    8  C   UNL     1      43.194 -14.698   3.622  1.00  0.00     0.167 C 
BRANCH   8   9
HETATM    9  C   UNL     1      43.363 -16.168   3.361  1.00  0.00    -0.037 A 
HETATM   10  C   UNL     1      43.447 -17.073   4.433  1.00  0.00     0.048 A 
HETATM   11  C   UNL     1      43.795 -18.412   4.213  1.00  0.00     0.102 A 
HETATM   12  C   UNL     1      44.042 -18.852   2.901  1.00  0.00     0.101 A 
HETATM   13  C   UNL     1      43.894 -17.970   1.827  1.00  0.00     0.040 A 
HETATM   14  C   UNL     1      43.566 -16.634   2.057  1.00  0.00     0.012 A 
BRANCH  11  15
HETATM   15  O   UNL     1      43.947 -19.348   5.204  1.00  0.00    -0.353 OA
HETATM   16  C   UNL     1      44.165 -18.870   6.523  1.00  0.00     0.210 C 
ENDBRANCH  11  15
BRANCH  12  17
HETATM   17  O   UNL     1      44.403 -20.166   2.729  1.00  0.00    -0.353 OA
HETATM   18  C   UNL     1      43.598 -20.878   1.794  1.00  0.00     0.210 C 
ENDBRANCH  12  17
ENDBRANCH   8   9
ENDBRANCH   4   8
BRANCH   5  19
HETATM   19  C   UNL     1      39.715 -14.504   2.984  1.00  0.00     0.138 C 
BRANCH  19  20
HETATM   20  C   UNL     1      39.358 -14.561   1.504  1.00  0.00     0.224 C 
HETATM   21  N   UNL     1      40.419 -14.384   0.638  1.00  0.00    -0.327 N 
HETATM   22  H   UNL     1      41.356 -14.293   1.029  1.00  0.00     0.169 HD
HETATM   23  O   UNL     1      38.183 -14.713   1.176  1.00  0.00    -0.273 OA
BRANCH  21  24
HETATM   24  C   UNL     1      40.375 -14.339  -0.773  1.00  0.00     0.034 A 
HETATM   25  C   UNL     1      39.837 -13.281  -1.507  1.00  0.00     0.029 A 
HETATM   26  C   UNL     1      39.847 -13.313  -2.906  1.00  0.00     0.002 A 
HETATM   27  C   UNL     1      40.382 -14.408  -3.582  1.00  0.00     0.000 A 
HETATM   28  C   UNL     1      40.920 -15.468  -2.859  1.00  0.00     0.002 A 
HETATM   29  C   UNL     1      40.929 -15.427  -1.462  1.00  0.00     0.029 A 
ENDBRANCH  21  24
ENDBRANCH  19  20
ENDBRANCH   5  19
BRANCH   1  30
HETATM   30  C   UNL     1      40.780 -11.821   6.611  1.00  0.00     0.047 A 
HETATM   31  C   UNL     1      39.620 -11.918   7.399  1.00  0.00     0.033 A 
HETATM   32  C   UNL     1      39.426 -11.132   8.547  1.00  0.00     0.039 A 
HETATM   33  C   UNL     1      40.389 -10.212   8.937  1.00  0.00     0.068 A 
HETATM   34  C   UNL     1      41.522 -10.058   8.143  1.00  0.00     0.039 A 
HETATM   35  C   UNL     1      41.714 -10.849   7.000  1.00  0.00     0.033 A 
BRANCH  33  36
HETATM   36  O   UNL     1      40.333  -9.411  10.041  1.00  0.00    -0.356 OA
HETATM   37  C   UNL     1      39.971 -10.044  11.264  1.00  0.00     0.210 C 
ENDBRANCH  33  36
ENDBRANCH   1  30
TORSDOF 9
ENDMDL
MODEL 10
REMARK VINA RESULT:      -7.6      3.034      6.193
REMARK  9 active torsions:
REMARK  status: ('A' for Active; 'I' for Inactive)
REMARK    1  A    between atoms: O_2  and  C_3 
REMARK    2  A    between atoms: C_6  and  N_7 
REMARK    3  A    between atoms: N_10  and  C_11 
REMARK    4  A    between atoms: C_11  and  C_12 
REMARK    5  A    between atoms: C_14  and  O_15 
REMARK    6  A    between atoms: C_17  and  O_18 
REMARK    7  A    between atoms: C_22  and  C_23 
REMARK    8  A    between atoms: C_23  and  C_24 
REMARK       I    between atoms: C_24  and  N_25 
REMARK    9  A    between atoms: N_25  and  C_26 
ROOT
HETATM    1  N   UNL     1      41.536 -14.107   0.426  1.00  0.00    -0.232 N 
HETATM    2  C   UNL     1      41.780 -15.444   0.655  1.00  0.00     0.333 C 
HETATM    3  O   UNL     1      41.887 -16.352  -0.157  1.00  0.00    -0.246 OA
HETATM    4  N   UNL     1      41.770 -15.690   2.035  1.00  0.00    -0.315 N 
HETATM    5  C   UNL     1      41.498 -14.474   2.779  1.00  0.00     0.191 C 
HETATM    6  C   UNL     1      41.244 -13.506   1.626  1.00  0.00     0.256 C 
HETATM    7  O   UNL     1      40.860 -12.360   1.853  1.00  0.00    -0.270 OA
ENDROOT
BRANCH   4   8
HETATM    8  C   UNL     1      41.224 -16.977   2.435  1.00  0.00     0.167 C 
BRANCH   8   9
HETATM    9  C   UNL     1      42.183 -17.973   3.023  1.00  0.00    -0.037 A 
HETATM   10  C   UNL     1      42.545 -17.894   4.377  1.00  0.00     0.048 A 
HETATM   11  C   UNL     1      43.578 -18.690   4.889  1.00  0.00     0.102 A 
HETATM   12  C   UNL     1      44.241 -19.589   4.036  1.00  0.00     0.101 A 
HETATM   13  C   UNL     1      43.838 -19.718   2.705  1.00  0.00     0.040 A 
HETATM   14  C   UNL     1      42.822 -18.907   2.199  1.00  0.00     0.012 A 
BRANCH  11  15
HETATM   15  O   UNL     1      44.028 -18.641   6.184  1.00  0.00    -0.353 OA
HETATM   16  C   UNL     1      44.703 -17.461   6.596  1.00  0.00     0.210 C 
ENDBRANCH  11  15
BRANCH  12  17
HETATM   17  O   UNL     1      45.264 -20.336   4.570  1.00  0.00    -0.353 OA
HETATM   18  C   UNL     1      44.942 -21.708   4.777  1.00  0.00     0.210 C 
ENDBRANCH  12  17
ENDBRANCH   8   9
ENDBRANCH   4   8
BRANCH   5  19
HETATM   19  C   UNL     1      42.708 -13.964   3.560  1.00  0.00     0.138 C 
BRANCH  19  20
HETATM   20  C   UNL     1      42.385 -13.550   4.990  1.00  0.00     0.224 C 
HETATM   21  N   UNL     1      41.427 -12.563   5.112  1.00  0.00    -0.327 N 
HETATM   22  H   UNL     1      40.963 -12.228   4.269  1.00  0.00     0.169 HD
HETATM   23  O   UNL     1      43.002 -14.067   5.919  1.00  0.00    -0.273 OA
BRANCH  21  24
HETATM   24  C   UNL     1      40.970 -11.955   6.303  1.00  0.00     0.034 A 
HETATM   25  C   UNL     1      39.719 -12.193   6.875  1.00  0.00     0.029 A 
HETATM   26  C   UNL     1      39.353 -11.558   8.066  1.00  0.00     0.002 A 
HETATM   27  C   UNL     1      40.227 -10.667   8.687  1.00  0.00     0.000 A 
HETATM   28  C   UNL     1      41.475 -10.421   8.125  1.00  0.00     0.002 A 
HETATM   29  C   UNL     1      41.850 -11.073   6.946  1.00  0.00     0.029 A 
ENDBRANCH  21  24
ENDBRANCH  19  20
ENDBRANCH   5  19
BRANCH   1  30
HETATM   30  C   UNL     1      41.414 -13.499  -0.867  1.00  0.00     0.047 A 
HETATM   31  C   UNL     1      40.179 -13.421  -1.534  1.00  0.00     0.033 A 
HETATM   32  C   UNL     1      40.035 -12.770  -2.770  1.00  0.00     0.039 A 
HETATM   33  C   UNL     1      41.133 -12.183  -3.385  1.00  0.00     0.068 A 
HETATM   34  C   UNL     1      42.377 -12.294  -2.772  1.00  0.00     0.039 A 
HETATM   35  C   UNL     1      42.515 -12.941  -1.533  1.00  0.00     0.033 A 
BRANCH  33  36
HETATM   36  O   UNL     1      41.120 -11.502  -4.568  1.00  0.00    -0.356 OA
HETATM   37  C   UNL     1      42.244 -10.668  -4.829  1.00  0.00     0.210 C 
ENDBRANCH  33  36
ENDBRANCH   1  30
TORSDOF 9
ENDMDL
