MODEL 1
REMARK VINA RESULT:      -7.6      0.000      0.000
REMARK  10 active torsions:
REMARK  status: ('A' for Active; 'I' for Inactive)
REMARK       I    between atoms: C_2  and  N_3 
REMARK    1  A    between atoms: N_3  and  C_4 
REMARK    2  A    between atoms: C_4  and  C_5 
REMARK    3  A    between atoms: C_5  and  N_6 
REMARK       I    between atoms: N_6  and  C_7 
REMARK    4  A    between atoms: C_7  and  C_8 
REMARK    5  A    between atoms: C_8  and  C_9 
REMARK    6  A    between atoms: C_9  and  C_10 
REMARK    7  A    between atoms: C_10  and  C_11 
REMARK    8  A    between atoms: C_11  and  C_12 
REMARK    9  A    between atoms: C_12  and  N_13 
REMARK   10  A    between atoms: N_13  and  C_14 
ROOT
HETATM    1  C   UNL     1      41.149 -15.932   2.297  1.00  0.00     0.020 C 
ENDROOT
BRANCH   1   2
HETATM    2  C   UNL     1      41.887 -14.920   1.414  1.00  0.00     0.002 C 
BRANCH   2   3
HETATM    3  C   UNL     1      42.475 -13.749   2.202  1.00  0.00     0.009 C 
BRANCH   3   4
HETATM    4  C   UNL     1      43.542 -14.212   3.192  1.00  0.00     0.103 C 
BRANCH   4   5
HETATM    5  C   UNL     1      43.273 -13.638   4.566  1.00  0.00     0.217 C 
HETATM    6  N   UNL     1      44.102 -14.121   5.550  1.00  0.00    -0.360 N 
HETATM    7  H   UNL     1      44.747 -14.871   5.343  1.00  0.00     0.162 HD
HETATM    8  O   UNL     1      42.366 -12.839   4.777  1.00  0.00    -0.274 OA
BRANCH   6   9
HETATM    9  C   UNL     1      43.909 -13.768   6.948  1.00  0.00     0.142 C 
BRANCH   9  10
HETATM   10  C   UNL     1      45.193 -13.239   7.602  1.00  0.00     0.142 C 
BRANCH  10  11
HETATM   11  N   UNL     1      44.971 -12.636   8.908  1.00  0.00    -0.360 N 
HETATM   12  C   UNL     1      45.636 -11.500   9.300  1.00  0.00     0.213 C 
HETATM   13  C   UNL     1      45.209 -10.960  10.640  1.00  0.00     0.117 C 
HETATM   14  O   UNL     1      46.506 -10.957   8.628  1.00  0.00    -0.274 OA
HETATM   15  H   UNL     1      44.194 -12.980   9.457  1.00  0.00     0.162 HD
ENDBRANCH  10  11
ENDBRANCH   9  10
ENDBRANCH   6   9
ENDBRANCH   4   5
ENDBRANCH   3   4
ENDBRANCH   2   3
ENDBRANCH   1   2
BRANCH   1  16
HETATM   16  C   UNL     1      41.504 -17.385   1.982  1.00  0.00     0.121 C 
BRANCH  16  17
HETATM   17  N   UNL     1      42.945 -17.581   2.072  1.00  0.00    -0.374 N 
HETATM   18  H   UNL     1      43.486 -16.802   1.719  1.00  0.00     0.161 HD
BRANCH  17  19
HETATM   19  C   UNL     1      43.495 -18.277   3.135  1.00  0.00     0.139 A 
HETATM   20  N   UNL     1      43.722 -17.655   4.257  1.00  0.00    -0.202 NA
HETATM   21  C   UNL     1      44.302 -18.285   5.325  1.00  0.00     0.200 A 
HETATM   22  S   UNL     1      44.600 -17.523   6.791  1.00  0.00    -0.039 SA
HETATM   23  N   UNL     1      44.686 -19.594   5.209  1.00  0.00    -0.331 N 
HETATM   24  C   UNL     1      44.461 -20.333   4.052  1.00  0.00     0.048 A 
HETATM   25  H   UNL     1      45.117 -20.015   6.020  1.00  0.00     0.168 HD
HETATM   26  C   UNL     1      43.836 -19.720   2.969  1.00  0.00     0.036 A 
HETATM   27  C   UNL     1      44.844 -21.672   3.990  1.00  0.00     0.030 A 
HETATM   28  C   UNL     1      43.558 -20.461   1.817  1.00  0.00     0.017 A 
HETATM   29  C   UNL     1      43.937 -21.804   1.751  1.00  0.00     0.001 A 
HETATM   30  C   UNL     1      44.584 -22.407   2.833  1.00  0.00     0.002 A 
ENDBRANCH  17  19
ENDBRANCH  16  17
ENDBRANCH   1  16
TORSDOF 10
ENDMDL
MODEL 2
REMARK VINA RESULT:      -7.5      1.835      2.641
REMARK  10 active torsions:
REMARK  status: ('A' for Active; 'I' for Inactive)
REMARK       I    between atoms: C_2  and  N_3 
REMARK    1  A    between atoms: N_3  and  C_4 
REMARK    2  A    between atoms: C_4  and  C_5 
REMARK    3  A    between atoms: C_5  and  N_6 
REMARK       I    between atoms: N_6  and  C_7 
REMARK    4  A    between atoms: C_7  and  C_8 
REMARK    5  A    between atoms: C_8  and  C_9 
REMARK    6  A    between atoms: C_9  and  C_10 
REMARK    7  A    between atoms: C_10  and  C_11 
REMARK    8  A    between atoms: C_11  and  C_12 
REMARK    9  A    between atoms: C_12  and  N_13 
REMARK   10  A    between atoms: N_13  and  C_14 
ROOT
HETATM    1  C   UNL     1      42.707 -14.934   3.371  1.00  0.00     0.020 C 
ENDROOT
BRANCH   1   2
HETATM    2  C   UNL     1      43.518 -13.829   4.058  1.00  0.00     0.002 C 
BRANCH   2   3
HETATM    3  C   UNL     1      43.186 -13.673   5.543  1.00  0.00     0.009 C 
BRANCH   3   4
HETATM    4  C   UNL     1      44.113 -14.511   6.421  1.00  0.00     0.103 C 
BRANCH   4   5
HETATM    5  C   UNL     1      44.909 -13.620   7.350  1.00  0.00     0.217 C 
HETATM    6  N   UNL     1      44.222 -13.219   8.471  1.00  0.00    -0.360 N 
HETATM    7  H   UNL     1      43.241 -13.440   8.566  1.00  0.00     0.162 HD
HETATM    8  O   UNL     1      46.054 -13.263   7.094  1.00  0.00    -0.274 OA
BRANCH   6   9
HETATM    9  C   UNL     1      44.791 -12.267   9.412  1.00  0.00     0.142 C 
BRANCH   9  10
HETATM   10  C   UNL     1      44.103 -12.314  10.783  1.00  0.00     0.142 C 
BRANCH  10  11
HETATM   11  N   UNL     1      44.128 -11.040  11.487  1.00  0.00    -0.360 N 
HETATM   12  C   UNL     1      43.238 -10.755  12.493  1.00  0.00     0.213 C 
HETATM   13  C   UNL     1      43.475  -9.434  13.177  1.00  0.00     0.117 C 
HETATM   14  O   UNL     1      42.322 -11.501  12.822  1.00  0.00    -0.274 OA
HETATM   15  H   UNL     1      44.922 -10.433  11.329  1.00  0.00     0.162 HD
ENDBRANCH  10  11
ENDBRANCH   9  10
ENDBRANCH   6   9
ENDBRANCH   4   5
ENDBRANCH   3   4
ENDBRANCH   2   3
ENDBRANCH   1   2
BRANCH   1  16
HETATM   16  C   UNL     1      43.569 -15.915   2.578  1.00  0.00     0.121 C 
BRANCH  16  17
HETATM   17  N   UNL     1      43.037 -17.266   2.702  1.00  0.00    -0.374 N 
HETATM   18  H   UNL     1      42.697 -17.652   1.830  1.00  0.00     0.161 HD
BRANCH  17  19
HETATM   19  C   UNL     1      43.599 -18.165   3.593  1.00  0.00     0.139 A 
HETATM   20  N   UNL     1      43.924 -17.760   4.788  1.00  0.00    -0.202 NA
HETATM   21  C   UNL     1      44.520 -18.596   5.694  1.00  0.00     0.200 A 
HETATM   22  S   UNL     1      44.942 -18.118   7.246  1.00  0.00    -0.039 SA
HETATM   23  N   UNL     1      44.814 -19.883   5.331  1.00  0.00    -0.331 N 
HETATM   24  C   UNL     1      44.483 -20.396   4.081  1.00  0.00     0.048 A 
HETATM   25  H   UNL     1      45.262 -20.461   6.029  1.00  0.00     0.168 HD
HETATM   26  C   UNL     1      43.840 -19.572   3.161  1.00  0.00     0.036 A 
HETATM   27  C   UNL     1      44.777 -21.722   3.767  1.00  0.00     0.030 A 
HETATM   28  C   UNL     1      43.456 -20.085   1.919  1.00  0.00     0.017 A 
HETATM   29  C   UNL     1      43.746 -21.414   1.601  1.00  0.00     0.001 A 
HETATM   30  C   UNL     1      44.411 -22.229   2.520  1.00  0.00     0.002 A 
ENDBRANCH  17  19
ENDBRANCH  16  17
ENDBRANCH   1  16
TORSDOF 10
ENDMDL
MODEL 3
REMARK VINA RESULT:      -7.4      2.324      3.807
REMARK  10 active torsions:
REMARK  status: ('A' for Active; 'I' for Inactive)
REMARK       I    between atoms: C_2  and  N_3 
REMARK    1  A    between atoms: N_3  and  C_4 
REMARK    2  A    between atoms: C_4  and  C_5 
REMARK    3  A    between atoms: C_5  and  N_6 
REMARK       I    between atoms: N_6  and  C_7 
REMARK    4  A    between atoms: C_7  and  C_8 
REMARK    5  A    between atoms: C_8  and  C_9 
REMARK    6  A    between atoms: C_9  and  C_10 
REMARK    7  A    between atoms: C_10  and  C_11 
REMARK    8  A    between atoms: C_11  and  C_12 
REMARK    9  A    between atoms: C_12  and  N_13 
REMARK   10  A    between atoms: N_13  and  C_14 
ROOT
HETATM    1  C   UNL     1      43.406 -16.305   7.117  1.00  0.00     0.020 C 
ENDROOT
BRANCH   1   2
HETATM    2  C   UNL     1      42.852 -15.177   6.238  1.00  0.00     0.002 C 
BRANCH   2   3
HETATM    3  C   UNL     1      43.708 -13.911   6.273  1.00  0.00     0.009 C 
BRANCH   3   4
HETATM    4  C   UNL     1      45.081 -14.172   6.887  1.00  0.00     0.103 C 
BRANCH   4   5
HETATM    5  C   UNL     1      45.444 -13.070   7.858  1.00  0.00     0.217 C 
HETATM    6  N   UNL     1      44.449 -12.757   8.753  1.00  0.00    -0.360 N 
HETATM    7  H   UNL     1      43.537 -13.181   8.660  1.00  0.00     0.162 HD
HETATM    8  O   UNL     1      46.524 -12.487   7.816  1.00  0.00    -0.274 OA
BRANCH   6   9
HETATM    9  C   UNL     1      44.582 -11.644   9.680  1.00  0.00     0.142 C 
BRANCH   9  10
HETATM   10  C   UNL     1      43.223 -11.076  10.111  1.00  0.00     0.142 C 
BRANCH  10  11
HETATM   11  N   UNL     1      43.317 -10.120  11.206  1.00  0.00    -0.360 N 
HETATM   12  C   UNL     1      43.156 -10.504  12.514  1.00  0.00     0.213 C 
HETATM   13  C   UNL     1      43.386  -9.405  13.518  1.00  0.00     0.117 C 
HETATM   14  O   UNL     1      42.853 -11.642  12.856  1.00  0.00    -0.274 OA
HETATM   15  H   UNL     1      43.666  -9.195  10.991  1.00  0.00     0.162 HD
ENDBRANCH  10  11
ENDBRANCH   9  10
ENDBRANCH   6   9
ENDBRANCH   4   5
ENDBRANCH   3   4
ENDBRANCH   2   3
ENDBRANCH   1   2
BRANCH   1  16
HETATM   16  C   UNL     1      43.284 -17.688   6.479  1.00  0.00     0.121 C 
BRANCH  16  17
HETATM   17  N   UNL     1      44.303 -17.860   5.452  1.00  0.00    -0.374 N 
HETATM   18  H   UNL     1      45.164 -18.268   5.795  1.00  0.00     0.161 HD
BRANCH  17  19
HETATM   19  C   UNL     1      43.947 -18.182   4.153  1.00  0.00     0.139 A 
HETATM   20  N   UNL     1      43.448 -17.260   3.381  1.00  0.00    -0.202 NA
HETATM   21  C   UNL     1      43.041 -17.534   2.103  1.00  0.00     0.200 A 
HETATM   22  S   UNL     1      42.405 -16.372   1.072  1.00  0.00    -0.039 SA
HETATM   23  N   UNL     1      43.128 -18.815   1.628  1.00  0.00    -0.331 N 
HETATM   24  C   UNL     1      43.667 -19.851   2.383  1.00  0.00     0.048 A 
HETATM   25  H   UNL     1      42.808 -18.972   0.682  1.00  0.00     0.168 HD
HETATM   26  C   UNL     1      44.123 -19.583   3.671  1.00  0.00     0.036 A 
HETATM   27  C   UNL     1      43.762 -21.134   1.846  1.00  0.00     0.030 A 
HETATM   28  C   UNL     1      44.712 -20.601   4.426  1.00  0.00     0.017 A 
HETATM   29  C   UNL     1      44.812 -21.888   3.891  1.00  0.00     0.001 A 
HETATM   30  C   UNL     1      44.332 -22.156   2.607  1.00  0.00     0.002 A 
ENDBRANCH  17  19
ENDBRANCH  16  17
ENDBRANCH   1  16
TORSDOF 10
ENDMDL
MODEL 4
REMARK VINA RESULT:      -7.4      1.898      2.599
REMARK  10 active torsions:
REMARK  status: ('A' for Active; 'I' for Inactive)
REMARK       I    between atoms: C_2  and  N_3 
REMARK    1  A    between atoms: N_3  and  C_4 
REMARK    2  A    between atoms: C_4  and  C_5 
REMARK    3  A    between atoms: C_5  and  N_6 
REMARK       I    between atoms: N_6  and  C_7 
REMARK    4  A    between atoms: C_7  and  C_8 
REMARK    5  A    between atoms: C_8  and  C_9 
REMARK    6  A    between atoms: C_9  and  C_10 
REMARK    7  A    between atoms: C_10  and  C_11 
REMARK    8  A    between atoms: C_11  and  C_12 
REMARK    9  A    between atoms: C_12  and  N_13 
REMARK   10  A    between atoms: N_13  and  C_14 
ROOT
HETATM    1  C   UNL     1      42.951 -16.775   0.890  1.00  0.00     0.020 C 
ENDROOT
BRANCH   1   2
HETATM    2  C   UNL     1      41.444 -17.042   0.816  1.00  0.00     0.002 C 
BRANCH   2   3
HETATM    3  C   UNL     1      40.611 -15.764   0.698  1.00  0.00     0.009 C 
BRANCH   3   4
HETATM    4  C   UNL     1      39.731 -15.547   1.926  1.00  0.00     0.103 C 
BRANCH   4   5
HETATM    5  C   UNL     1      40.482 -14.766   2.982  1.00  0.00     0.217 C 
HETATM    6  N   UNL     1      40.330 -15.253   4.259  1.00  0.00    -0.360 N 
HETATM    7  H   UNL     1      39.679 -16.005   4.436  1.00  0.00     0.162 HD
HETATM    8  O   UNL     1      41.136 -13.762   2.715  1.00  0.00    -0.274 OA
BRANCH   6   9
HETATM    9  C   UNL     1      40.884 -14.559   5.410  1.00  0.00     0.142 C 
BRANCH   9  10
HETATM   10  C   UNL     1      42.389 -14.807   5.577  1.00  0.00     0.142 C 
BRANCH  10  11
HETATM   11  N   UNL     1      43.007 -13.961   6.588  1.00  0.00    -0.360 N 
HETATM   12  C   UNL     1      44.259 -14.227   7.084  1.00  0.00     0.213 C 
HETATM   13  C   UNL     1      44.780 -13.192   8.046  1.00  0.00     0.117 C 
HETATM   14  O   UNL     1      44.914 -15.218   6.780  1.00  0.00    -0.274 OA
HETATM   15  H   UNL     1      42.559 -13.078   6.797  1.00  0.00     0.162 HD
ENDBRANCH  10  11
ENDBRANCH   9  10
ENDBRANCH   6   9
ENDBRANCH   4   5
ENDBRANCH   3   4
ENDBRANCH   2   3
ENDBRANCH   1   2
BRANCH   1  16
HETATM   16  C   UNL     1      43.490 -16.731   2.320  1.00  0.00     0.121 C 
BRANCH  16  17
HETATM   17  N   UNL     1      42.662 -17.551   3.194  1.00  0.00    -0.374 N 
HETATM   18  H   UNL     1      41.773 -17.812   2.789  1.00  0.00     0.161 HD
BRANCH  17  19
HETATM   19  C   UNL     1      43.242 -18.476   4.047  1.00  0.00     0.139 A 
HETATM   20  N   UNL     1      43.403 -18.172   5.304  1.00  0.00    -0.202 NA
HETATM   21  C   UNL     1      44.007 -19.032   6.181  1.00  0.00     0.200 A 
HETATM   22  S   UNL     1      44.222 -18.684   7.809  1.00  0.00    -0.039 SA
HETATM   23  N   UNL     1      44.486 -20.231   5.727  1.00  0.00    -0.331 N 
HETATM   24  C   UNL     1      44.336 -20.638   4.405  1.00  0.00     0.048 A 
HETATM   25  H   UNL     1      44.932 -20.830   6.408  1.00  0.00     0.168 HD
HETATM   26  C   UNL     1      43.689 -19.793   3.507  1.00  0.00     0.036 A 
HETATM   27  C   UNL     1      44.815 -21.882   3.995  1.00  0.00     0.030 A 
HETATM   28  C   UNL     1      43.486 -20.205   2.188  1.00  0.00     0.017 A 
HETATM   29  C   UNL     1      43.961 -21.452   1.773  1.00  0.00     0.001 A 
HETATM   30  C   UNL     1      44.630 -22.285   2.672  1.00  0.00     0.002 A 
ENDBRANCH  17  19
ENDBRANCH  16  17
ENDBRANCH   1  16
TORSDOF 10
ENDMDL
MODEL 5
REMARK VINA RESULT:      -7.4      3.101      4.352
REMARK  10 active torsions:
REMARK  status: ('A' for Active; 'I' for Inactive)
REMARK       I    between atoms: C_2  and  N_3 
REMARK    1  A    between atoms: N_3  and  C_4 
REMARK    2  A    between atoms: C_4  and  C_5 
REMARK    3  A    between atoms: C_5  and  N_6 
REMARK       I    between atoms: N_6  and  C_7 
REMARK    4  A    between atoms: C_7  and  C_8 
REMARK    5  A    between atoms: C_8  and  C_9 
REMARK    6  A    between atoms: C_9  and  C_10 
REMARK    7  A    between atoms: C_10  and  C_11 
REMARK    8  A    between atoms: C_11  and  C_12 
REMARK    9  A    between atoms: C_12  and  N_13 
REMARK   10  A    between atoms: N_13  and  C_14 
ROOT
HETATM    1  C   UNL     1      40.857 -14.483   5.636  1.00  0.00     0.020 C 
ENDROOT
BRANCH   1   2
HETATM    2  C   UNL     1      42.386 -14.543   5.551  1.00  0.00     0.002 C 
BRANCH   2   3
HETATM    3  C   UNL     1      43.017 -15.402   6.648  1.00  0.00     0.009 C 
BRANCH   3   4
HETATM    4  C   UNL     1      44.541 -15.312   6.631  1.00  0.00     0.103 C 
BRANCH   4   5
HETATM    5  C   UNL     1      44.996 -13.967   7.153  1.00  0.00     0.217 C 
HETATM    6  N   UNL     1      44.316 -13.535   8.267  1.00  0.00    -0.360 N 
HETATM    7  H   UNL     1      43.519 -14.057   8.604  1.00  0.00     0.162 HD
HETATM    8  O   UNL     1      45.873 -13.311   6.600  1.00  0.00    -0.274 OA
BRANCH   6   9
HETATM    9  C   UNL     1      44.541 -12.214   8.831  1.00  0.00     0.142 C 
BRANCH   9  10
HETATM   10  C   UNL     1      44.946 -12.269  10.310  1.00  0.00     0.142 C 
BRANCH  10  11
HETATM   11  N   UNL     1      44.668 -11.035  11.033  1.00  0.00    -0.360 N 
HETATM   12  C   UNL     1      43.619 -10.937  11.914  1.00  0.00     0.213 C 
HETATM   13  C   UNL     1      43.542  -9.622  12.645  1.00  0.00     0.117 C 
HETATM   14  O   UNL     1      42.804 -11.833  12.102  1.00  0.00    -0.274 OA
HETATM   15  H   UNL     1      45.365 -10.303  10.994  1.00  0.00     0.162 HD
ENDBRANCH  10  11
ENDBRANCH   9  10
ENDBRANCH   6   9
ENDBRANCH   4   5
ENDBRANCH   3   4
ENDBRANCH   2   3
ENDBRANCH   1   2
BRANCH   1  16
HETATM   16  C   UNL     1      40.175 -14.436   4.268  1.00  0.00     0.121 C 
BRANCH  16  17
HETATM   17  N   UNL     1      40.207 -15.753   3.646  1.00  0.00    -0.374 N 
HETATM   18  H   UNL     1      39.333 -16.260   3.716  1.00  0.00     0.161 HD
BRANCH  17  19
HETATM   19  C   UNL     1      40.950 -15.971   2.498  1.00  0.00     0.139 A 
HETATM   20  N   UNL     1      40.665 -15.303   1.416  1.00  0.00    -0.202 NA
HETATM   21  C   UNL     1      41.341 -15.509   0.244  1.00  0.00     0.200 A 
HETATM   22  S   UNL     1      41.014 -14.661  -1.167  1.00  0.00    -0.039 SA
HETATM   23  N   UNL     1      42.322 -16.462   0.190  1.00  0.00    -0.331 N 
HETATM   24  C   UNL     1      42.698 -17.204   1.305  1.00  0.00     0.048 A 
HETATM   25  H   UNL     1      42.788 -16.585  -0.699  1.00  0.00     0.168 HD
HETATM   26  C   UNL     1      42.049 -16.980   2.516  1.00  0.00     0.036 A 
HETATM   27  C   UNL     1      43.723 -18.144   1.208  1.00  0.00     0.030 A 
HETATM   28  C   UNL     1      42.447 -17.681   3.658  1.00  0.00     0.017 A 
HETATM   29  C   UNL     1      43.476 -18.622   3.567  1.00  0.00     0.001 A 
HETATM   30  C   UNL     1      44.107 -18.859   2.344  1.00  0.00     0.002 A 
ENDBRANCH  17  19
ENDBRANCH  16  17
ENDBRANCH   1  16
TORSDOF 10
ENDMDL
MODEL 6
REMARK VINA RESULT:      -7.3      3.443      5.853
REMARK  10 active torsions:
REMARK  status: ('A' for Active; 'I' for Inactive)
REMARK       I    between atoms: C_2  and  N_3 
REMARK    1  A    between atoms: N_3  and  C_4 
REMARK    2  A    between atoms: C_4  and  C_5 
REMARK    3  A    between atoms: C_5  and  N_6 
REMARK       I    between atoms: N_6  and  C_7 
REMARK    4  A    between atoms: C_7  and  C_8 
REMARK    5  A    between atoms: C_8  and  C_9 
REMARK    6  A    between atoms: C_9  and  C_10 
REMARK    7  A    between atoms: C_10  and  C_11 
REMARK    8  A    between atoms: C_11  and  C_12 
REMARK    9  A    between atoms: C_12  and  N_13 
REMARK   10  A    between atoms: N_13  and  C_14 
ROOT
HETATM    1  C   UNL     1      40.737 -14.326   4.819  1.00  0.00     0.020 C 
ENDROOT
BRANCH   1   2
HETATM    2  C   UNL     1      41.782 -13.211   4.699  1.00  0.00     0.002 C 
BRANCH   2   3
HETATM    3  C   UNL     1      42.902 -13.322   5.734  1.00  0.00     0.009 C 
BRANCH   3   4
HETATM    4  C   UNL     1      43.753 -14.570   5.516  1.00  0.00     0.103 C 
BRANCH   4   5
HETATM    5  C   UNL     1      43.751 -15.435   6.758  1.00  0.00     0.217 C 
HETATM    6  N   UNL     1      43.097 -16.634   6.609  1.00  0.00    -0.360 N 
HETATM    7  H   UNL     1      42.586 -16.827   5.758  1.00  0.00     0.162 HD
HETATM    8  O   UNL     1      44.262 -15.069   7.813  1.00  0.00    -0.274 OA
BRANCH   6   9
HETATM    9  C   UNL     1      42.895 -17.536   7.732  1.00  0.00     0.142 C 
BRANCH   9  10
HETATM   10  C   UNL     1      44.061 -18.518   7.912  1.00  0.00     0.142 C 
BRANCH  10  11
HETATM   11  N   UNL     1      44.475 -19.157   6.671  1.00  0.00    -0.360 N 
HETATM   12  C   UNL     1      44.156 -20.463   6.392  1.00  0.00     0.213 C 
HETATM   13  C   UNL     1      44.579 -20.928   5.022  1.00  0.00     0.117 C 
HETATM   14  O   UNL     1      43.576 -21.204   7.178  1.00  0.00    -0.274 OA
HETATM   15  H   UNL     1      44.864 -18.567   5.947  1.00  0.00     0.162 HD
ENDBRANCH  10  11
ENDBRANCH   9  10
ENDBRANCH   6   9
ENDBRANCH   4   5
ENDBRANCH   3   4
ENDBRANCH   2   3
ENDBRANCH   1   2
BRANCH   1  16
HETATM   16  C   UNL     1      39.710 -14.319   3.687  1.00  0.00     0.121 C 
BRANCH  16  17
HETATM   17  N   UNL     1      39.729 -15.594   2.983  1.00  0.00    -0.374 N 
HETATM   18  H   UNL     1      38.823 -16.044   2.927  1.00  0.00     0.161 HD
BRANCH  17  19
HETATM   19  C   UNL     1      40.578 -15.792   1.907  1.00  0.00     0.139 A 
HETATM   20  N   UNL     1      40.324 -15.197   0.776  1.00  0.00    -0.202 NA
HETATM   21  C   UNL     1      41.108 -15.390  -0.330  1.00  0.00     0.200 A 
HETATM   22  S   UNL     1      40.823 -14.634  -1.801  1.00  0.00    -0.039 SA
HETATM   23  N   UNL     1      42.168 -16.254  -0.263  1.00  0.00    -0.331 N 
HETATM   24  C   UNL     1      42.516 -16.912   0.913  1.00  0.00     0.048 A 
HETATM   25  H   UNL     1      42.713 -16.371  -1.106  1.00  0.00     0.168 HD
HETATM   26  C   UNL     1      41.754 -16.697   2.058  1.00  0.00     0.036 A 
HETATM   27  C   UNL     1      43.623 -17.760   0.940  1.00  0.00     0.030 A 
HETATM   28  C   UNL     1      42.118 -17.311   3.260  1.00  0.00     0.017 A 
HETATM   29  C   UNL     1      43.228 -18.160   3.294  1.00  0.00     0.001 A 
HETATM   30  C   UNL     1      43.974 -18.389   2.135  1.00  0.00     0.002 A 
ENDBRANCH  17  19
ENDBRANCH  16  17
ENDBRANCH   1  16
TORSDOF 10
ENDMDL
MODEL 7
REMARK VINA RESULT:      -7.3      2.954      6.012
REMARK  10 active torsions:
REMARK  status: ('A' for Active; 'I' for Inactive)
REMARK       I    between atoms: C_2  and  N_3 
REMARK    1  A    between atoms: N_3  and  C_4 
REMARK    2  A    between atoms: C_4  and  C_5 
REMARK    3  A    between atoms: C_5  and  N_6 
REMARK       I    between atoms: N_6  and  C_7 
REMARK    4  A    between atoms: C_7  and  C_8 
REMARK    5  A    between atoms: C_8  and  C_9 
REMARK    6  A    between atoms: C_9  and  C_10 
REMARK    7  A    between atoms: C_10  and  C_11 
REMARK    8  A    between atoms: C_11  and  C_12 
REMARK    9  A    between atoms: C_12  and  N_13 
REMARK   10  A    between atoms: N_13  and  C_14 
ROOT
HETATM    1  C   UNL     1      44.607 -12.768   8.201  1.00  0.00     0.020 C 
ENDROOT
BRANCH   1   2
HETATM    2  C   UNL     1      45.856 -12.023   8.684  1.00  0.00     0.002 C 
BRANCH   2   3
HETATM    3  C   UNL     1      45.594 -11.135   9.902  1.00  0.00     0.009 C 
BRANCH   3   4
HETATM    4  C   UNL     1      44.942 -11.914  11.041  1.00  0.00     0.103 C 
BRANCH   4   5
HETATM    5  C   UNL     1      43.719 -11.182  11.549  1.00  0.00     0.217 C 
HETATM    6  N   UNL     1      42.527 -11.693  11.096  1.00  0.00    -0.360 N 
HETATM    7  H   UNL     1      42.525 -12.427  10.401  1.00  0.00     0.162 HD
HETATM    8  O   UNL     1      43.800 -10.195  12.274  1.00  0.00    -0.274 OA
BRANCH   6   9
HETATM    9  C   UNL     1      41.260 -11.042  11.389  1.00  0.00     0.142 C 
BRANCH   9  10
HETATM   10  C   UNL     1      40.610 -10.432  10.139  1.00  0.00     0.142 C 
BRANCH  10  11
HETATM   11  N   UNL     1      41.174 -10.930   8.892  1.00  0.00    -0.360 N 
HETATM   12  C   UNL     1      40.407 -11.080   7.763  1.00  0.00     0.213 C 
HETATM   13  C   UNL     1      41.175 -11.510   6.541  1.00  0.00     0.117 C 
HETATM   14  O   UNL     1      39.197 -10.884   7.734  1.00  0.00    -0.274 OA
HETATM   15  H   UNL     1      42.181 -11.008   8.832  1.00  0.00     0.162 HD
ENDBRANCH  10  11
ENDBRANCH   9  10
ENDBRANCH   6   9
ENDBRANCH   4   5
ENDBRANCH   3   4
ENDBRANCH   2   3
ENDBRANCH   1   2
BRANCH   1  16
HETATM   16  C   UNL     1      44.922 -13.946   7.280  1.00  0.00     0.121 C 
BRANCH  16  17
HETATM   17  N   UNL     1      43.933 -15.001   7.457  1.00  0.00    -0.374 N 
HETATM   18  H   UNL     1      43.403 -14.925   8.317  1.00  0.00     0.161 HD
BRANCH  17  19
HETATM   19  C   UNL     1      43.259 -15.524   6.367  1.00  0.00     0.139 A 
HETATM   20  N   UNL     1      42.269 -14.855   5.847  1.00  0.00    -0.202 NA
HETATM   21  C   UNL     1      41.543 -15.344   4.795  1.00  0.00     0.200 A 
HETATM   22  S   UNL     1      40.271 -14.508   4.088  1.00  0.00    -0.039 SA
HETATM   23  N   UNL     1      41.837 -16.583   4.291  1.00  0.00    -0.331 N 
HETATM   24  C   UNL     1      42.890 -17.351   4.778  1.00  0.00     0.048 A 
HETATM   25  H   UNL     1      41.269 -16.906   3.520  1.00  0.00     0.168 HD
HETATM   26  C   UNL     1      43.664 -16.852   5.821  1.00  0.00     0.036 A 
HETATM   27  C   UNL     1      43.169 -18.595   4.213  1.00  0.00     0.030 A 
HETATM   28  C   UNL     1      44.756 -17.589   6.290  1.00  0.00     0.017 A 
HETATM   29  C   UNL     1      45.042 -18.835   5.726  1.00  0.00     0.001 A 
HETATM   30  C   UNL     1      44.247 -19.340   4.695  1.00  0.00     0.002 A 
ENDBRANCH  17  19
ENDBRANCH  16  17
ENDBRANCH   1  16
TORSDOF 10
ENDMDL
MODEL 8
REMARK VINA RESULT:      -7.2      1.835      2.896
REMARK  10 active torsions:
REMARK  status: ('A' for Active; 'I' for Inactive)
REMARK       I    between atoms: C_2  and  N_3 
REMARK    1  A    between atoms: N_3  and  C_4 
REMARK    2  A    between atoms: C_4  and  C_5 
REMARK    3  A    between atoms: C_5  and  N_6 
REMARK       I    between atoms: N_6  and  C_7 
REMARK    4  A    between atoms: C_7  and  C_8 
REMARK    5  A    between atoms: C_8  and  C_9 
REMARK    6  A    between atoms: C_9  and  C_10 
REMARK    7  A    between atoms: C_10  and  C_11 
REMARK    8  A    between atoms: C_11  and  C_12 
REMARK    9  A    between atoms: C_12  and  N_13 
REMARK   10  A    between atoms: N_13  and  C_14 
ROOT
HETATM    1  C   UNL     1      42.727 -15.014   3.778  1.00  0.00     0.020 C 
ENDROOT
BRANCH   1   2
HETATM    2  C   UNL     1      43.606 -14.039   4.569  1.00  0.00     0.002 C 
BRANCH   2   3
HETATM    3  C   UNL     1      43.316 -14.049   6.071  1.00  0.00     0.009 C 
BRANCH   3   4
HETATM    4  C   UNL     1      44.520 -14.530   6.877  1.00  0.00     0.103 C 
BRANCH   4   5
HETATM    5  C   UNL     1      45.073 -13.404   7.722  1.00  0.00     0.217 C 
HETATM    6  N   UNL     1      44.213 -12.955   8.695  1.00  0.00    -0.360 N 
HETATM    7  H   UNL     1      43.266 -13.306   8.732  1.00  0.00     0.162 HD
HETATM    8  O   UNL     1      46.182 -12.918   7.523  1.00  0.00    -0.274 OA
BRANCH   6   9
HETATM    9  C   UNL     1      44.534 -11.802   9.521  1.00  0.00     0.142 C 
BRANCH   9  10
HETATM   10  C   UNL     1      43.340 -10.853   9.693  1.00  0.00     0.142 C 
BRANCH  10  11
HETATM   11  N   UNL     1      42.156 -11.273   8.957  1.00  0.00    -0.360 N 
HETATM   12  C   UNL     1      41.689 -10.564   7.877  1.00  0.00     0.213 C 
HETATM   13  C   UNL     1      40.516 -11.198   7.177  1.00  0.00     0.117 C 
HETATM   14  O   UNL     1      42.174  -9.503   7.500  1.00  0.00    -0.274 OA
HETATM   15  H   UNL     1      41.780 -12.190   9.158  1.00  0.00     0.162 HD
ENDBRANCH  10  11
ENDBRANCH   9  10
ENDBRANCH   6   9
ENDBRANCH   4   5
ENDBRANCH   3   4
ENDBRANCH   2   3
ENDBRANCH   1   2
BRANCH   1  16
HETATM   16  C   UNL     1      43.527 -15.979   2.903  1.00  0.00     0.121 C 
BRANCH  16  17
HETATM   17  N   UNL     1      42.959 -17.318   2.985  1.00  0.00    -0.374 N 
HETATM   18  H   UNL     1      42.663 -17.692   2.092  1.00  0.00     0.161 HD
BRANCH  17  19
HETATM   19  C   UNL     1      43.447 -18.235   3.901  1.00  0.00     0.139 A 
HETATM   20  N   UNL     1      43.603 -17.874   5.144  1.00  0.00    -0.202 NA
HETATM   21  C   UNL     1      44.120 -18.727   6.081  1.00  0.00     0.200 A 
HETATM   22  S   UNL     1      44.324 -18.307   7.693  1.00  0.00    -0.039 SA
HETATM   23  N   UNL     1      44.516 -19.983   5.705  1.00  0.00    -0.331 N 
HETATM   24  C   UNL     1      44.366 -20.449   4.403  1.00  0.00     0.048 A 
HETATM   25  H   UNL     1      44.900 -20.574   6.429  1.00  0.00     0.168 HD
HETATM   26  C   UNL     1      43.805 -19.609   3.444  1.00  0.00     0.036 A 
HETATM   27  C   UNL     1      44.758 -21.746   4.073  1.00  0.00     0.030 A 
HETATM   28  C   UNL     1      43.601 -20.078   2.144  1.00  0.00     0.017 A 
HETATM   29  C   UNL     1      43.990 -21.378   1.809  1.00  0.00     0.001 A 
HETATM   30  C   UNL     1      44.573 -22.207   2.770  1.00  0.00     0.002 A 
ENDBRANCH  17  19
ENDBRANCH  16  17
ENDBRANCH   1  16
TORSDOF 10
ENDMDL
MODEL 9
REMARK VINA RESULT:      -7.2      4.475      7.246
REMARK  10 active torsions:
REMARK  status: ('A' for Active; 'I' for Inactive)
REMARK       I    between atoms: C_2  and  N_3 
REMARK    1  A    between atoms: N_3  and  C_4 
REMARK    2  A    between atoms: C_4  and  C_5 
REMARK    3  A    between atoms: C_5  and  N_6 
REMARK       I    between atoms: N_6  and  C_7 
REMARK    4  A    between atoms: C_7  and  C_8 
REMARK    5  A    between atoms: C_8  and  C_9 
REMARK    6  A    between atoms: C_9  and  C_10 
REMARK    7  A    between atoms: C_10  and  C_11 
REMARK    8  A    between atoms: C_11  and  C_12 
REMARK    9  A    between atoms: C_12  and  N_13 
REMARK   10  A    between atoms: N_13  and  C_14 
ROOT
HETATM    1  C   UNL     1      41.755 -17.085   0.913  1.00  0.00     0.020 C 
ENDROOT
BRANCH   1   2
HETATM    2  C   UNL     1      41.242 -15.992  -0.032  1.00  0.00     0.002 C 
BRANCH   2   3
HETATM    3  C   UNL     1      41.204 -14.606   0.615  1.00  0.00     0.009 C 
BRANCH   3   4
HETATM    4  C   UNL     1      39.775 -14.164   0.922  1.00  0.00     0.103 C 
BRANCH   4   5
HETATM    5  C   UNL     1      39.096 -13.663  -0.333  1.00  0.00     0.217 C 
HETATM    6  N   UNL     1      39.800 -12.693  -1.006  1.00  0.00    -0.360 N 
HETATM    7  H   UNL     1      40.641 -12.307  -0.599  1.00  0.00     0.162 HD
HETATM    8  O   UNL     1      37.994 -14.068  -0.690  1.00  0.00    -0.274 OA
BRANCH   6   9
HETATM    9  C   UNL     1      39.245 -12.015  -2.166  1.00  0.00     0.142 C 
BRANCH   9  10
HETATM   10  C   UNL     1      39.737 -12.616  -3.489  1.00  0.00     0.142 C 
BRANCH  10  11
HETATM   11  N   UNL     1      39.052 -13.848  -3.856  1.00  0.00    -0.360 N 
HETATM   12  C   UNL     1      39.691 -15.063  -3.833  1.00  0.00     0.213 C 
HETATM   13  C   UNL     1      38.803 -16.239  -4.145  1.00  0.00     0.117 C 
HETATM   14  O   UNL     1      40.883 -15.199  -3.580  1.00  0.00    -0.274 OA
HETATM   15  H   UNL     1      38.047 -13.808  -3.972  1.00  0.00     0.162 HD
ENDBRANCH  10  11
ENDBRANCH   9  10
ENDBRANCH   6   9
ENDBRANCH   4   5
ENDBRANCH   3   4
ENDBRANCH   2   3
ENDBRANCH   1   2
BRANCH   1  16
HETATM   16  C   UNL     1      43.161 -16.814   1.447  1.00  0.00     0.121 C 
BRANCH  16  17
HETATM   17  N   UNL     1      43.844 -18.071   1.725  1.00  0.00    -0.374 N 
HETATM   18  H   UNL     1      44.598 -18.277   1.082  1.00  0.00     0.161 HD
BRANCH  17  19
HETATM   19  C   UNL     1      44.013 -18.507   3.028  1.00  0.00     0.139 A 
HETATM   20  N   UNL     1      43.992 -17.638   3.999  1.00  0.00    -0.202 NA
HETATM   21  C   UNL     1      44.195 -18.009   5.301  1.00  0.00     0.200 A 
HETATM   22  S   UNL     1      44.163 -16.924   6.581  1.00  0.00    -0.039 SA
HETATM   23  N   UNL     1      44.459 -19.319   5.596  1.00  0.00    -0.331 N 
HETATM   24  C   UNL     1      44.479 -20.310   4.619  1.00  0.00     0.048 A 
HETATM   25  H   UNL     1      44.610 -19.545   6.569  1.00  0.00     0.168 HD
HETATM   26  C   UNL     1      44.235 -19.958   3.294  1.00  0.00     0.036 A 
HETATM   27  C   UNL     1      44.724 -21.637   4.971  1.00  0.00     0.030 A 
HETATM   28  C   UNL     1      44.203 -20.946   2.307  1.00  0.00     0.017 A 
HETATM   29  C   UNL     1      44.445 -22.278   2.655  1.00  0.00     0.001 A 
HETATM   30  C   UNL     1      44.712 -22.621   3.982  1.00  0.00     0.002 A 
ENDBRANCH  17  19
ENDBRANCH  16  17
ENDBRANCH   1  16
TORSDOF 10
ENDMDL
MODEL 10
REMARK VINA RESULT:      -7.0      2.910      3.707
REMARK  10 active torsions:
REMARK  status: ('A' for Active; 'I' for Inactive)
REMARK       I    between atoms: C_2  and  N_3 
REMARK    1  A    between atoms: N_3  and  C_4 
REMARK    2  A    between atoms: C_4  and  C_5 
REMARK    3  A    between atoms: C_5  and  N_6 
REMARK       I    between atoms: N_6  and  C_7 
REMARK    4  A    between atoms: C_7  and  C_8 
REMARK    5  A    between atoms: C_8  and  C_9 
REMARK    6  A    between atoms: C_9  and  C_10 
REMARK    7  A    between atoms: C_10  and  C_11 
REMARK    8  A    between atoms: C_11  and  C_12 
REMARK    9  A    between atoms: C_12  and  N_13 
REMARK   10  A    between atoms: N_13  and  C_14 
ROOT
HETATM    1  C   UNL     1      41.608 -17.284   0.788  1.00  0.00     0.020 C 
ENDROOT
BRANCH   1   2
HETATM    2  C   UNL     1      40.423 -17.247   1.759  1.00  0.00     0.002 C 
BRANCH   2   3
HETATM    3  C   UNL     1      40.319 -15.933   2.533  1.00  0.00     0.009 C 
BRANCH   3   4
HETATM    4  C   UNL     1      39.161 -15.072   2.035  1.00  0.00     0.103 C 
BRANCH   4   5
HETATM    5  C   UNL     1      39.542 -13.608   2.062  1.00  0.00     0.217 C 
HETATM    6  N   UNL     1      39.494 -13.036   3.311  1.00  0.00    -0.360 N 
HETATM    7  H   UNL     1      39.127 -13.562   4.092  1.00  0.00     0.162 HD
HETATM    8  O   UNL     1      39.830 -12.986   1.044  1.00  0.00    -0.274 OA
BRANCH   6   9
HETATM    9  C   UNL     1      39.713 -11.612   3.505  1.00  0.00     0.142 C 
BRANCH   9  10
HETATM   10  C   UNL     1      40.972 -11.319   4.333  1.00  0.00     0.142 C 
BRANCH  10  11
HETATM   11  N   UNL     1      42.150 -12.038   3.868  1.00  0.00    -0.360 N 
HETATM   12  C   UNL     1      42.486 -13.272   4.370  1.00  0.00     0.213 C 
HETATM   13  C   UNL     1      43.676 -13.911   3.704  1.00  0.00     0.117 C 
HETATM   14  O   UNL     1      41.879 -13.822   5.282  1.00  0.00    -0.274 OA
HETATM   15  H   UNL     1      42.625 -11.681   3.049  1.00  0.00     0.162 HD
ENDBRANCH  10  11
ENDBRANCH   9  10
ENDBRANCH   6   9
ENDBRANCH   4   5
ENDBRANCH   3   4
ENDBRANCH   2   3
ENDBRANCH   1   2
BRANCH   1  16
HETATM   16  C   UNL     1      42.923 -16.827   1.418  1.00  0.00     0.121 C 
BRANCH  16  17
HETATM   17  N   UNL     1      43.780 -17.976   1.682  1.00  0.00    -0.374 N 
HETATM   18  H   UNL     1      44.579 -18.040   1.064  1.00  0.00     0.161 HD
BRANCH  17  19
HETATM   19  C   UNL     1      43.967 -18.432   2.976  1.00  0.00     0.139 A 
HETATM   20  N   UNL     1      43.951 -17.579   3.961  1.00  0.00    -0.202 NA
HETATM   21  C   UNL     1      44.172 -17.969   5.255  1.00  0.00     0.200 A 
HETATM   22  S   UNL     1      44.148 -16.906   6.552  1.00  0.00    -0.039 SA
HETATM   23  N   UNL     1      44.449 -19.283   5.524  1.00  0.00    -0.331 N 
HETATM   24  C   UNL     1      44.465 -20.257   4.531  1.00  0.00     0.048 A 
HETATM   25  H   UNL     1      44.613 -19.523   6.492  1.00  0.00     0.168 HD
HETATM   26  C   UNL     1      44.203 -19.885   3.215  1.00  0.00     0.036 A 
HETATM   27  C   UNL     1      44.723 -21.587   4.859  1.00  0.00     0.030 A 
HETATM   28  C   UNL     1      44.166 -20.858   2.213  1.00  0.00     0.017 A 
HETATM   29  C   UNL     1      44.422 -22.193   2.536  1.00  0.00     0.001 A 
HETATM   30  C   UNL     1      44.706 -22.556   3.854  1.00  0.00     0.002 A 
ENDBRANCH  17  19
ENDBRANCH  16  17
ENDBRANCH   1  16
TORSDOF 10
ENDMDL
