MODEL 1
REMARK VINA RESULT:      -8.7      0.000      0.000
REMARK  8 active torsions:
REMARK  status: ('A' for Active; 'I' for Inactive)
REMARK    1  A    between atoms: O_2  and  C_3 
REMARK    2  A    between atoms: C_4  and  O_5 
REMARK    3  A    between atoms: C_8  and  C_9 
REMARK    4  A    between atoms: C_14  and  C_15 
REMARK    5  A    between atoms: N_16  and  N_17 
REMARK       I    between atoms: N_17  and  C_18 
REMARK    6  A    between atoms: C_18  and  C_19 
REMARK    7  A    between atoms: C_19  and  C_20 
REMARK    8  A    between atoms: C_20  and  C_21 
ROOT
HETATM    1  C   UNL     1      45.261 -11.863   8.875  1.00  0.00     0.100 A 
HETATM    2  N   UNL     1      46.309 -11.027   8.758  1.00  0.00    -0.174 NA
HETATM    3  N   UNL     1      47.104 -11.600   7.849  1.00  0.00    -0.288 N 
HETATM    4  H   UNL     1      47.974 -11.135   7.610  1.00  0.00     0.188 HD
HETATM    5  C   UNL     1      46.613 -12.765   7.356  1.00  0.00     0.124 A 
HETATM    6  C   UNL     1      45.399 -12.973   7.980  1.00  0.00     0.031 A 
ENDROOT
BRANCH   6   7
HETATM    7  C   UNL     1      44.501 -14.082   7.735  1.00  0.00     0.154 C 
HETATM    8  N   UNL     1      44.807 -14.928   6.802  1.00  0.00    -0.184 NA
BRANCH   8   9
HETATM    9  N   UNL     1      43.966 -15.985   6.560  1.00  0.00    -0.247 N 
HETATM   10  C   UNL     1      43.017 -16.058   5.548  1.00  0.00     0.237 C 
HETATM   11  O   UNL     1      42.766 -15.176   4.732  1.00  0.00    -0.272 OA
HETATM   12  H   UNL     1      44.280 -16.853   6.983  1.00  0.00     0.192 HD
BRANCH  10  13
HETATM   13  C   UNL     1      42.280 -17.384   5.525  1.00  0.00     0.105 C 
BRANCH  13  14
HETATM   14  C   UNL     1      42.469 -18.139   4.209  1.00  0.00     0.014 C 
BRANCH  14  15
HETATM   15  C   UNL     1      43.921 -18.208   3.683  1.00  0.00    -0.014 C 
HETATM   16  C   UNL     1      44.822 -19.179   4.466  1.00  0.00     0.004 C 
HETATM   17  C   UNL     1      44.458 -20.645   4.241  1.00  0.00     0.000 C 
HETATM   18  C   UNL     1      44.456 -21.001   2.757  1.00  0.00     0.000 C 
HETATM   19  C   UNL     1      43.580 -20.055   1.941  1.00  0.00     0.000 C 
HETATM   20  C   UNL     1      43.940 -18.591   2.190  1.00  0.00     0.004 C 
ENDBRANCH  14  15
ENDBRANCH  13  14
ENDBRANCH  10  13
ENDBRANCH   8   9
ENDBRANCH   6   7
BRANCH   1  21
HETATM   21  C   UNL     1      44.196 -11.560   9.839  1.00  0.00    -0.002 A 
HETATM   22  C   UNL     1      43.029 -10.912   9.407  1.00  0.00     0.053 A 
HETATM   23  C   UNL     1      42.008 -10.582  10.309  1.00  0.00     0.102 A 
HETATM   24  C   UNL     1      42.145 -10.920  11.668  1.00  0.00     0.101 A 
HETATM   25  C   UNL     1      43.312 -11.555  12.103  1.00  0.00     0.040 A 
HETATM   26  C   UNL     1      44.333 -11.863  11.198  1.00  0.00     0.017 A 
BRANCH  23  27
HETATM   27  O   UNL     1      40.843  -9.944   9.958  1.00  0.00    -0.353 OA
HETATM   28  C   UNL     1      39.903 -10.681   9.189  1.00  0.00     0.210 C 
ENDBRANCH  23  27
BRANCH  24  29
HETATM   29  O   UNL     1      41.099 -10.572  12.487  1.00  0.00    -0.353 OA
HETATM   30  C   UNL     1      40.220 -11.603  12.910  1.00  0.00     0.210 C 
ENDBRANCH  24  29
ENDBRANCH   1  21
TORSDOF 8
ENDMDL
MODEL 2
REMARK VINA RESULT:      -8.3      3.007      9.810
REMARK  8 active torsions:
REMARK  status: ('A' for Active; 'I' for Inactive)
REMARK    1  A    between atoms: O_2  and  C_3 
REMARK    2  A    between atoms: C_4  and  O_5 
REMARK    3  A    between atoms: C_8  and  C_9 
REMARK    4  A    between atoms: C_14  and  C_15 
REMARK    5  A    between atoms: N_16  and  N_17 
REMARK       I    between atoms: N_17  and  C_18 
REMARK    6  A    between atoms: C_18  and  C_19 
REMARK    7  A    between atoms: C_19  and  C_20 
REMARK    8  A    between atoms: C_20  and  C_21 
ROOT
HETATM    1  C   UNL     1      41.087 -16.412   2.905  1.00  0.00     0.100 A 
HETATM    2  N   UNL     1      39.918 -16.581   2.261  1.00  0.00    -0.174 NA
HETATM    3  N   UNL     1      39.237 -15.452   2.485  1.00  0.00    -0.288 N 
HETATM    4  H   UNL     1      38.306 -15.366   2.091  1.00  0.00     0.188 HD
HETATM    5  C   UNL     1      39.918 -14.547   3.233  1.00  0.00     0.124 A 
HETATM    6  C   UNL     1      41.143 -15.118   3.518  1.00  0.00     0.031 A 
ENDROOT
BRANCH   6   7
HETATM    7  C   UNL     1      42.213 -14.493   4.266  1.00  0.00     0.154 C 
HETATM    8  N   UNL     1      42.082 -14.379   5.551  1.00  0.00    -0.184 NA
BRANCH   8   9
HETATM    9  N   UNL     1      43.090 -13.791   6.274  1.00  0.00    -0.247 N 
HETATM   10  C   UNL     1      44.115 -14.455   6.934  1.00  0.00     0.237 C 
HETATM   11  O   UNL     1      44.261 -15.673   6.996  1.00  0.00    -0.272 OA
HETATM   12  H   UNL     1      43.222 -12.809   6.052  1.00  0.00     0.192 HD
BRANCH  10  13
HETATM   13  C   UNL     1      45.096 -13.511   7.603  1.00  0.00     0.105 C 
BRANCH  13  14
HETATM   14  C   UNL     1      44.440 -12.651   8.684  1.00  0.00     0.014 C 
BRANCH  14  15
HETATM   15  C   UNL     1      45.387 -12.140   9.795  1.00  0.00    -0.014 C 
HETATM   16  C   UNL     1      45.395 -10.609   9.950  1.00  0.00     0.004 C 
HETATM   17  C   UNL     1      44.092 -10.061  10.530  1.00  0.00     0.000 C 
HETATM   18  C   UNL     1      43.744 -10.729  11.857  1.00  0.00     0.000 C 
HETATM   19  C   UNL     1      43.735 -12.251  11.749  1.00  0.00     0.000 C 
HETATM   20  C   UNL     1      45.035 -12.786  11.149  1.00  0.00     0.004 C 
ENDBRANCH  14  15
ENDBRANCH  13  14
ENDBRANCH  10  13
ENDBRANCH   8   9
ENDBRANCH   6   7
BRANCH   1  21
HETATM   21  C   UNL     1      42.078 -17.495   2.907  1.00  0.00    -0.002 A 
HETATM   22  C   UNL     1      42.507 -18.045   4.125  1.00  0.00     0.053 A 
HETATM   23  C   UNL     1      43.473 -19.059   4.161  1.00  0.00     0.102 A 
HETATM   24  C   UNL     1      44.014 -19.547   2.956  1.00  0.00     0.101 A 
HETATM   25  C   UNL     1      43.598 -18.993   1.743  1.00  0.00     0.040 A 
HETATM   26  C   UNL     1      42.645 -17.968   1.719  1.00  0.00     0.017 A 
BRANCH  23  27
HETATM   27  O   UNL     1      43.942 -19.638   5.315  1.00  0.00    -0.353 OA
HETATM   28  C   UNL     1      43.587 -19.022   6.544  1.00  0.00     0.210 C 
ENDBRANCH  23  27
BRANCH  24  29
HETATM   29  O   UNL     1      44.949 -20.546   3.074  1.00  0.00    -0.353 OA
HETATM   30  C   UNL     1      44.602 -21.836   2.593  1.00  0.00     0.210 C 
ENDBRANCH  24  29
ENDBRANCH   1  21
TORSDOF 8
ENDMDL
MODEL 3
REMARK VINA RESULT:      -7.9      4.934      8.372
REMARK  8 active torsions:
REMARK  status: ('A' for Active; 'I' for Inactive)
REMARK    1  A    between atoms: O_2  and  C_3 
REMARK    2  A    between atoms: C_4  and  O_5 
REMARK    3  A    between atoms: C_8  and  C_9 
REMARK    4  A    between atoms: C_14  and  C_15 
REMARK    5  A    between atoms: N_16  and  N_17 
REMARK       I    between atoms: N_17  and  C_18 
REMARK    6  A    between atoms: C_18  and  C_19 
REMARK    7  A    between atoms: C_19  and  C_20 
REMARK    8  A    between atoms: C_20  and  C_21 
ROOT
HETATM    1  C   UNL     1      44.074 -19.873   3.661  1.00  0.00     0.100 A 
HETATM    2  N   UNL     1      44.667 -21.056   3.908  1.00  0.00    -0.174 NA
HETATM    3  N   UNL     1      44.472 -21.774   2.798  1.00  0.00    -0.288 N 
HETATM    4  H   UNL     1      44.835 -22.721   2.769  1.00  0.00     0.188 HD
HETATM    5  C   UNL     1      43.793 -21.107   1.831  1.00  0.00     0.124 A 
HETATM    6  C   UNL     1      43.526 -19.850   2.338  1.00  0.00     0.031 A 
ENDROOT
BRANCH   6   7
HETATM    7  C   UNL     1      42.847 -18.782   1.636  1.00  0.00     0.154 C 
HETATM    8  N   UNL     1      43.554 -17.791   1.189  1.00  0.00    -0.184 NA
BRANCH   8   9
HETATM    9  N   UNL     1      42.923 -16.772   0.519  1.00  0.00    -0.247 N 
HETATM   10  C   UNL     1      42.139 -15.780   1.094  1.00  0.00     0.237 C 
HETATM   11  O   UNL     1      41.867 -15.679   2.287  1.00  0.00    -0.272 OA
HETATM   12  H   UNL     1      43.308 -16.601  -0.405  1.00  0.00     0.192 HD
BRANCH  10  13
HETATM   13  C   UNL     1      41.623 -14.775   0.081  1.00  0.00     0.105 C 
BRANCH  13  14
HETATM   14  C   UNL     1      41.057 -15.441  -1.173  1.00  0.00     0.014 C 
BRANCH  14  15
HETATM   15  C   UNL     1      40.829 -14.504  -2.381  1.00  0.00    -0.014 C 
HETATM   16  C   UNL     1      40.557 -15.245  -3.702  1.00  0.00     0.004 C 
HETATM   17  C   UNL     1      39.197 -15.939  -3.728  1.00  0.00     0.000 C 
HETATM   18  C   UNL     1      38.064 -14.964  -3.422  1.00  0.00     0.000 C 
HETATM   19  C   UNL     1      38.299 -14.199  -2.123  1.00  0.00     0.000 C 
HETATM   20  C   UNL     1      39.670 -13.526  -2.100  1.00  0.00     0.004 C 
ENDBRANCH  14  15
ENDBRANCH  13  14
ENDBRANCH  10  13
ENDBRANCH   8   9
ENDBRANCH   6   7
BRANCH   1  21
HETATM   21  C   UNL     1      44.057 -18.839   4.703  1.00  0.00    -0.002 A 
HETATM   22  C   UNL     1      42.968 -17.957   4.792  1.00  0.00     0.053 A 
HETATM   23  C   UNL     1      42.937 -16.940   5.756  1.00  0.00     0.102 A 
HETATM   24  C   UNL     1      44.007 -16.808   6.662  1.00  0.00     0.101 A 
HETATM   25  C   UNL     1      45.098 -17.676   6.567  1.00  0.00     0.040 A 
HETATM   26  C   UNL     1      45.128 -18.677   5.589  1.00  0.00     0.017 A 
BRANCH  23  27
HETATM   27  O   UNL     1      41.909 -16.041   5.897  1.00  0.00    -0.353 OA
HETATM   28  C   UNL     1      40.638 -16.558   6.265  1.00  0.00     0.210 C 
ENDBRANCH  23  27
BRANCH  24  29
HETATM   29  O   UNL     1      43.899 -15.794   7.581  1.00  0.00    -0.353 OA
HETATM   30  C   UNL     1      44.507 -14.550   7.267  1.00  0.00     0.210 C 
ENDBRANCH  24  29
ENDBRANCH   1  21
TORSDOF 8
ENDMDL
MODEL 4
REMARK VINA RESULT:      -7.9      4.939      8.500
REMARK  8 active torsions:
REMARK  status: ('A' for Active; 'I' for Inactive)
REMARK    1  A    between atoms: O_2  and  C_3 
REMARK    2  A    between atoms: C_4  and  O_5 
REMARK    3  A    between atoms: C_8  and  C_9 
REMARK    4  A    between atoms: C_14  and  C_15 
REMARK    5  A    between atoms: N_16  and  N_17 
REMARK       I    between atoms: N_17  and  C_18 
REMARK    6  A    between atoms: C_18  and  C_19 
REMARK    7  A    between atoms: C_19  and  C_20 
REMARK    8  A    between atoms: C_20  and  C_21 
ROOT
HETATM    1  C   UNL     1      43.839 -18.423   6.850  1.00  0.00     0.100 A 
HETATM    2  N   UNL     1      44.268 -18.963   8.006  1.00  0.00    -0.174 NA
HETATM    3  N   UNL     1      43.920 -18.079   8.947  1.00  0.00    -0.288 N 
HETATM    4  H   UNL     1      44.160 -18.285   9.911  1.00  0.00     0.188 HD
HETATM    5  C   UNL     1      43.268 -16.994   8.458  1.00  0.00     0.124 A 
HETATM    6  C   UNL     1      43.172 -17.179   7.092  1.00  0.00     0.031 A 
ENDROOT
BRANCH   6   7
HETATM    7  C   UNL     1      42.518 -16.283   6.162  1.00  0.00     0.154 C 
HETATM    8  N   UNL     1      43.073 -15.137   5.917  1.00  0.00    -0.184 NA
BRANCH   8   9
HETATM    9  N   UNL     1      42.465 -14.278   5.035  1.00  0.00    -0.247 N 
HETATM   10  C   UNL     1      43.086 -13.609   3.989  1.00  0.00     0.237 C 
HETATM   11  O   UNL     1      44.281 -13.661   3.709  1.00  0.00    -0.272 OA
HETATM   12  H   UNL     1      41.456 -14.386   5.001  1.00  0.00     0.192 HD
BRANCH  10  13
HETATM   13  C   UNL     1      42.123 -12.768   3.171  1.00  0.00     0.105 C 
BRANCH  13  14
HETATM   14  C   UNL     1      41.968 -13.277   1.739  1.00  0.00     0.014 C 
BRANCH  14  15
HETATM   15  C   UNL     1      40.569 -13.825   1.373  1.00  0.00    -0.014 C 
HETATM   16  C   UNL     1      40.511 -14.522   0.003  1.00  0.00     0.004 C 
HETATM   17  C   UNL     1      41.260 -15.854  -0.021  1.00  0.00     0.000 C 
HETATM   18  C   UNL     1      40.767 -16.794   1.075  1.00  0.00     0.000 C 
HETATM   19  C   UNL     1      40.798 -16.137   2.452  1.00  0.00     0.000 C 
HETATM   20  C   UNL     1      40.064 -14.796   2.459  1.00  0.00     0.004 C 
ENDBRANCH  14  15
ENDBRANCH  13  14
ENDBRANCH  10  13
ENDBRANCH   8   9
ENDBRANCH   6   7
BRANCH   1  21
HETATM   21  C   UNL     1      44.099 -19.119   5.584  1.00  0.00    -0.002 A 
HETATM   22  C   UNL     1      43.777 -18.496   4.368  1.00  0.00     0.053 A 
HETATM   23  C   UNL     1      43.984 -19.147   3.145  1.00  0.00     0.102 A 
HETATM   24  C   UNL     1      44.540 -20.440   3.130  1.00  0.00     0.101 A 
HETATM   25  C   UNL     1      44.850 -21.068   4.340  1.00  0.00     0.040 A 
HETATM   26  C   UNL     1      44.622 -20.416   5.558  1.00  0.00     0.017 A 
BRANCH  23  27
HETATM   27  O   UNL     1      43.688 -18.601   1.920  1.00  0.00    -0.353 OA
HETATM   28  C   UNL     1      44.310 -17.367   1.589  1.00  0.00     0.210 C 
ENDBRANCH  23  27
BRANCH  24  29
HETATM   29  O   UNL     1      44.721 -21.007   1.893  1.00  0.00    -0.353 OA
HETATM   30  C   UNL     1      43.870 -22.084   1.529  1.00  0.00     0.210 C 
ENDBRANCH  24  29
ENDBRANCH   1  21
TORSDOF 8
ENDMDL
MODEL 5
REMARK VINA RESULT:      -7.8      2.630      9.503
REMARK  8 active torsions:
REMARK  status: ('A' for Active; 'I' for Inactive)
REMARK    1  A    between atoms: O_2  and  C_3 
REMARK    2  A    between atoms: C_4  and  O_5 
REMARK    3  A    between atoms: C_8  and  C_9 
REMARK    4  A    between atoms: C_14  and  C_15 
REMARK    5  A    between atoms: N_16  and  N_17 
REMARK       I    between atoms: N_17  and  C_18 
REMARK    6  A    between atoms: C_18  and  C_19 
REMARK    7  A    between atoms: C_19  and  C_20 
REMARK    8  A    between atoms: C_20  and  C_21 
ROOT
HETATM    1  C   UNL     1      43.399 -15.707   4.466  1.00  0.00     0.100 A 
HETATM    2  N   UNL     1      43.085 -15.355   3.205  1.00  0.00    -0.174 NA
HETATM    3  N   UNL     1      42.932 -14.027   3.248  1.00  0.00    -0.288 N 
HETATM    4  H   UNL     1      42.679 -13.546   2.392  1.00  0.00     0.188 HD
HETATM    5  C   UNL     1      43.149 -13.495   4.477  1.00  0.00     0.124 A 
HETATM    6  C   UNL     1      43.477 -14.550   5.307  1.00  0.00     0.031 A 
ENDROOT
BRANCH   6   7
HETATM    7  C   UNL     1      43.825 -14.446   6.709  1.00  0.00     0.154 C 
HETATM    8  N   UNL     1      44.039 -13.267   7.205  1.00  0.00    -0.184 NA
BRANCH   8   9
HETATM    9  N   UNL     1      44.368 -13.154   8.533  1.00  0.00    -0.247 N 
HETATM   10  C   UNL     1      45.243 -12.225   9.080  1.00  0.00     0.237 C 
HETATM   11  O   UNL     1      45.878 -11.380   8.455  1.00  0.00    -0.272 OA
HETATM   12  H   UNL     1      43.699 -13.602   9.152  1.00  0.00     0.192 HD
BRANCH  10  13
HETATM   13  C   UNL     1      45.354 -12.336  10.589  1.00  0.00     0.105 C 
BRANCH  13  14
HETATM   14  C   UNL     1      44.007 -12.177  11.292  1.00  0.00     0.014 C 
BRANCH  14  15
HETATM   15  C   UNL     1      43.345 -10.786  11.158  1.00  0.00    -0.014 C 
HETATM   16  C   UNL     1      41.825 -10.840  10.921  1.00  0.00     0.004 C 
HETATM   17  C   UNL     1      41.046 -11.314  12.147  1.00  0.00     0.000 C 
HETATM   18  C   UNL     1      41.364 -10.467  13.375  1.00  0.00     0.000 C 
HETATM   19  C   UNL     1      42.864 -10.379  13.641  1.00  0.00     0.000 C 
HETATM   20  C   UNL     1      43.634  -9.923  12.402  1.00  0.00     0.004 C 
ENDBRANCH  14  15
ENDBRANCH  13  14
ENDBRANCH  10  13
ENDBRANCH   8   9
ENDBRANCH   6   7
BRANCH   1  21
HETATM   21  C   UNL     1      43.596 -17.123   4.797  1.00  0.00    -0.002 A 
HETATM   22  C   UNL     1      43.505 -17.547   6.132  1.00  0.00     0.053 A 
HETATM   23  C   UNL     1      43.719 -18.886   6.482  1.00  0.00     0.102 A 
HETATM   24  C   UNL     1      44.014 -19.829   5.479  1.00  0.00     0.101 A 
HETATM   25  C   UNL     1      44.117 -19.408   4.150  1.00  0.00     0.040 A 
HETATM   26  C   UNL     1      43.920 -18.064   3.813  1.00  0.00     0.017 A 
BRANCH  23  27
HETATM   27  O   UNL     1      43.651 -19.369   7.766  1.00  0.00    -0.353 OA
HETATM   28  C   UNL     1      44.380 -18.669   8.765  1.00  0.00     0.210 C 
ENDBRANCH  23  27
BRANCH  24  29
HETATM   29  O   UNL     1      44.201 -21.122   5.901  1.00  0.00    -0.353 OA
HETATM   30  C   UNL     1      44.900 -22.004   5.036  1.00  0.00     0.210 C 
ENDBRANCH  24  29
ENDBRANCH   1  21
TORSDOF 8
ENDMDL
MODEL 6
REMARK VINA RESULT:      -7.7      2.610      9.457
REMARK  8 active torsions:
REMARK  status: ('A' for Active; 'I' for Inactive)
REMARK    1  A    between atoms: O_2  and  C_3 
REMARK    2  A    between atoms: C_4  and  O_5 
REMARK    3  A    between atoms: C_8  and  C_9 
REMARK    4  A    between atoms: C_14  and  C_15 
REMARK    5  A    between atoms: N_16  and  N_17 
REMARK       I    between atoms: N_17  and  C_18 
REMARK    6  A    between atoms: C_18  and  C_19 
REMARK    7  A    between atoms: C_19  and  C_20 
REMARK    8  A    between atoms: C_20  and  C_21 
ROOT
HETATM    1  C   UNL     1      43.287 -15.284   4.525  1.00  0.00     0.100 A 
HETATM    2  N   UNL     1      43.110 -15.048   3.212  1.00  0.00    -0.174 NA
HETATM    3  N   UNL     1      42.859 -13.737   3.130  1.00  0.00    -0.288 N 
HETATM    4  H   UNL     1      42.683 -13.339   2.214  1.00  0.00     0.188 HD
HETATM    5  C   UNL     1      42.882 -13.104   4.330  1.00  0.00     0.124 A 
HETATM    6  C   UNL     1      43.177 -14.068   5.274  1.00  0.00     0.031 A 
ENDROOT
BRANCH   6   7
HETATM    7  C   UNL     1      43.338 -13.838   6.695  1.00  0.00     0.154 C 
HETATM    8  N   UNL     1      44.423 -13.261   7.106  1.00  0.00    -0.184 NA
BRANCH   8   9
HETATM    9  N   UNL     1      44.588 -13.035   8.450  1.00  0.00    -0.247 N 
HETATM   10  C   UNL     1      45.414 -12.075   9.021  1.00  0.00     0.237 C 
HETATM   11  O   UNL     1      46.144 -11.299   8.410  1.00  0.00    -0.272 OA
HETATM   12  H   UNL     1      43.836 -13.416   9.017  1.00  0.00     0.192 HD
BRANCH  10  13
HETATM   13  C   UNL     1      45.335 -12.053  10.536  1.00  0.00     0.105 C 
BRANCH  13  14
HETATM   14  C   UNL     1      43.901 -12.168  11.052  1.00  0.00     0.014 C 
BRANCH  14  15
HETATM   15  C   UNL     1      43.023 -10.908  10.869  1.00  0.00    -0.014 C 
HETATM   16  C   UNL     1      41.557 -11.104  11.293  1.00  0.00     0.004 C 
HETATM   17  C   UNL     1      41.387 -11.247  12.805  1.00  0.00     0.000 C 
HETATM   18  C   UNL     1      42.005 -10.070  13.553  1.00  0.00     0.000 C 
HETATM   19  C   UNL     1      43.459  -9.835  13.153  1.00  0.00     0.000 C 
HETATM   20  C   UNL     1      43.619  -9.713  11.638  1.00  0.00     0.004 C 
ENDBRANCH  14  15
ENDBRANCH  13  14
ENDBRANCH  10  13
ENDBRANCH   8   9
ENDBRANCH   6   7
BRANCH   1  21
HETATM   21  C   UNL     1      43.541 -16.653   4.988  1.00  0.00    -0.002 A 
HETATM   22  C   UNL     1      43.801 -17.668   4.055  1.00  0.00     0.053 A 
HETATM   23  C   UNL     1      44.016 -18.991   4.465  1.00  0.00     0.102 A 
HETATM   24  C   UNL     1      43.988 -19.307   5.837  1.00  0.00     0.101 A 
HETATM   25  C   UNL     1      43.717 -18.300   6.768  1.00  0.00     0.040 A 
HETATM   26  C   UNL     1      43.485 -16.986   6.346  1.00  0.00     0.017 A 
BRANCH  23  27
HETATM   27  O   UNL     1      44.270 -20.034   3.608  1.00  0.00    -0.353 OA
HETATM   28  C   UNL     1      43.656 -19.989   2.328  1.00  0.00     0.210 C 
ENDBRANCH  23  27
BRANCH  24  29
HETATM   29  O   UNL     1      44.217 -20.622   6.159  1.00  0.00    -0.353 OA
HETATM   30  C   UNL     1      43.557 -21.147   7.301  1.00  0.00     0.210 C 
ENDBRANCH  24  29
ENDBRANCH   1  21
TORSDOF 8
ENDMDL
MODEL 7
REMARK VINA RESULT:      -7.6      6.615     10.230
REMARK  8 active torsions:
REMARK  status: ('A' for Active; 'I' for Inactive)
REMARK    1  A    between atoms: O_2  and  C_3 
REMARK    2  A    between atoms: C_4  and  O_5 
REMARK    3  A    between atoms: C_8  and  C_9 
REMARK    4  A    between atoms: C_14  and  C_15 
REMARK    5  A    between atoms: N_16  and  N_17 
REMARK       I    between atoms: N_17  and  C_18 
REMARK    6  A    between atoms: C_18  and  C_19 
REMARK    7  A    between atoms: C_19  and  C_20 
REMARK    8  A    between atoms: C_20  and  C_21 
ROOT
HETATM    1  C   UNL     1      41.213 -16.371   3.522  1.00  0.00     0.100 A 
HETATM    2  N   UNL     1      40.694 -16.205   4.752  1.00  0.00    -0.174 NA
HETATM    3  N   UNL     1      39.937 -15.106   4.658  1.00  0.00    -0.288 N 
HETATM    4  H   UNL     1      39.450 -14.787   5.488  1.00  0.00     0.188 HD
HETATM    5  C   UNL     1      39.927 -14.559   3.417  1.00  0.00     0.124 A 
HETATM    6  C   UNL     1      40.731 -15.360   2.630  1.00  0.00     0.031 A 
ENDROOT
BRANCH   6   7
HETATM    7  C   UNL     1      40.985 -15.174   1.217  1.00  0.00     0.154 C 
HETATM    8  N   UNL     1      40.003 -14.797   0.459  1.00  0.00    -0.184 NA
BRANCH   8   9
HETATM    9  N   UNL     1      40.230 -14.615  -0.883  1.00  0.00    -0.247 N 
HETATM   10  C   UNL     1      39.317 -14.120  -1.805  1.00  0.00     0.237 C 
HETATM   11  O   UNL     1      38.157 -13.796  -1.566  1.00  0.00    -0.272 OA
HETATM   12  H   UNL     1      41.216 -14.581  -1.123  1.00  0.00     0.192 HD
BRANCH  10  13
HETATM   13  C   UNL     1      39.895 -14.000  -3.203  1.00  0.00     0.105 C 
BRANCH  13  14
HETATM   14  C   UNL     1      40.415 -12.596  -3.505  1.00  0.00     0.014 C 
BRANCH  14  15
HETATM   15  C   UNL     1      41.924 -12.498  -3.827  1.00  0.00    -0.014 C 
HETATM   16  C   UNL     1      42.356 -11.127  -4.378  1.00  0.00     0.004 C 
HETATM   17  C   UNL     1      42.303 -10.018  -3.328  1.00  0.00     0.000 C 
HETATM   18  C   UNL     1      43.122 -10.377  -2.092  1.00  0.00     0.000 C 
HETATM   19  C   UNL     1      42.732 -11.736  -1.518  1.00  0.00     0.000 C 
HETATM   20  C   UNL     1      42.769 -12.833  -2.582  1.00  0.00     0.004 C 
ENDBRANCH  14  15
ENDBRANCH  13  14
ENDBRANCH  10  13
ENDBRANCH   8   9
ENDBRANCH   6   7
BRANCH   1  21
HETATM   21  C   UNL     1      42.146 -17.477   3.272  1.00  0.00    -0.002 A 
HETATM   22  C   UNL     1      43.019 -17.896   4.288  1.00  0.00     0.053 A 
HETATM   23  C   UNL     1      43.941 -18.928   4.070  1.00  0.00     0.102 A 
HETATM   24  C   UNL     1      43.984 -19.569   2.817  1.00  0.00     0.101 A 
HETATM   25  C   UNL     1      43.125 -19.145   1.799  1.00  0.00     0.040 A 
HETATM   26  C   UNL     1      42.220 -18.101   2.022  1.00  0.00     0.017 A 
BRANCH  23  27
HETATM   27  O   UNL     1      44.827 -19.385   5.015  1.00  0.00    -0.353 OA
HETATM   28  C   UNL     1      45.149 -18.508   6.084  1.00  0.00     0.210 C 
ENDBRANCH  23  27
BRANCH  24  29
HETATM   29  O   UNL     1      44.909 -20.576   2.684  1.00  0.00    -0.353 OA
HETATM   30  C   UNL     1      44.429 -21.877   2.383  1.00  0.00     0.210 C 
ENDBRANCH  24  29
ENDBRANCH   1  21
TORSDOF 8
ENDMDL
MODEL 8
REMARK VINA RESULT:      -7.6      5.347      9.369
REMARK  8 active torsions:
REMARK  status: ('A' for Active; 'I' for Inactive)
REMARK    1  A    between atoms: O_2  and  C_3 
REMARK    2  A    between atoms: C_4  and  O_5 
REMARK    3  A    between atoms: C_8  and  C_9 
REMARK    4  A    between atoms: C_14  and  C_15 
REMARK    5  A    between atoms: N_16  and  N_17 
REMARK       I    between atoms: N_17  and  C_18 
REMARK    6  A    between atoms: C_18  and  C_19 
REMARK    7  A    between atoms: C_19  and  C_20 
REMARK    8  A    between atoms: C_20  and  C_21 
ROOT
HETATM    1  C   UNL     1      43.407 -16.321   5.097  1.00  0.00     0.100 A 
HETATM    2  N   UNL     1      43.425 -16.192   6.437  1.00  0.00    -0.174 NA
HETATM    3  N   UNL     1      43.154 -14.901   6.659  1.00  0.00    -0.288 N 
HETATM    4  H   UNL     1      43.127 -14.575   7.619  1.00  0.00     0.188 HD
HETATM    5  C   UNL     1      42.944 -14.187   5.525  1.00  0.00     0.124 A 
HETATM    6  C   UNL     1      43.078 -15.074   4.474  1.00  0.00     0.031 A 
ENDROOT
BRANCH   6   7
HETATM    7  C   UNL     1      42.902 -14.757   3.073  1.00  0.00     0.154 C 
HETATM    8  N   UNL     1      41.727 -14.917   2.547  1.00  0.00    -0.184 NA
BRANCH   8   9
HETATM    9  N   UNL     1      41.546 -14.618   1.220  1.00  0.00    -0.247 N 
HETATM   10  C   UNL     1      41.543 -15.529   0.171  1.00  0.00     0.237 C 
HETATM   11  O   UNL     1      41.732 -16.738   0.269  1.00  0.00    -0.272 OA
HETATM   12  H   UNL     1      41.108 -13.714   1.068  1.00  0.00     0.192 HD
BRANCH  10  13
HETATM   13  C   UNL     1      41.271 -14.881  -1.173  1.00  0.00     0.105 C 
BRANCH  13  14
HETATM   14  C   UNL     1      40.482 -15.790  -2.115  1.00  0.00     0.014 C 
BRANCH  14  15
HETATM   15  C   UNL     1      40.250 -15.234  -3.539  1.00  0.00    -0.014 C 
HETATM   16  C   UNL     1      39.038 -15.852  -4.259  1.00  0.00     0.004 C 
HETATM   17  C   UNL     1      37.702 -15.420  -3.656  1.00  0.00     0.000 C 
HETATM   18  C   UNL     1      37.575 -13.901  -3.606  1.00  0.00     0.000 C 
HETATM   19  C   UNL     1      38.763 -13.246  -2.908  1.00  0.00     0.000 C 
HETATM   20  C   UNL     1      40.094 -13.701  -3.506  1.00  0.00     0.004 C 
ENDBRANCH  14  15
ENDBRANCH  13  14
ENDBRANCH  10  13
ENDBRANCH   8   9
ENDBRANCH   6   7
BRANCH   1  21
HETATM   21  C   UNL     1      43.712 -17.622   4.490  1.00  0.00    -0.002 A 
HETATM   22  C   UNL     1      43.955 -18.735   5.310  1.00  0.00     0.053 A 
HETATM   23  C   UNL     1      44.280 -19.982   4.761  1.00  0.00     0.102 A 
HETATM   24  C   UNL     1      44.349 -20.129   3.362  1.00  0.00     0.101 A 
HETATM   25  C   UNL     1      44.121 -19.020   2.543  1.00  0.00     0.040 A 
HETATM   26  C   UNL     1      43.815 -17.774   3.103  1.00  0.00     0.017 A 
BRANCH  23  27
HETATM   27  O   UNL     1      44.534 -21.110   5.502  1.00  0.00    -0.353 OA
HETATM   28  C   UNL     1      43.861 -21.237   6.746  1.00  0.00     0.210 C 
ENDBRANCH  23  27
BRANCH  24  29
HETATM   29  O   UNL     1      44.664 -21.384   2.901  1.00  0.00    -0.353 OA
HETATM   30  C   UNL     1      44.014 -21.837   1.724  1.00  0.00     0.210 C 
ENDBRANCH  24  29
ENDBRANCH   1  21
TORSDOF 8
ENDMDL
MODEL 9
REMARK VINA RESULT:      -7.5      4.896      8.123
REMARK  8 active torsions:
REMARK  status: ('A' for Active; 'I' for Inactive)
REMARK    1  A    between atoms: O_2  and  C_3 
REMARK    2  A    between atoms: C_4  and  O_5 
REMARK    3  A    between atoms: C_8  and  C_9 
REMARK    4  A    between atoms: C_14  and  C_15 
REMARK    5  A    between atoms: N_16  and  N_17 
REMARK       I    between atoms: N_17  and  C_18 
REMARK    6  A    between atoms: C_18  and  C_19 
REMARK    7  A    between atoms: C_19  and  C_20 
REMARK    8  A    between atoms: C_20  and  C_21 
ROOT
HETATM    1  C   UNL     1      43.830 -18.987   4.263  1.00  0.00     0.100 A 
HETATM    2  N   UNL     1      44.558 -19.756   5.094  1.00  0.00    -0.174 NA
HETATM    3  N   UNL     1      45.146 -20.656   4.299  1.00  0.00    -0.288 N 
HETATM    4  H   UNL     1      45.745 -21.354   4.726  1.00  0.00     0.188 HD
HETATM    5  C   UNL     1      44.847 -20.499   2.985  1.00  0.00     0.124 A 
HETATM    6  C   UNL     1      44.004 -19.408   2.904  1.00  0.00     0.031 A 
ENDROOT
BRANCH   6   7
HETATM    7  C   UNL     1      43.457 -18.850   1.685  1.00  0.00     0.154 C 
HETATM    8  N   UNL     1      43.335 -17.562   1.597  1.00  0.00    -0.184 NA
BRANCH   8   9
HETATM    9  N   UNL     1      42.820 -17.020   0.446  1.00  0.00    -0.247 N 
HETATM   10  C   UNL     1      41.664 -16.257   0.350  1.00  0.00     0.237 C 
HETATM   11  O   UNL     1      40.909 -15.974   1.277  1.00  0.00    -0.272 OA
HETATM   12  H   UNL     1      43.500 -16.953  -0.305  1.00  0.00     0.192 HD
BRANCH  10  13
HETATM   13  C   UNL     1      41.394 -15.769  -1.061  1.00  0.00     0.105 C 
BRANCH  13  14
HETATM   14  C   UNL     1      40.302 -14.701  -1.116  1.00  0.00     0.014 C 
BRANCH  14  15
HETATM   15  C   UNL     1      40.138 -13.983  -2.476  1.00  0.00    -0.014 C 
HETATM   16  C   UNL     1      40.381 -14.893  -3.693  1.00  0.00     0.004 C 
HETATM   17  C   UNL     1      39.283 -15.938  -3.885  1.00  0.00     0.000 C 
HETATM   18  C   UNL     1      37.903 -15.293  -3.969  1.00  0.00     0.000 C 
HETATM   19  C   UNL     1      37.625 -14.373  -2.784  1.00  0.00     0.000 C 
HETATM   20  C   UNL     1      38.740 -13.346  -2.589  1.00  0.00     0.004 C 
ENDBRANCH  14  15
ENDBRANCH  13  14
ENDBRANCH  10  13
ENDBRANCH   8   9
ENDBRANCH   6   7
BRANCH   1  21
HETATM   21  C   UNL     1      43.005 -17.905   4.812  1.00  0.00    -0.002 A 
HETATM   22  C   UNL     1      43.607 -16.702   5.211  1.00  0.00     0.053 A 
HETATM   23  C   UNL     1      42.851 -15.662   5.768  1.00  0.00     0.102 A 
HETATM   24  C   UNL     1      41.459 -15.817   5.916  1.00  0.00     0.101 A 
HETATM   25  C   UNL     1      40.858 -17.019   5.531  1.00  0.00     0.040 A 
HETATM   26  C   UNL     1      41.626 -18.058   4.993  1.00  0.00     0.017 A 
BRANCH  23  27
HETATM   27  O   UNL     1      43.374 -14.463   6.184  1.00  0.00    -0.353 OA
HETATM   28  C   UNL     1      44.461 -14.508   7.098  1.00  0.00     0.210 C 
ENDBRANCH  23  27
BRANCH  24  29
HETATM   29  O   UNL     1      40.787 -14.751   6.461  1.00  0.00    -0.353 OA
HETATM   30  C   UNL     1      39.918 -14.016   5.613  1.00  0.00     0.210 C 
ENDBRANCH  24  29
ENDBRANCH   1  21
TORSDOF 8
ENDMDL
MODEL 10
REMARK VINA RESULT:      -7.4      5.968      9.452
REMARK  8 active torsions:
REMARK  status: ('A' for Active; 'I' for Inactive)
REMARK    1  A    between atoms: O_2  and  C_3 
REMARK    2  A    between atoms: C_4  and  O_5 
REMARK    3  A    between atoms: C_8  and  C_9 
REMARK    4  A    between atoms: C_14  and  C_15 
REMARK    5  A    between atoms: N_16  and  N_17 
REMARK       I    between atoms: N_17  and  C_18 
REMARK    6  A    between atoms: C_18  and  C_19 
REMARK    7  A    between atoms: C_19  and  C_20 
REMARK    8  A    between atoms: C_20  and  C_21 
ROOT
HETATM    1  C   UNL     1      41.411 -16.831   4.671  1.00  0.00     0.100 A 
HETATM    2  N   UNL     1      40.903 -17.019   5.903  1.00  0.00    -0.174 NA
HETATM    3  N   UNL     1      40.205 -15.907   6.159  1.00  0.00    -0.288 N 
HETATM    4  H   UNL     1      39.737 -15.830   7.056  1.00  0.00     0.188 HD
HETATM    5  C   UNL     1      40.222 -15.009   5.142  1.00  0.00     0.124 A 
HETATM    6  C   UNL     1      40.982 -15.573   4.135  1.00  0.00     0.031 A 
ENDROOT
BRANCH   6   7
HETATM    7  C   UNL     1      41.242 -14.981   2.840  1.00  0.00     0.154 C 
HETATM    8  N   UNL     1      42.033 -13.955   2.779  1.00  0.00    -0.184 NA
BRANCH   8   9
HETATM    9  N   UNL     1      42.291 -13.385   1.558  1.00  0.00    -0.247 N 
HETATM   10  C   UNL     1      41.624 -12.298   1.007  1.00  0.00     0.237 C 
HETATM   11  O   UNL     1      40.683 -11.697   1.518  1.00  0.00    -0.272 OA
HETATM   12  H   UNL     1      43.210 -13.615   1.193  1.00  0.00     0.192 HD
BRANCH  10  13
HETATM   13  C   UNL     1      42.182 -11.884  -0.341  1.00  0.00     0.105 C 
BRANCH  13  14
HETATM   14  C   UNL     1      41.755 -12.825  -1.468  1.00  0.00     0.014 C 
BRANCH  14  15
HETATM   15  C   UNL     1      40.577 -13.770  -1.137  1.00  0.00    -0.014 C 
HETATM   16  C   UNL     1      39.280 -13.437  -1.897  1.00  0.00     0.004 C 
HETATM   17  C   UNL     1      39.369 -13.744  -3.392  1.00  0.00     0.000 C 
HETATM   18  C   UNL     1      39.778 -15.192  -3.644  1.00  0.00     0.000 C 
HETATM   19  C   UNL     1      41.056 -15.567  -2.899  1.00  0.00     0.000 C 
HETATM   20  C   UNL     1      40.963 -15.237  -1.410  1.00  0.00     0.004 C 
ENDBRANCH  14  15
ENDBRANCH  13  14
ENDBRANCH  10  13
ENDBRANCH   8   9
ENDBRANCH   6   7
BRANCH   1  21
HETATM   21  C   UNL     1      42.282 -17.854   4.081  1.00  0.00    -0.002 A 
HETATM   22  C   UNL     1      43.166 -18.573   4.900  1.00  0.00     0.053 A 
HETATM   23  C   UNL     1      44.032 -19.535   4.362  1.00  0.00     0.102 A 
HETATM   24  C   UNL     1      44.006 -19.797   2.979  1.00  0.00     0.101 A 
HETATM   25  C   UNL     1      43.136 -19.073   2.159  1.00  0.00     0.040 A 
HETATM   26  C   UNL     1      42.288 -18.102   2.704  1.00  0.00     0.017 A 
BRANCH  23  27
HETATM   27  O   UNL     1      44.924 -20.271   5.102  1.00  0.00    -0.353 OA
HETATM   28  C   UNL     1      44.401 -21.339   5.879  1.00  0.00     0.210 C 
ENDBRANCH  23  27
BRANCH  24  29
HETATM   29  O   UNL     1      44.878 -20.758   2.530  1.00  0.00    -0.353 OA
HETATM   30  C   UNL     1      44.329 -21.899   1.887  1.00  0.00     0.210 C 
ENDBRANCH  24  29
ENDBRANCH   1  21
TORSDOF 8
ENDMDL
