MODEL 1
REMARK VINA RESULT:      -9.4      0.000      0.000
REMARK  9 active torsions:
REMARK  status: ('A' for Active; 'I' for Inactive)
REMARK    1  A    between atoms: N_2  and  C_4 
REMARK    2  A    between atoms: C_4  and  C_5 
REMARK    3  A    between atoms: N_6  and  C_7 
REMARK    4  A    between atoms: C_11  and  N_12 
REMARK    5  A    between atoms: C_15  and  C_16 
REMARK       I    between atoms: C_16  and  N_17 
REMARK    6  A    between atoms: N_17  and  N_18 
REMARK    7  A    between atoms: C_19  and  C_20 
REMARK    8  A    between atoms: C_21  and  C_22 
REMARK    9  A    between atoms: N_29  and  C_30 
ROOT
HETATM    1  C   UNL     1      44.808 -13.234   8.027  1.00  0.00     0.293 C 
HETATM    2  N   UNL     1      43.797 -14.120   7.705  1.00  0.00    -0.242 N 
HETATM    3  O   UNL     1      45.836 -13.044   7.383  1.00  0.00    -0.264 OA
HETATM    4  H   UNL     1      42.992 -14.223   8.320  1.00  0.00     0.192 HD
ENDROOT
BRANCH   2   5
HETATM    5  N   UNL     1      43.911 -14.888   6.583  1.00  0.00    -0.183 NA
HETATM    6  C   UNL     1      43.029 -15.826   6.444  1.00  0.00     0.154 C 
BRANCH   6   7
HETATM    7  C   UNL     1      43.101 -16.680   5.284  1.00  0.00     0.032 A 
HETATM    8  C   UNL     1      42.763 -16.389   3.934  1.00  0.00     0.101 A 
HETATM    9  N   UNL     1      43.027 -17.435   3.139  1.00  0.00    -0.166 NA
HETATM   10  N   UNL     1      43.479 -18.418   3.955  1.00  0.00    -0.244 N 
HETATM   11  C   UNL     1      43.534 -17.990   5.260  1.00  0.00     0.134 A 
BRANCH   8  12
HETATM   12  C   UNL     1      42.187 -15.165   3.378  1.00  0.00    -0.005 A 
HETATM   13  C   UNL     1      40.797 -14.983   3.371  1.00  0.00     0.014 A 
HETATM   14  C   UNL     1      40.239 -13.815   2.849  1.00  0.00     0.001 A 
HETATM   15  C   UNL     1      41.063 -12.816   2.334  1.00  0.00     0.000 A 
HETATM   16  C   UNL     1      42.447 -12.979   2.349  1.00  0.00     0.001 A 
HETATM   17  C   UNL     1      43.008 -14.146   2.874  1.00  0.00     0.014 A 
ENDBRANCH   8  12
BRANCH  10  18
HETATM   18  C   UNL     1      43.833 -19.695   3.435  1.00  0.00     0.058 A 
HETATM   19  C   UNL     1      44.552 -20.591   4.241  1.00  0.00     0.031 A 
HETATM   20  C   UNL     1      44.912 -21.848   3.750  1.00  0.00     0.002 A 
HETATM   21  C   UNL     1      44.558 -22.219   2.454  1.00  0.00     0.000 A 
HETATM   22  C   UNL     1      43.843 -21.335   1.648  1.00  0.00     0.002 A 
HETATM   23  C   UNL     1      43.480 -20.074   2.132  1.00  0.00     0.031 A 
ENDBRANCH  10  18
ENDBRANCH   6   7
ENDBRANCH   2   5
BRANCH   1  24
HETATM   24  C   UNL     1      44.575 -12.498   9.262  1.00  0.00     0.170 A 
HETATM   25  C   UNL     1      43.657 -11.477   9.463  1.00  0.00     0.096 A 
HETATM   26  N   UNL     1      43.771 -11.173  10.817  1.00  0.00    -0.215 N 
HETATM   27  N   UNL     1      44.795 -11.898  11.340  1.00  0.00     0.012 NA
HETATM   28  N   UNL     1      45.267 -12.718  10.416  1.00  0.00    -0.152 NA
BRANCH  25  29
HETATM   29  C   UNL     1      42.808 -10.754   8.486  1.00  0.00     0.295 C 
BRANCH  29  30
HETATM   30  N   UNL     1      41.497 -11.421   8.154  1.00  0.00    -0.073 N 
HETATM   31  C   UNL     1      41.255 -11.568   6.676  1.00  0.00     0.269 C 
HETATM   32  H   UNL     1      41.523 -12.360   8.576  1.00  0.00     0.279 HD
HETATM   33  C   UNL     1      40.346 -10.708   8.812  1.00  0.00     0.269 C 
ENDBRANCH  29  30
ENDBRANCH  25  29
BRANCH  26  34
HETATM   34  C   UNL     1      42.967 -10.313  11.601  1.00  0.00     0.225 A 
HETATM   35  N   UNL     1      43.282  -9.019  11.707  1.00  0.00    -0.081 NA
HETATM   36  O   UNL     1      42.271  -8.500  12.523  1.00  0.00    -0.103 OA
HETATM   37  N   UNL     1      41.351  -9.479  12.865  1.00  0.00    -0.083 NA
HETATM   38  C   UNL     1      41.779 -10.604  12.292  1.00  0.00     0.201 A 
BRANCH  38  39
HETATM   39  N   UNL     1      41.159 -11.790  12.386  1.00  0.00    -0.379 N 
HETATM   40  H   UNL     1      40.213 -11.901  12.032  1.00  0.00     0.158 HD
HETATM   41  H   UNL     1      41.634 -12.662  12.609  1.00  0.00     0.158 HD
ENDBRANCH  38  39
ENDBRANCH  26  34
ENDBRANCH   1  24
TORSDOF 9
ENDMDL
MODEL 2
REMARK VINA RESULT:      -8.9      1.999      3.198
REMARK  9 active torsions:
REMARK  status: ('A' for Active; 'I' for Inactive)
REMARK    1  A    between atoms: N_2  and  C_4 
REMARK    2  A    between atoms: C_4  and  C_5 
REMARK    3  A    between atoms: N_6  and  C_7 
REMARK    4  A    between atoms: C_11  and  N_12 
REMARK    5  A    between atoms: C_15  and  C_16 
REMARK       I    between atoms: C_16  and  N_17 
REMARK    6  A    between atoms: N_17  and  N_18 
REMARK    7  A    between atoms: C_19  and  C_20 
REMARK    8  A    between atoms: C_21  and  C_22 
REMARK    9  A    between atoms: N_29  and  C_30 
ROOT
HETATM    1  C   UNL     1      41.050 -12.118   6.201  1.00  0.00     0.293 C 
HETATM    2  N   UNL     1      40.768 -13.472   6.216  1.00  0.00    -0.242 N 
HETATM    3  O   UNL     1      41.743 -11.532   5.374  1.00  0.00    -0.264 OA
HETATM    4  H   UNL     1      40.200 -13.867   6.963  1.00  0.00     0.192 HD
ENDROOT
BRANCH   2   5
HETATM    5  N   UNL     1      41.296 -14.277   5.250  1.00  0.00    -0.183 NA
HETATM    6  C   UNL     1      40.864 -15.498   5.229  1.00  0.00     0.154 C 
BRANCH   6   7
HETATM    7  C   UNL     1      41.392 -16.403   4.238  1.00  0.00     0.032 A 
HETATM    8  C   UNL     1      41.293 -16.339   2.821  1.00  0.00     0.101 A 
HETATM    9  N   UNL     1      41.969 -17.344   2.249  1.00  0.00    -0.166 NA
HETATM   10  N   UNL     1      42.461 -18.090   3.267  1.00  0.00    -0.244 N 
HETATM   11  C   UNL     1      42.126 -17.546   4.484  1.00  0.00     0.134 A 
BRANCH   8  12
HETATM   12  C   UNL     1      40.569 -15.370   1.997  1.00  0.00    -0.005 A 
HETATM   13  C   UNL     1      41.274 -14.500   1.154  1.00  0.00     0.014 A 
HETATM   14  C   UNL     1      40.591 -13.577   0.359  1.00  0.00     0.001 A 
HETATM   15  C   UNL     1      39.198 -13.520   0.395  1.00  0.00     0.000 A 
HETATM   16  C   UNL     1      38.487 -14.391   1.217  1.00  0.00     0.001 A 
HETATM   17  C   UNL     1      39.168 -15.317   2.011  1.00  0.00     0.014 A 
ENDBRANCH   8  12
BRANCH  10  18
HETATM   18  C   UNL     1      43.220 -19.266   3.012  1.00  0.00     0.058 A 
HETATM   19  C   UNL     1      44.232 -19.641   3.909  1.00  0.00     0.031 A 
HETATM   20  C   UNL     1      44.991 -20.790   3.676  1.00  0.00     0.002 A 
HETATM   21  C   UNL     1      44.745 -21.573   2.550  1.00  0.00     0.000 A 
HETATM   22  C   UNL     1      43.740 -21.209   1.655  1.00  0.00     0.002 A 
HETATM   23  C   UNL     1      42.977 -20.059   1.880  1.00  0.00     0.031 A 
ENDBRANCH  10  18
ENDBRANCH   6   7
ENDBRANCH   2   5
BRANCH   1  24
HETATM   24  C   UNL     1      40.448 -11.379   7.302  1.00  0.00     0.170 A 
HETATM   25  C   UNL     1      41.114 -10.678   8.297  1.00  0.00     0.096 A 
HETATM   26  N   UNL     1      40.095 -10.091   9.045  1.00  0.00    -0.215 N 
HETATM   27  N   UNL     1      38.900 -10.537   8.576  1.00  0.00     0.012 NA
HETATM   28  N   UNL     1      39.103 -11.292   7.509  1.00  0.00    -0.152 NA
BRANCH  25  29
HETATM   29  C   UNL     1      42.560 -10.620   8.618  1.00  0.00     0.295 C 
BRANCH  29  30
HETATM   30  N   UNL     1      43.064 -11.721   9.517  1.00  0.00    -0.073 N 
HETATM   31  C   UNL     1      43.089 -11.344  10.973  1.00  0.00     0.269 C 
HETATM   32  H   UNL     1      42.429 -12.522   9.396  1.00  0.00     0.279 HD
HETATM   33  C   UNL     1      44.419 -12.204   9.070  1.00  0.00     0.269 C 
ENDBRANCH  29  30
ENDBRANCH  25  29
BRANCH  26  34
HETATM   34  C   UNL     1      40.200  -9.143  10.090  1.00  0.00     0.225 A 
HETATM   35  N   UNL     1      40.701  -7.930   9.840  1.00  0.00    -0.081 NA
HETATM   36  O   UNL     1      40.628  -7.283  11.079  1.00  0.00    -0.103 OA
HETATM   37  N   UNL     1      40.057  -8.103  12.040  1.00  0.00    -0.083 NA
HETATM   38  C   UNL     1      39.788  -9.257  11.428  1.00  0.00     0.201 A 
BRANCH  38  39
HETATM   39  N   UNL     1      39.225 -10.321  12.021  1.00  0.00    -0.379 N 
HETATM   40  H   UNL     1      38.460 -10.194  12.677  1.00  0.00     0.158 HD
HETATM   41  H   UNL     1      39.370 -11.282  11.717  1.00  0.00     0.158 HD
ENDBRANCH  38  39
ENDBRANCH  26  34
ENDBRANCH   1  24
TORSDOF 9
ENDMDL
MODEL 3
REMARK VINA RESULT:      -8.4      2.642      5.164
REMARK  9 active torsions:
REMARK  status: ('A' for Active; 'I' for Inactive)
REMARK    1  A    between atoms: N_2  and  C_4 
REMARK    2  A    between atoms: C_4  and  C_5 
REMARK    3  A    between atoms: N_6  and  C_7 
REMARK    4  A    between atoms: C_11  and  N_12 
REMARK    5  A    between atoms: C_15  and  C_16 
REMARK       I    between atoms: C_16  and  N_17 
REMARK    6  A    between atoms: N_17  and  N_18 
REMARK    7  A    between atoms: C_19  and  C_20 
REMARK    8  A    between atoms: C_21  and  C_22 
REMARK    9  A    between atoms: N_29  and  C_30 
ROOT
HETATM    1  C   UNL     1      41.023 -11.502   6.371  1.00  0.00     0.293 C 
HETATM    2  N   UNL     1      41.009 -12.827   5.975  1.00  0.00    -0.242 N 
HETATM    3  O   UNL     1      41.369 -10.545   5.683  1.00  0.00    -0.264 OA
HETATM    4  H   UNL     1      40.728 -13.554   6.630  1.00  0.00     0.192 HD
ENDROOT
BRANCH   2   5
HETATM    5  N   UNL     1      41.420 -13.155   4.716  1.00  0.00    -0.183 NA
HETATM    6  C   UNL     1      40.964 -14.269   4.241  1.00  0.00     0.154 C 
BRANCH   6   7
HETATM    7  C   UNL     1      41.370 -14.678   2.919  1.00  0.00     0.032 A 
HETATM    8  C   UNL     1      42.157 -15.795   2.527  1.00  0.00     0.101 A 
HETATM    9  N   UNL     1      42.264 -15.860   1.193  1.00  0.00    -0.166 NA
HETATM   10  N   UNL     1      41.607 -14.778   0.713  1.00  0.00    -0.244 N 
HETATM   11  C   UNL     1      41.056 -14.041   1.735  1.00  0.00     0.134 A 
BRANCH   8  12
HETATM   12  C   UNL     1      42.821 -16.788   3.372  1.00  0.00    -0.005 A 
HETATM   13  C   UNL     1      43.039 -18.087   2.892  1.00  0.00     0.014 A 
HETATM   14  C   UNL     1      43.678 -19.038   3.688  1.00  0.00     0.001 A 
HETATM   15  C   UNL     1      44.110 -18.700   4.970  1.00  0.00     0.000 A 
HETATM   16  C   UNL     1      43.914 -17.408   5.452  1.00  0.00     0.001 A 
HETATM   17  C   UNL     1      43.277 -16.453   4.656  1.00  0.00     0.014 A 
ENDBRANCH   8  12
BRANCH  10  18
HETATM   18  C   UNL     1      41.543 -14.521  -0.686  1.00  0.00     0.058 A 
HETATM   19  C   UNL     1      41.009 -15.497  -1.541  1.00  0.00     0.031 A 
HETATM   20  C   UNL     1      40.940 -15.267  -2.917  1.00  0.00     0.002 A 
HETATM   21  C   UNL     1      41.401 -14.065  -3.448  1.00  0.00     0.000 A 
HETATM   22  C   UNL     1      41.931 -13.089  -2.605  1.00  0.00     0.002 A 
HETATM   23  C   UNL     1      42.005 -13.313  -1.226  1.00  0.00     0.031 A 
ENDBRANCH  10  18
ENDBRANCH   6   7
ENDBRANCH   2   5
BRANCH   1  24
HETATM   24  C   UNL     1      40.588 -11.293   7.744  1.00  0.00     0.170 A 
HETATM   25  C   UNL     1      41.384 -10.952   8.828  1.00  0.00     0.096 A 
HETATM   26  N   UNL     1      40.485 -10.794   9.880  1.00  0.00    -0.215 N 
HETATM   27  N   UNL     1      39.246 -11.151   9.449  1.00  0.00     0.012 NA
HETATM   28  N   UNL     1      39.295 -11.427   8.157  1.00  0.00    -0.152 NA
BRANCH  25  29
HETATM   29  C   UNL     1      42.860 -10.872   8.938  1.00  0.00     0.295 C 
BRANCH  29  30
HETATM   30  N   UNL     1      43.533 -12.109   9.478  1.00  0.00    -0.073 N 
HETATM   31  C   UNL     1      43.952 -11.985  10.918  1.00  0.00     0.269 C 
HETATM   32  H   UNL     1      42.854 -12.879   9.399  1.00  0.00     0.279 HD
HETATM   33  C   UNL     1      44.703 -12.506   8.617  1.00  0.00     0.269 C 
ENDBRANCH  29  30
ENDBRANCH  25  29
BRANCH  26  34
HETATM   34  C   UNL     1      40.727 -10.301  11.183  1.00  0.00     0.225 A 
HETATM   35  N   UNL     1      41.256  -9.084  11.347  1.00  0.00    -0.081 NA
HETATM   36  O   UNL     1      41.326  -8.941  12.737  1.00  0.00    -0.103 OA
HETATM   37  N   UNL     1      40.811 -10.055  13.383  1.00  0.00    -0.083 NA
HETATM   38  C   UNL     1      40.436 -10.898  12.421  1.00  0.00     0.201 A 
BRANCH  38  39
HETATM   39  N   UNL     1      39.885 -12.102  12.636  1.00  0.00    -0.379 N 
HETATM   40  H   UNL     1      39.247 -12.240  13.415  1.00  0.00     0.158 HD
HETATM   41  H   UNL     1      39.896 -12.861  11.957  1.00  0.00     0.158 HD
ENDBRANCH  38  39
ENDBRANCH  26  34
ENDBRANCH   1  24
TORSDOF 9
ENDMDL
MODEL 4
REMARK VINA RESULT:      -8.3      4.813     10.481
REMARK  9 active torsions:
REMARK  status: ('A' for Active; 'I' for Inactive)
REMARK    1  A    between atoms: N_2  and  C_4 
REMARK    2  A    between atoms: C_4  and  C_5 
REMARK    3  A    between atoms: N_6  and  C_7 
REMARK    4  A    between atoms: C_11  and  N_12 
REMARK    5  A    between atoms: C_15  and  C_16 
REMARK       I    between atoms: C_16  and  N_17 
REMARK    6  A    between atoms: N_17  and  N_18 
REMARK    7  A    between atoms: C_19  and  C_20 
REMARK    8  A    between atoms: C_21  and  C_22 
REMARK    9  A    between atoms: N_29  and  C_30 
ROOT
HETATM    1  C   UNL     1      41.865 -13.587   1.102  1.00  0.00     0.293 C 
HETATM    2  N   UNL     1      41.850 -14.504   2.137  1.00  0.00    -0.242 N 
HETATM    3  O   UNL     1      42.333 -12.453   1.147  1.00  0.00    -0.264 OA
HETATM    4  H   UNL     1      41.414 -15.415   2.007  1.00  0.00     0.192 HD
ENDROOT
BRANCH   2   5
HETATM    5  N   UNL     1      42.382 -14.160   3.346  1.00  0.00    -0.183 NA
HETATM    6  C   UNL     1      42.805 -15.138   4.080  1.00  0.00     0.154 C 
BRANCH   6   7
HETATM    7  C   UNL     1      43.369 -14.842   5.373  1.00  0.00     0.032 A 
HETATM    8  C   UNL     1      43.890 -15.732   6.351  1.00  0.00     0.101 A 
HETATM    9  N   UNL     1      44.375 -15.058   7.402  1.00  0.00    -0.166 NA
HETATM   10  N   UNL     1      44.131 -13.750   7.151  1.00  0.00    -0.244 N 
HETATM   11  C   UNL     1      43.520 -13.587   5.930  1.00  0.00     0.134 A 
BRANCH   8  12
HETATM   12  C   UNL     1      43.928 -17.195   6.329  1.00  0.00    -0.005 A 
HETATM   13  C   UNL     1      44.287 -17.871   5.154  1.00  0.00     0.014 A 
HETATM   14  C   UNL     1      44.333 -19.265   5.126  1.00  0.00     0.001 A 
HETATM   15  C   UNL     1      44.026 -19.998   6.271  1.00  0.00     0.000 A 
HETATM   16  C   UNL     1      43.684 -19.337   7.450  1.00  0.00     0.001 A 
HETATM   17  C   UNL     1      43.640 -17.941   7.481  1.00  0.00     0.014 A 
ENDBRANCH   8  12
BRANCH  10  18
HETATM   18  C   UNL     1      44.500 -12.744   8.087  1.00  0.00     0.058 A 
HETATM   19  C   UNL     1      45.857 -12.543   8.383  1.00  0.00     0.031 A 
HETATM   20  C   UNL     1      46.241 -11.563   9.301  1.00  0.00     0.002 A 
HETATM   21  C   UNL     1      45.277 -10.777   9.928  1.00  0.00     0.000 A 
HETATM   22  C   UNL     1      43.927 -10.969   9.638  1.00  0.00     0.002 A 
HETATM   23  C   UNL     1      43.534 -11.949   8.721  1.00  0.00     0.031 A 
ENDBRANCH  10  18
ENDBRANCH   6   7
ENDBRANCH   2   5
BRANCH   1  24
HETATM   24  C   UNL     1      41.242 -14.071  -0.122  1.00  0.00     0.170 A 
HETATM   25  C   UNL     1      39.898 -13.990  -0.461  1.00  0.00     0.096 A 
HETATM   26  N   UNL     1      39.837 -14.514  -1.749  1.00  0.00    -0.215 N 
HETATM   27  N   UNL     1      41.065 -14.989  -2.085  1.00  0.00     0.012 NA
HETATM   28  N   UNL     1      41.923 -14.701  -1.120  1.00  0.00    -0.152 NA
BRANCH  25  29
HETATM   29  C   UNL     1      38.734 -13.567   0.353  1.00  0.00     0.295 C 
BRANCH  29  30
HETATM   30  N   UNL     1      38.163 -12.215   0.007  1.00  0.00    -0.073 N 
HETATM   31  C   UNL     1      39.096 -11.073   0.306  1.00  0.00     0.269 C 
HETATM   32  H   UNL     1      37.968 -12.222  -1.005  1.00  0.00     0.279 HD
HETATM   33  C   UNL     1      36.832 -12.003   0.677  1.00  0.00     0.269 C 
ENDBRANCH  29  30
ENDBRANCH  25  29
BRANCH  26  34
HETATM   34  C   UNL     1      38.740 -14.537  -2.642  1.00  0.00     0.225 A 
HETATM   35  N   UNL     1      37.959 -13.460  -2.767  1.00  0.00    -0.081 NA
HETATM   36  O   UNL     1      37.020 -13.843  -3.730  1.00  0.00    -0.103 OA
HETATM   37  N   UNL     1      37.269 -15.127  -4.190  1.00  0.00    -0.083 NA
HETATM   38  C   UNL     1      38.337 -15.559  -3.519  1.00  0.00     0.201 A 
BRANCH  38  39
HETATM   39  N   UNL     1      38.899 -16.767  -3.676  1.00  0.00    -0.379 N 
HETATM   40  H   UNL     1      38.623 -17.362  -4.453  1.00  0.00     0.158 HD
HETATM   41  H   UNL     1      39.739 -17.070  -3.188  1.00  0.00     0.158 HD
ENDBRANCH  38  39
ENDBRANCH  26  34
ENDBRANCH   1  24
TORSDOF 9
ENDMDL
MODEL 5
REMARK VINA RESULT:      -8.2      4.402     10.444
REMARK  9 active torsions:
REMARK  status: ('A' for Active; 'I' for Inactive)
REMARK    1  A    between atoms: N_2  and  C_4 
REMARK    2  A    between atoms: C_4  and  C_5 
REMARK    3  A    between atoms: N_6  and  C_7 
REMARK    4  A    between atoms: C_11  and  N_12 
REMARK    5  A    between atoms: C_15  and  C_16 
REMARK       I    between atoms: C_16  and  N_17 
REMARK    6  A    between atoms: N_17  and  N_18 
REMARK    7  A    between atoms: C_19  and  C_20 
REMARK    8  A    between atoms: C_21  and  C_22 
REMARK    9  A    between atoms: N_29  and  C_30 
ROOT
HETATM    1  C   UNL     1      41.839 -12.823   1.812  1.00  0.00     0.293 C 
HETATM    2  N   UNL     1      42.858 -13.496   2.459  1.00  0.00    -0.242 N 
HETATM    3  O   UNL     1      41.094 -11.985   2.312  1.00  0.00    -0.264 OA
HETATM    4  H   UNL     1      43.407 -14.194   1.961  1.00  0.00     0.192 HD
ENDROOT
BRANCH   2   5
HETATM    5  N   UNL     1      43.091 -13.251   3.781  1.00  0.00    -0.183 NA
HETATM    6  C   UNL     1      43.529 -14.251   4.477  1.00  0.00     0.154 C 
BRANCH   6   7
HETATM    7  C   UNL     1      43.784 -14.059   5.883  1.00  0.00     0.032 A 
HETATM    8  C   UNL     1      44.055 -15.030   6.886  1.00  0.00     0.101 A 
HETATM    9  N   UNL     1      44.294 -14.443   8.067  1.00  0.00    -0.166 NA
HETATM   10  N   UNL     1      44.132 -13.114   7.862  1.00  0.00    -0.244 N 
HETATM   11  C   UNL     1      43.820 -12.851   6.549  1.00  0.00     0.134 A 
BRANCH   8  12
HETATM   12  C   UNL     1      44.078 -16.488   6.767  1.00  0.00    -0.005 A 
HETATM   13  C   UNL     1      42.958 -17.242   7.142  1.00  0.00     0.014 A 
HETATM   14  C   UNL     1      42.969 -18.633   7.025  1.00  0.00     0.001 A 
HETATM   15  C   UNL     1      44.098 -19.283   6.527  1.00  0.00     0.000 A 
HETATM   16  C   UNL     1      45.212 -18.543   6.136  1.00  0.00     0.001 A 
HETATM   17  C   UNL     1      45.201 -17.151   6.250  1.00  0.00     0.014 A 
ENDBRANCH   8  12
BRANCH  10  18
HETATM   18  C   UNL     1      44.289 -12.185   8.929  1.00  0.00     0.058 A 
HETATM   19  C   UNL     1      43.244 -11.297   9.228  1.00  0.00     0.031 A 
HETATM   20  C   UNL     1      43.378 -10.375  10.268  1.00  0.00     0.002 A 
HETATM   21  C   UNL     1      44.552 -10.334  11.018  1.00  0.00     0.000 A 
HETATM   22  C   UNL     1      45.593 -11.214  10.729  1.00  0.00     0.002 A 
HETATM   23  C   UNL     1      45.467 -12.139   9.687  1.00  0.00     0.031 A 
ENDBRANCH  10  18
ENDBRANCH   6   7
ENDBRANCH   2   5
BRANCH   1  24
HETATM   24  C   UNL     1      41.680 -13.197   0.414  1.00  0.00     0.170 A 
HETATM   25  C   UNL     1      40.770 -14.106  -0.107  1.00  0.00     0.096 A 
HETATM   26  N   UNL     1      40.969 -14.042  -1.484  1.00  0.00    -0.215 N 
HETATM   27  N   UNL     1      42.029 -13.228  -1.732  1.00  0.00     0.012 NA
HETATM   28  N   UNL     1      42.446 -12.695  -0.596  1.00  0.00    -0.152 NA
BRANCH  25  29
HETATM   29  C   UNL     1      39.856 -15.043   0.588  1.00  0.00     0.295 C 
BRANCH  29  30
HETATM   30  N   UNL     1      40.486 -16.332   1.053  1.00  0.00    -0.073 N 
HETATM   31  C   UNL     1      40.734 -16.378   2.536  1.00  0.00     0.269 C 
HETATM   32  H   UNL     1      39.835 -17.091   0.806  1.00  0.00     0.279 HD
HETATM   33  C   UNL     1      41.753 -16.618   0.293  1.00  0.00     0.269 C 
ENDBRANCH  29  30
ENDBRANCH  25  29
BRANCH  26  34
HETATM   34  C   UNL     1      40.210 -14.643  -2.515  1.00  0.00     0.225 A 
HETATM   35  N   UNL     1      40.774 -15.557  -3.311  1.00  0.00    -0.081 NA
HETATM   36  O   UNL     1      39.736 -15.929  -4.171  1.00  0.00    -0.103 OA
HETATM   37  N   UNL     1      38.562 -15.259  -3.860  1.00  0.00    -0.083 NA
HETATM   38  C   UNL     1      38.853 -14.463  -2.832  1.00  0.00     0.201 A 
BRANCH  38  39
HETATM   39  N   UNL     1      37.978 -13.642  -2.232  1.00  0.00    -0.379 N 
HETATM   40  H   UNL     1      37.200 -14.025  -1.702  1.00  0.00     0.158 HD
HETATM   41  H   UNL     1      38.137 -12.647  -2.092  1.00  0.00     0.158 HD
ENDBRANCH  38  39
ENDBRANCH  26  34
ENDBRANCH   1  24
TORSDOF 9
ENDMDL
MODEL 6
REMARK VINA RESULT:      -8.1      5.908      9.735
REMARK  9 active torsions:
REMARK  status: ('A' for Active; 'I' for Inactive)
REMARK    1  A    between atoms: N_2  and  C_4 
REMARK    2  A    between atoms: C_4  and  C_5 
REMARK    3  A    between atoms: N_6  and  C_7 
REMARK    4  A    between atoms: C_11  and  N_12 
REMARK    5  A    between atoms: C_15  and  C_16 
REMARK       I    between atoms: C_16  and  N_17 
REMARK    6  A    between atoms: N_17  and  N_18 
REMARK    7  A    between atoms: C_19  and  C_20 
REMARK    8  A    between atoms: C_21  and  C_22 
REMARK    9  A    between atoms: N_29  and  C_30 
ROOT
HETATM    1  C   UNL     1      40.589 -14.664  -0.538  1.00  0.00     0.293 C 
HETATM    2  N   UNL     1      41.477 -15.706  -0.734  1.00  0.00    -0.242 N 
HETATM    3  O   UNL     1      39.971 -14.425   0.495  1.00  0.00    -0.264 OA
HETATM    4  H   UNL     1      41.923 -15.835  -1.640  1.00  0.00     0.192 HD
ENDROOT
BRANCH   2   5
HETATM    5  N   UNL     1      41.712 -16.586   0.282  1.00  0.00    -0.183 NA
HETATM    6  C   UNL     1      42.735 -16.328   1.032  1.00  0.00     0.154 C 
BRANCH   6   7
HETATM    7  C   UNL     1      43.043 -17.227   2.117  1.00  0.00     0.032 A 
HETATM    8  C   UNL     1      42.915 -17.020   3.517  1.00  0.00     0.101 A 
HETATM    9  N   UNL     1      43.255 -18.124   4.197  1.00  0.00    -0.166 NA
HETATM   10  N   UNL     1      43.652 -19.026   3.268  1.00  0.00    -0.244 N 
HETATM   11  C   UNL     1      43.537 -18.511   1.998  1.00  0.00     0.134 A 
BRANCH   8  12
HETATM   12  C   UNL     1      42.499 -15.812   4.230  1.00  0.00    -0.005 A 
HETATM   13  C   UNL     1      41.228 -15.745   4.818  1.00  0.00     0.014 A 
HETATM   14  C   UNL     1      40.825 -14.599   5.505  1.00  0.00     0.001 A 
HETATM   15  C   UNL     1      41.690 -13.511   5.616  1.00  0.00     0.000 A 
HETATM   16  C   UNL     1      42.962 -13.572   5.050  1.00  0.00     0.001 A 
HETATM   17  C   UNL     1      43.368 -14.719   4.364  1.00  0.00     0.014 A 
ENDBRANCH   8  12
BRANCH  10  18
HETATM   18  C   UNL     1      44.109 -20.318   3.651  1.00  0.00     0.058 A 
HETATM   19  C   UNL     1      44.411 -20.570   4.999  1.00  0.00     0.031 A 
HETATM   20  C   UNL     1      44.863 -21.830   5.396  1.00  0.00     0.002 A 
HETATM   21  C   UNL     1      45.016 -22.846   4.456  1.00  0.00     0.000 A 
HETATM   22  C   UNL     1      44.716 -22.605   3.116  1.00  0.00     0.002 A 
HETATM   23  C   UNL     1      44.264 -21.345   2.709  1.00  0.00     0.031 A 
ENDBRANCH  10  18
ENDBRANCH   6   7
ENDBRANCH   2   5
BRANCH   1  24
HETATM   24  C   UNL     1      40.409 -13.816  -1.708  1.00  0.00     0.170 A 
HETATM   25  C   UNL     1      41.228 -12.773  -2.116  1.00  0.00     0.096 A 
HETATM   26  N   UNL     1      40.670 -12.348  -3.320  1.00  0.00    -0.215 N 
HETATM   27  N   UNL     1      39.514 -13.032  -3.528  1.00  0.00     0.012 NA
HETATM   28  N   UNL     1      39.363 -13.936  -2.575  1.00  0.00    -0.152 NA
BRANCH  25  29
HETATM   29  C   UNL     1      42.373 -12.134  -1.425  1.00  0.00     0.295 C 
BRANCH  29  30
HETATM   30  N   UNL     1      42.190 -10.675  -1.091  1.00  0.00    -0.073 N 
HETATM   31  C   UNL     1      43.484  -9.914  -0.997  1.00  0.00     0.269 C 
HETATM   32  H   UNL     1      41.622 -10.264  -1.846  1.00  0.00     0.279 HD
HETATM   33  C   UNL     1      41.381 -10.506   0.167  1.00  0.00     0.269 C 
ENDBRANCH  29  30
ENDBRANCH  25  29
BRANCH  26  34
HETATM   34  C   UNL     1      41.182 -11.413  -4.250  1.00  0.00     0.225 A 
HETATM   35  N   UNL     1      42.501 -11.213  -4.335  1.00  0.00    -0.081 NA
HETATM   36  O   UNL     1      42.623 -10.260  -5.352  1.00  0.00    -0.103 OA
HETATM   37  N   UNL     1      41.385  -9.928  -5.880  1.00  0.00    -0.083 NA
HETATM   38  C   UNL     1      40.490 -10.645  -5.200  1.00  0.00     0.201 A 
BRANCH  38  39
HETATM   39  N   UNL     1      39.166 -10.608  -5.411  1.00  0.00    -0.379 N 
HETATM   40  H   UNL     1      38.627 -11.470  -5.426  1.00  0.00     0.158 HD
HETATM   41  H   UNL     1      38.606  -9.759  -5.363  1.00  0.00     0.158 HD
ENDBRANCH  38  39
ENDBRANCH  26  34
ENDBRANCH   1  24
TORSDOF 9
ENDMDL
MODEL 7
REMARK VINA RESULT:      -8.1      6.611     10.836
REMARK  9 active torsions:
REMARK  status: ('A' for Active; 'I' for Inactive)
REMARK    1  A    between atoms: N_2  and  C_4 
REMARK    2  A    between atoms: C_4  and  C_5 
REMARK    3  A    between atoms: N_6  and  C_7 
REMARK    4  A    between atoms: C_11  and  N_12 
REMARK    5  A    between atoms: C_15  and  C_16 
REMARK       I    between atoms: C_16  and  N_17 
REMARK    6  A    between atoms: N_17  and  N_18 
REMARK    7  A    between atoms: C_19  and  C_20 
REMARK    8  A    between atoms: C_21  and  C_22 
REMARK    9  A    between atoms: N_29  and  C_30 
ROOT
HETATM    1  C   UNL     1      39.457 -13.182  -0.483  1.00  0.00     0.293 C 
HETATM    2  N   UNL     1      39.376 -14.458   0.044  1.00  0.00    -0.242 N 
HETATM    3  O   UNL     1      40.303 -12.337  -0.205  1.00  0.00    -0.264 OA
HETATM    4  H   UNL     1      38.617 -15.079  -0.234  1.00  0.00     0.192 HD
ENDROOT
BRANCH   2   5
HETATM    5  N   UNL     1      40.292 -14.861   0.972  1.00  0.00    -0.183 NA
HETATM    6  C   UNL     1      39.906 -15.790   1.786  1.00  0.00     0.154 C 
BRANCH   6   7
HETATM    7  C   UNL     1      40.824 -16.251   2.797  1.00  0.00     0.032 A 
HETATM    8  C   UNL     1      41.226 -15.614   4.003  1.00  0.00     0.101 A 
HETATM    9  N   UNL     1      42.056 -16.397   4.704  1.00  0.00    -0.166 NA
HETATM   10  N   UNL     1      42.244 -17.508   3.953  1.00  0.00    -0.244 N 
HETATM   11  C   UNL     1      41.512 -17.448   2.791  1.00  0.00     0.134 A 
BRANCH   8  12
HETATM   12  C   UNL     1      40.863 -14.287   4.501  1.00  0.00    -0.005 A 
HETATM   13  C   UNL     1      41.551 -13.153   4.048  1.00  0.00     0.014 A 
HETATM   14  C   UNL     1      41.207 -11.883   4.514  1.00  0.00     0.001 A 
HETATM   15  C   UNL     1      40.168 -11.733   5.432  1.00  0.00     0.000 A 
HETATM   16  C   UNL     1      39.466 -12.851   5.877  1.00  0.00     0.001 A 
HETATM   17  C   UNL     1      39.807 -14.123   5.411  1.00  0.00     0.014 A 
ENDBRANCH   8  12
BRANCH  10  18
HETATM   18  C   UNL     1      43.104 -18.553   4.394  1.00  0.00     0.058 A 
HETATM   19  C   UNL     1      43.860 -19.267   3.452  1.00  0.00     0.031 A 
HETATM   20  C   UNL     1      44.707 -20.298   3.863  1.00  0.00     0.002 A 
HETATM   21  C   UNL     1      44.807 -20.623   5.215  1.00  0.00     0.000 A 
HETATM   22  C   UNL     1      44.061 -19.917   6.157  1.00  0.00     0.002 A 
HETATM   23  C   UNL     1      43.209 -18.884   5.753  1.00  0.00     0.031 A 
ENDBRANCH  10  18
ENDBRANCH   6   7
ENDBRANCH   2   5
BRANCH   1  24
HETATM   24  C   UNL     1      38.404 -12.872  -1.439  1.00  0.00     0.170 A 
HETATM   25  C   UNL     1      38.307 -13.325  -2.747  1.00  0.00     0.096 A 
HETATM   26  N   UNL     1      37.093 -12.814  -3.199  1.00  0.00    -0.215 N 
HETATM   27  N   UNL     1      36.578 -12.003  -2.238  1.00  0.00     0.012 NA
HETATM   28  N   UNL     1      37.349 -12.053  -1.165  1.00  0.00    -0.152 NA
BRANCH  25  29
HETATM   29  C   UNL     1      39.283 -14.078  -3.570  1.00  0.00     0.295 C 
BRANCH  29  30
HETATM   30  N   UNL     1      39.441 -15.534  -3.209  1.00  0.00    -0.073 N 
HETATM   31  C   UNL     1      40.852 -15.915  -2.853  1.00  0.00     0.269 C 
HETATM   32  H   UNL     1      38.838 -15.708  -2.393  1.00  0.00     0.279 HD
HETATM   33  C   UNL     1      38.911 -16.421  -4.304  1.00  0.00     0.269 C 
ENDBRANCH  29  30
ENDBRANCH  25  29
BRANCH  26  34
HETATM   34  C   UNL     1      36.415 -13.086  -4.411  1.00  0.00     0.225 A 
HETATM   35  N   UNL     1      36.101 -14.345  -4.730  1.00  0.00    -0.081 NA
HETATM   36  O   UNL     1      35.438 -14.218  -5.955  1.00  0.00    -0.103 OA
HETATM   37  N   UNL     1      35.337 -12.889  -6.335  1.00  0.00    -0.083 NA
HETATM   38  C   UNL     1      35.939 -12.185  -5.378  1.00  0.00     0.201 A 
BRANCH  38  39
HETATM   39  N   UNL     1      36.056 -10.848  -5.374  1.00  0.00    -0.379 N 
HETATM   40  H   UNL     1      36.296 -10.359  -4.516  1.00  0.00     0.158 HD
HETATM   41  H   UNL     1      36.120 -10.281  -6.217  1.00  0.00     0.158 HD
ENDBRANCH  38  39
ENDBRANCH  26  34
ENDBRANCH   1  24
TORSDOF 9
ENDMDL
MODEL 8
REMARK VINA RESULT:      -8.0      6.514     10.430
REMARK  9 active torsions:
REMARK  status: ('A' for Active; 'I' for Inactive)
REMARK    1  A    between atoms: N_2  and  C_4 
REMARK    2  A    between atoms: C_4  and  C_5 
REMARK    3  A    between atoms: N_6  and  C_7 
REMARK    4  A    between atoms: C_11  and  N_12 
REMARK    5  A    between atoms: C_15  and  C_16 
REMARK       I    between atoms: C_16  and  N_17 
REMARK    6  A    between atoms: N_17  and  N_18 
REMARK    7  A    between atoms: C_19  and  C_20 
REMARK    8  A    between atoms: C_21  and  C_22 
REMARK    9  A    between atoms: N_29  and  C_30 
ROOT
HETATM    1  C   UNL     1      38.503 -14.025   0.125  1.00  0.00     0.293 C 
HETATM    2  N   UNL     1      39.808 -14.469   0.010  1.00  0.00    -0.242 N 
HETATM    3  O   UNL     1      37.690 -14.381   0.973  1.00  0.00    -0.264 OA
HETATM    4  H   UNL     1      40.399 -14.129  -0.747  1.00  0.00     0.192 HD
ENDROOT
BRANCH   2   5
HETATM    5  N   UNL     1      40.279 -15.400   0.889  1.00  0.00    -0.183 NA
HETATM    6  C   UNL     1      41.567 -15.517   0.956  1.00  0.00     0.154 C 
BRANCH   6   7
HETATM    7  C   UNL     1      42.128 -16.491   1.859  1.00  0.00     0.032 A 
HETATM    8  C   UNL     1      42.305 -16.412   3.267  1.00  0.00     0.101 A 
HETATM    9  N   UNL     1      42.813 -17.554   3.751  1.00  0.00    -0.166 NA
HETATM   10  N   UNL     1      43.019 -18.354   2.677  1.00  0.00    -0.244 N 
HETATM   11  C   UNL     1      42.616 -17.737   1.517  1.00  0.00     0.134 A 
BRANCH   8  12
HETATM   12  C   UNL     1      42.025 -15.290   4.163  1.00  0.00    -0.005 A 
HETATM   13  C   UNL     1      40.720 -15.068   4.625  1.00  0.00     0.014 A 
HETATM   14  C   UNL     1      40.445 -14.003   5.485  1.00  0.00     0.001 A 
HETATM   15  C   UNL     1      41.472 -13.154   5.897  1.00  0.00     0.000 A 
HETATM   16  C   UNL     1      42.776 -13.375   5.457  1.00  0.00     0.001 A 
HETATM   17  C   UNL     1      43.053 -14.441   4.599  1.00  0.00     0.014 A 
ENDBRANCH   8  12
BRANCH  10  18
HETATM   18  C   UNL     1      43.581 -19.653   2.830  1.00  0.00     0.058 A 
HETATM   19  C   UNL     1      44.263 -19.973   4.014  1.00  0.00     0.031 A 
HETATM   20  C   UNL     1      44.824 -21.240   4.183  1.00  0.00     0.002 A 
HETATM   21  C   UNL     1      44.708 -22.196   3.176  1.00  0.00     0.000 A 
HETATM   22  C   UNL     1      44.031 -21.886   1.998  1.00  0.00     0.002 A 
HETATM   23  C   UNL     1      43.467 -20.619   1.820  1.00  0.00     0.031 A 
ENDBRANCH  10  18
ENDBRANCH   6   7
ENDBRANCH   2   5
BRANCH   1  24
HETATM   24  C   UNL     1      38.119 -13.055  -0.891  1.00  0.00     0.170 A 
HETATM   25  C   UNL     1      37.702 -13.327  -2.186  1.00  0.00     0.096 A 
HETATM   26  N   UNL     1      37.380 -12.079  -2.713  1.00  0.00    -0.215 N 
HETATM   27  N   UNL     1      37.716 -11.125  -1.806  1.00  0.00     0.012 NA
HETATM   28  N   UNL     1      38.137 -11.706  -0.696  1.00  0.00    -0.152 NA
BRANCH  25  29
HETATM   29  C   UNL     1      37.689 -14.607  -2.935  1.00  0.00     0.295 C 
BRANCH  29  30
HETATM   30  N   UNL     1      39.046 -15.203  -3.213  1.00  0.00    -0.073 N 
HETATM   31  C   UNL     1      40.078 -14.187  -3.620  1.00  0.00     0.269 C 
HETATM   32  H   UNL     1      39.358 -15.657  -2.343  1.00  0.00     0.279 HD
HETATM   33  C   UNL     1      38.952 -16.304  -4.236  1.00  0.00     0.269 C 
ENDBRANCH  29  30
ENDBRANCH  25  29
BRANCH  26  34
HETATM   34  C   UNL     1      36.757 -11.774  -3.946  1.00  0.00     0.225 A 
HETATM   35  N   UNL     1      35.466 -12.063  -4.130  1.00  0.00    -0.081 NA
HETATM   36  O   UNL     1      35.208 -11.608  -5.427  1.00  0.00    -0.103 OA
HETATM   37  N   UNL     1      36.335 -11.026  -5.988  1.00  0.00    -0.083 NA
HETATM   38  C   UNL     1      37.296 -11.126  -5.070  1.00  0.00     0.201 A 
BRANCH  38  39
HETATM   39  N   UNL     1      38.551 -10.677  -5.229  1.00  0.00    -0.379 N 
HETATM   40  H   UNL     1      38.801 -10.144  -6.058  1.00  0.00     0.158 HD
HETATM   41  H   UNL     1      39.244 -10.654  -4.484  1.00  0.00     0.158 HD
ENDBRANCH  38  39
ENDBRANCH  26  34
ENDBRANCH   1  24
TORSDOF 9
ENDMDL
MODEL 9
REMARK VINA RESULT:      -8.0      6.123     10.176
REMARK  9 active torsions:
REMARK  status: ('A' for Active; 'I' for Inactive)
REMARK    1  A    between atoms: N_2  and  C_4 
REMARK    2  A    between atoms: C_4  and  C_5 
REMARK    3  A    between atoms: N_6  and  C_7 
REMARK    4  A    between atoms: C_11  and  N_12 
REMARK    5  A    between atoms: C_15  and  C_16 
REMARK       I    between atoms: C_16  and  N_17 
REMARK    6  A    between atoms: N_17  and  N_18 
REMARK    7  A    between atoms: C_19  and  C_20 
REMARK    8  A    between atoms: C_21  and  C_22 
REMARK    9  A    between atoms: N_29  and  C_30 
ROOT
HETATM    1  C   UNL     1      40.978 -13.799  -0.480  1.00  0.00     0.293 C 
HETATM    2  N   UNL     1      42.094 -14.614  -0.469  1.00  0.00    -0.242 N 
HETATM    3  O   UNL     1      39.993 -13.911   0.244  1.00  0.00    -0.264 OA
HETATM    4  H   UNL     1      42.852 -14.453  -1.130  1.00  0.00     0.192 HD
ENDROOT
BRANCH   2   5
HETATM    5  N   UNL     1      42.150 -15.663   0.402  1.00  0.00    -0.183 NA
HETATM    6  C   UNL     1      43.052 -15.586   1.328  1.00  0.00     0.154 C 
BRANCH   6   7
HETATM    7  C   UNL     1      43.170 -16.668   2.274  1.00  0.00     0.032 A 
HETATM    8  C   UNL     1      42.751 -16.722   3.631  1.00  0.00     0.101 A 
HETATM    9  N   UNL     1      42.989 -17.931   4.157  1.00  0.00    -0.166 NA
HETATM   10  N   UNL     1      43.602 -18.646   3.184  1.00  0.00    -0.244 N 
HETATM   11  C   UNL     1      43.728 -17.907   2.032  1.00  0.00     0.134 A 
BRANCH   8  12
HETATM   12  C   UNL     1      42.150 -15.666   4.447  1.00  0.00    -0.005 A 
HETATM   13  C   UNL     1      42.956 -14.663   5.002  1.00  0.00     0.014 A 
HETATM   14  C   UNL     1      42.391 -13.647   5.775  1.00  0.00     0.001 A 
HETATM   15  C   UNL     1      41.015 -13.622   5.997  1.00  0.00     0.000 A 
HETATM   16  C   UNL     1      40.201 -14.605   5.437  1.00  0.00     0.001 A 
HETATM   17  C   UNL     1      40.765 -15.620   4.661  1.00  0.00     0.014 A 
ENDBRANCH   8  12
BRANCH  10  18
HETATM   18  C   UNL     1      44.023 -19.986   3.416  1.00  0.00     0.058 A 
HETATM   19  C   UNL     1      44.015 -20.904   2.354  1.00  0.00     0.031 A 
HETATM   20  C   UNL     1      44.421 -22.224   2.561  1.00  0.00     0.002 A 
HETATM   21  C   UNL     1      44.838 -22.637   3.824  1.00  0.00     0.000 A 
HETATM   22  C   UNL     1      44.851 -21.731   4.884  1.00  0.00     0.002 A 
HETATM   23  C   UNL     1      44.444 -20.408   4.686  1.00  0.00     0.031 A 
ENDBRANCH  10  18
ENDBRANCH   6   7
ENDBRANCH   2   5
BRANCH   1  24
HETATM   24  C   UNL     1      41.035 -12.737  -1.475  1.00  0.00     0.170 A 
HETATM   25  C   UNL     1      40.587 -12.799  -2.787  1.00  0.00     0.096 A 
HETATM   26  N   UNL     1      40.793 -11.514  -3.282  1.00  0.00    -0.215 N 
HETATM   27  N   UNL     1      41.444 -10.784  -2.338  1.00  0.00     0.012 NA
HETATM   28  N   UNL     1      41.569 -11.505  -1.237  1.00  0.00    -0.152 NA
BRANCH  25  29
HETATM   29  C   UNL     1      40.103 -13.958  -3.574  1.00  0.00     0.295 C 
BRANCH  29  30
HETATM   30  N   UNL     1      38.613 -14.004  -3.802  1.00  0.00    -0.073 N 
HETATM   31  C   UNL     1      37.814 -13.412  -2.674  1.00  0.00     0.269 C 
HETATM   32  H   UNL     1      38.423 -13.464  -4.658  1.00  0.00     0.279 HD
HETATM   33  C   UNL     1      38.156 -15.408  -4.097  1.00  0.00     0.269 C 
ENDBRANCH  29  30
ENDBRANCH  25  29
BRANCH  26  34
HETATM   34  C   UNL     1      40.379 -10.967  -4.519  1.00  0.00     0.225 A 
HETATM   35  N   UNL     1      39.076 -10.844  -4.790  1.00  0.00    -0.081 NA
HETATM   36  O   UNL     1      39.059 -10.259  -6.061  1.00  0.00    -0.103 OA
HETATM   37  N   UNL     1      40.344 -10.012  -6.517  1.00  0.00    -0.083 NA
HETATM   38  C   UNL     1      41.165 -10.447  -5.562  1.00  0.00     0.201 A 
BRANCH  38  39
HETATM   39  N   UNL     1      42.504 -10.388  -5.622  1.00  0.00    -0.379 N 
HETATM   40  H   UNL     1      43.025 -11.104  -6.121  1.00  0.00     0.158 HD
HETATM   41  H   UNL     1      43.047  -9.564  -5.372  1.00  0.00     0.158 HD
ENDBRANCH  38  39
ENDBRANCH  26  34
ENDBRANCH   1  24
TORSDOF 9
ENDMDL
MODEL 10
REMARK VINA RESULT:      -7.9      2.345      5.063
REMARK  9 active torsions:
REMARK  status: ('A' for Active; 'I' for Inactive)
REMARK    1  A    between atoms: N_2  and  C_4 
REMARK    2  A    between atoms: C_4  and  C_5 
REMARK    3  A    between atoms: N_6  and  C_7 
REMARK    4  A    between atoms: C_11  and  N_12 
REMARK    5  A    between atoms: C_15  and  C_16 
REMARK       I    between atoms: C_16  and  N_17 
REMARK    6  A    between atoms: N_17  and  N_18 
REMARK    7  A    between atoms: C_19  and  C_20 
REMARK    8  A    between atoms: C_21  and  C_22 
REMARK    9  A    between atoms: N_29  and  C_30 
ROOT
HETATM    1  C   UNL     1      41.047 -11.043   7.456  1.00  0.00     0.293 C 
HETATM    2  N   UNL     1      40.665 -12.319   7.082  1.00  0.00    -0.242 N 
HETATM    3  O   UNL     1      41.581 -10.207   6.734  1.00  0.00    -0.264 OA
HETATM    4  H   UNL     1      40.249 -12.949   7.765  1.00  0.00     0.192 HD
ENDROOT
BRANCH   2   5
HETATM    5  N   UNL     1      40.893 -12.739   5.804  1.00  0.00    -0.183 NA
HETATM    6  C   UNL     1      40.876 -14.019   5.615  1.00  0.00     0.154 C 
BRANCH   6   7
HETATM    7  C   UNL     1      41.121 -14.528   4.288  1.00  0.00     0.032 A 
HETATM    8  C   UNL     1      41.993 -15.571   3.874  1.00  0.00     0.101 A 
HETATM    9  N   UNL     1      41.894 -15.783   2.555  1.00  0.00    -0.166 NA
HETATM   10  N   UNL     1      41.014 -14.861   2.095  1.00  0.00    -0.244 N 
HETATM   11  C   UNL     1      40.530 -14.085   3.122  1.00  0.00     0.134 A 
BRANCH   8  12
HETATM   12  C   UNL     1      42.925 -16.360   4.681  1.00  0.00    -0.005 A 
HETATM   13  C   UNL     1      43.537 -15.790   5.805  1.00  0.00     0.014 A 
HETATM   14  C   UNL     1      44.422 -16.537   6.585  1.00  0.00     0.001 A 
HETATM   15  C   UNL     1      44.699 -17.862   6.251  1.00  0.00     0.000 A 
HETATM   16  C   UNL     1      44.084 -18.445   5.145  1.00  0.00     0.001 A 
HETATM   17  C   UNL     1      43.196 -17.700   4.366  1.00  0.00     0.014 A 
ENDBRANCH   8  12
BRANCH  10  18
HETATM   18  C   UNL     1      40.689 -14.786   0.711  1.00  0.00     0.058 A 
HETATM   19  C   UNL     1      39.691 -13.895   0.286  1.00  0.00     0.031 A 
HETATM   20  C   UNL     1      39.355 -13.808  -1.067  1.00  0.00     0.002 A 
HETATM   21  C   UNL     1      40.012 -14.604  -2.003  1.00  0.00     0.000 A 
HETATM   22  C   UNL     1      41.006 -15.489  -1.589  1.00  0.00     0.002 A 
HETATM   23  C   UNL     1      41.347 -15.584  -0.235  1.00  0.00     0.031 A 
ENDBRANCH  10  18
ENDBRANCH   6   7
ENDBRANCH   2   5
BRANCH   1  24
HETATM   24  C   UNL     1      40.772 -10.732   8.852  1.00  0.00     0.170 A 
HETATM   25  C   UNL     1      41.704 -10.536   9.861  1.00  0.00     0.096 A 
HETATM   26  N   UNL     1      40.939 -10.190  10.973  1.00  0.00    -0.215 N 
HETATM   27  N   UNL     1      39.625 -10.305  10.649  1.00  0.00     0.012 NA
HETATM   28  N   UNL     1      39.515 -10.605   9.366  1.00  0.00    -0.152 NA
BRANCH  25  29
HETATM   29  C   UNL     1      43.171 -10.745   9.856  1.00  0.00     0.295 C 
BRANCH  29  30
HETATM   30  N   UNL     1      43.619 -12.175  10.020  1.00  0.00    -0.073 N 
HETATM   31  C   UNL     1      44.177 -12.478  11.384  1.00  0.00     0.269 C 
HETATM   32  H   UNL     1      42.792 -12.768   9.865  1.00  0.00     0.279 HD
HETATM   33  C   UNL     1      44.603 -12.558   8.947  1.00  0.00     0.269 C 
ENDBRANCH  29  30
ENDBRANCH  25  29
BRANCH  26  34
HETATM   34  C   UNL     1      41.377  -9.733  12.238  1.00  0.00     0.225 A 
HETATM   35  N   UNL     1      41.346 -10.556  13.291  1.00  0.00    -0.081 NA
HETATM   36  O   UNL     1      41.861  -9.777  14.332  1.00  0.00    -0.103 OA
HETATM   37  N   UNL     1      42.221  -8.515  13.884  1.00  0.00    -0.083 NA
HETATM   38  C   UNL     1      41.924  -8.486  12.585  1.00  0.00     0.201 A 
BRANCH  38  39
HETATM   39  N   UNL     1      42.123  -7.431  11.781  1.00  0.00    -0.379 N 
HETATM   40  H   UNL     1      42.494  -7.565  10.845  1.00  0.00     0.158 HD
HETATM   41  H   UNL     1      41.742  -6.503  11.958  1.00  0.00     0.158 HD
ENDBRANCH  38  39
ENDBRANCH  26  34
ENDBRANCH   1  24
TORSDOF 9
ENDMDL
