MODEL 1
REMARK VINA RESULT:      -9.5      0.000      0.000
REMARK  7 active torsions:
REMARK  status: ('A' for Active; 'I' for Inactive)
REMARK    1  A    between atoms: C_4  and  C_5 
REMARK    2  A    between atoms: C_5  and  N_6 
REMARK       I    between atoms: N_6  and  C_7 
REMARK    3  A    between atoms: N_6  and  C_18 
REMARK       I    between atoms: C_7  and  N_8 
REMARK    4  A    between atoms: N_8  and  C_9 
REMARK    5  A    between atoms: C_10  and  O_11 
REMARK    6  A    between atoms: N_21  and  C_23 
REMARK    7  A    between atoms: C_23  and  C_24 
ROOT
HETATM    1  N   UNL     1      42.919 -16.565   4.408  1.00  0.00    -0.323 N 
HETATM    2  C   UNL     1      43.114 -17.965   4.486  1.00  0.00     0.323 C 
HETATM    3  N   UNL     1      43.657 -18.555   3.368  1.00  0.00    -0.306 N 
HETATM    4  O   UNL     1      42.813 -18.547   5.524  1.00  0.00    -0.247 OA
HETATM    5  H   UNL     1      44.003 -17.955   2.645  1.00  0.00     0.171 HD
ENDROOT
BRANCH   1   6
HETATM    6  C   UNL     1      43.418 -15.737   3.304  1.00  0.00     0.193 C 
BRANCH   6   7
HETATM    7  C   UNL     1      42.465 -15.743   2.170  1.00  0.00     0.071 A 
HETATM    8  O   UNL     1      41.286 -15.084   2.372  1.00  0.00    -0.318 OA
HETATM    9  C   UNL     1      40.553 -15.218   1.231  1.00  0.00     0.049 A 
HETATM   10  C   UNL     1      39.212 -14.597   1.218  1.00  0.00     0.076 C 
HETATM   11  C   UNL     1      41.255 -15.950   0.299  1.00  0.00     0.035 A 
HETATM   12  C   UNL     1      42.488 -16.290   0.904  1.00  0.00     0.037 A 
ENDBRANCH   6   7
ENDBRANCH   1   6
BRANCH   1  13
HETATM   13  C   UNL     1      42.143 -15.962   5.534  1.00  0.00     0.092 C 
HETATM   14  C   UNL     1      41.844 -14.456   5.511  1.00  0.00     0.053 C 
HETATM   15  C   UNL     1      42.974 -13.546   5.972  1.00  0.00     0.237 C 
HETATM   16  N   UNL     1      43.600 -14.038   7.258  1.00  0.00    -0.067 N 
HETATM   17  H   UNL     1      42.913 -13.869   8.003  1.00  0.00     0.280 HD
HETATM   18  C   UNL     1      43.933 -15.511   7.255  1.00  0.00     0.237 C 
HETATM   19  C   UNL     1      42.715 -16.335   6.909  1.00  0.00     0.053 C 
BRANCH  16  20
HETATM   20  C   UNL     1      44.842 -13.247   7.647  1.00  0.00     0.273 C 
BRANCH  20  21
HETATM   21  C   UNL     1      44.644 -12.255   8.757  1.00  0.00    -0.033 A 
HETATM   22  C   UNL     1      43.483 -11.471   8.826  1.00  0.00     0.009 A 
HETATM   23  C   UNL     1      43.315 -10.554   9.864  1.00  0.00     0.001 A 
HETATM   24  C   UNL     1      44.303 -10.407  10.837  1.00  0.00     0.000 A 
HETATM   25  C   UNL     1      45.461 -11.177  10.777  1.00  0.00     0.001 A 
HETATM   26  C   UNL     1      45.632 -12.097   9.744  1.00  0.00     0.009 A 
ENDBRANCH  20  21
ENDBRANCH  16  20
ENDBRANCH   1  13
BRANCH   3  27
HETATM   27  C   UNL     1      43.953 -19.921   3.119  1.00  0.00     0.069 A 
HETATM   28  C   UNL     1      44.587 -20.829   3.979  1.00  0.00     0.095 A 
HETATM   29  C   UNL     1      44.862 -22.138   3.556  1.00  0.00     0.039 A 
HETATM   30  C   UNL     1      44.460 -22.579   2.299  1.00  0.00     0.003 A 
HETATM   31  C   UNL     1      43.782 -21.710   1.454  1.00  0.00     0.002 A 
HETATM   32  C   UNL     1      43.530 -20.397   1.861  1.00  0.00     0.032 A 
BRANCH  28  33
HETATM   33  O   UNL     1      44.967 -20.534   5.257  1.00  0.00    -0.354 OA
HETATM   34  C   UNL     1      44.397 -21.466   6.174  1.00  0.00     0.210 C 
ENDBRANCH  28  33
ENDBRANCH   3  27
TORSDOF 7
ENDMDL
MODEL 2
REMARK VINA RESULT:      -9.4      2.416      7.514
REMARK  7 active torsions:
REMARK  status: ('A' for Active; 'I' for Inactive)
REMARK    1  A    between atoms: C_4  and  C_5 
REMARK    2  A    between atoms: C_5  and  N_6 
REMARK       I    between atoms: N_6  and  C_7 
REMARK    3  A    between atoms: N_6  and  C_18 
REMARK       I    between atoms: C_7  and  N_8 
REMARK    4  A    between atoms: N_8  and  C_9 
REMARK    5  A    between atoms: C_10  and  O_11 
REMARK    6  A    between atoms: N_21  and  C_23 
REMARK    7  A    between atoms: C_23  and  C_24 
ROOT
HETATM    1  N   UNL     1      42.270 -15.667   3.428  1.00  0.00    -0.323 N 
HETATM    2  C   UNL     1      42.257 -17.079   3.324  1.00  0.00     0.323 C 
HETATM    3  N   UNL     1      43.488 -17.691   3.352  1.00  0.00    -0.306 N 
HETATM    4  O   UNL     1      41.177 -17.656   3.238  1.00  0.00    -0.247 OA
HETATM    5  H   UNL     1      44.285 -17.129   3.582  1.00  0.00     0.171 HD
ENDROOT
BRANCH   1   6
HETATM    6  C   UNL     1      43.476 -14.888   3.732  1.00  0.00     0.193 C 
BRANCH   6   7
HETATM    7  C   UNL     1      43.756 -14.899   5.187  1.00  0.00     0.071 A 
HETATM    8  O   UNL     1      43.400 -16.033   5.859  1.00  0.00    -0.318 OA
HETATM    9  C   UNL     1      43.724 -15.840   7.168  1.00  0.00     0.049 A 
HETATM   10  C   UNL     1      43.409 -16.938   8.106  1.00  0.00     0.076 C 
HETATM   11  C   UNL     1      44.291 -14.596   7.338  1.00  0.00     0.035 A 
HETATM   12  C   UNL     1      44.312 -13.988   6.061  1.00  0.00     0.037 A 
ENDBRANCH   6   7
ENDBRANCH   1   6
BRANCH   1  13
HETATM   13  C   UNL     1      40.958 -14.995   3.190  1.00  0.00     0.092 C 
HETATM   14  C   UNL     1      39.937 -15.663   2.257  1.00  0.00     0.053 C 
HETATM   15  C   UNL     1      40.165 -15.459   0.766  1.00  0.00     0.237 C 
HETATM   16  N   UNL     1      40.459 -14.013   0.436  1.00  0.00    -0.067 N 
HETATM   17  H   UNL     1      39.577 -13.498   0.559  1.00  0.00     0.280 HD
HETATM   18  C   UNL     1      41.498 -13.377   1.330  1.00  0.00     0.237 C 
HETATM   19  C   UNL     1      41.115 -13.523   2.785  1.00  0.00     0.053 C 
BRANCH  16  20
HETATM   20  C   UNL     1      40.862 -13.810  -1.018  1.00  0.00     0.273 C 
BRANCH  20  21
HETATM   21  C   UNL     1      39.940 -14.431  -2.028  1.00  0.00    -0.033 A 
HETATM   22  C   UNL     1      38.599 -14.031  -2.124  1.00  0.00     0.009 A 
HETATM   23  C   UNL     1      37.757 -14.619  -3.068  1.00  0.00     0.001 A 
HETATM   24  C   UNL     1      38.241 -15.612  -3.919  1.00  0.00     0.000 A 
HETATM   25  C   UNL     1      39.569 -16.019  -3.831  1.00  0.00     0.001 A 
HETATM   26  C   UNL     1      40.416 -15.433  -2.892  1.00  0.00     0.009 A 
ENDBRANCH  20  21
ENDBRANCH  16  20
ENDBRANCH   1  13
BRANCH   3  27
HETATM   27  C   UNL     1      43.818 -19.069   3.249  1.00  0.00     0.069 A 
HETATM   28  C   UNL     1      44.398 -19.885   4.230  1.00  0.00     0.095 A 
HETATM   29  C   UNL     1      44.719 -21.221   3.948  1.00  0.00     0.039 A 
HETATM   30  C   UNL     1      44.415 -21.779   2.710  1.00  0.00     0.003 A 
HETATM   31  C   UNL     1      43.789 -21.002   1.744  1.00  0.00     0.002 A 
HETATM   32  C   UNL     1      43.493 -19.662   2.012  1.00  0.00     0.032 A 
BRANCH  28  33
HETATM   33  O   UNL     1      44.682 -19.470   5.500  1.00  0.00    -0.354 OA
HETATM   34  C   UNL     1      43.880 -20.176   6.445  1.00  0.00     0.210 C 
ENDBRANCH  28  33
ENDBRANCH   3  27
TORSDOF 7
ENDMDL
MODEL 3
REMARK VINA RESULT:      -9.4      3.272      8.023
REMARK  7 active torsions:
REMARK  status: ('A' for Active; 'I' for Inactive)
REMARK    1  A    between atoms: C_4  and  C_5 
REMARK    2  A    between atoms: C_5  and  N_6 
REMARK       I    between atoms: N_6  and  C_7 
REMARK    3  A    between atoms: N_6  and  C_18 
REMARK       I    between atoms: C_7  and  N_8 
REMARK    4  A    between atoms: N_8  and  C_9 
REMARK    5  A    between atoms: C_10  and  O_11 
REMARK    6  A    between atoms: N_21  and  C_23 
REMARK    7  A    between atoms: C_23  and  C_24 
ROOT
HETATM    1  N   UNL     1      41.855 -15.184   4.866  1.00  0.00    -0.323 N 
HETATM    2  C   UNL     1      40.645 -14.490   4.624  1.00  0.00     0.323 C 
HETATM    3  N   UNL     1      40.732 -13.426   3.755  1.00  0.00    -0.306 N 
HETATM    4  O   UNL     1      39.620 -14.879   5.173  1.00  0.00    -0.247 OA
HETATM    5  H   UNL     1      41.589 -13.302   3.252  1.00  0.00     0.171 HD
ENDROOT
BRANCH   1   6
HETATM    6  C   UNL     1      43.096 -14.937   4.122  1.00  0.00     0.193 C 
BRANCH   6   7
HETATM    7  C   UNL     1      43.118 -15.717   2.863  1.00  0.00     0.071 A 
HETATM    8  O   UNL     1      42.115 -15.453   1.974  1.00  0.00    -0.318 OA
HETATM    9  C   UNL     1      42.304 -16.274   0.903  1.00  0.00     0.049 A 
HETATM   10  C   UNL     1      41.318 -16.183  -0.194  1.00  0.00     0.076 C 
HETATM   11  C   UNL     1      43.422 -17.056   1.096  1.00  0.00     0.035 A 
HETATM   12  C   UNL     1      43.947 -16.698   2.360  1.00  0.00     0.037 A 
ENDBRANCH   6   7
ENDBRANCH   1   6
BRANCH   1  13
HETATM   13  C   UNL     1      41.803 -16.200   5.961  1.00  0.00     0.092 C 
HETATM   14  C   UNL     1      42.932 -16.233   7.001  1.00  0.00     0.053 C 
HETATM   15  C   UNL     1      44.207 -16.947   6.575  1.00  0.00     0.237 C 
HETATM   16  N   UNL     1      43.915 -18.282   5.930  1.00  0.00    -0.067 N 
HETATM   17  H   UNL     1      43.596 -18.908   6.680  1.00  0.00     0.280 HD
HETATM   18  C   UNL     1      42.834 -18.231   4.875  1.00  0.00     0.237 C 
HETATM   19  C   UNL     1      41.569 -17.622   5.433  1.00  0.00     0.053 C 
BRANCH  16  20
HETATM   20  C   UNL     1      45.157 -18.936   5.339  1.00  0.00     0.273 C 
BRANCH  20  21
HETATM   21  C   UNL     1      44.910 -20.214   4.591  1.00  0.00    -0.033 A 
HETATM   22  C   UNL     1      44.805 -21.438   5.267  1.00  0.00     0.009 A 
HETATM   23  C   UNL     1      44.575 -22.616   4.555  1.00  0.00     0.001 A 
HETATM   24  C   UNL     1      44.453 -22.585   3.167  1.00  0.00     0.000 A 
HETATM   25  C   UNL     1      44.557 -21.376   2.485  1.00  0.00     0.001 A 
HETATM   26  C   UNL     1      44.784 -20.196   3.191  1.00  0.00     0.009 A 
ENDBRANCH  20  21
ENDBRANCH  16  20
ENDBRANCH   1  13
BRANCH   3  27
HETATM   27  C   UNL     1      39.723 -12.524   3.325  1.00  0.00     0.069 A 
HETATM   28  C   UNL     1      39.040 -12.527   2.102  1.00  0.00     0.095 A 
HETATM   29  C   UNL     1      38.106 -11.522   1.804  1.00  0.00     0.039 A 
HETATM   30  C   UNL     1      37.798 -10.538   2.739  1.00  0.00     0.003 A 
HETATM   31  C   UNL     1      38.424 -10.551   3.978  1.00  0.00     0.002 A 
HETATM   32  C   UNL     1      39.374 -11.535   4.268  1.00  0.00     0.032 A 
BRANCH  28  33
HETATM   33  O   UNL     1      39.208 -13.475   1.134  1.00  0.00    -0.354 OA
HETATM   34  C   UNL     1      38.359 -14.595   1.382  1.00  0.00     0.210 C 
ENDBRANCH  28  33
ENDBRANCH   3  27
TORSDOF 7
ENDMDL
MODEL 4
REMARK VINA RESULT:      -9.3      3.317      8.035
REMARK  7 active torsions:
REMARK  status: ('A' for Active; 'I' for Inactive)
REMARK    1  A    between atoms: C_4  and  C_5 
REMARK    2  A    between atoms: C_5  and  N_6 
REMARK       I    between atoms: N_6  and  C_7 
REMARK    3  A    between atoms: N_6  and  C_18 
REMARK       I    between atoms: C_7  and  N_8 
REMARK    4  A    between atoms: N_8  and  C_9 
REMARK    5  A    between atoms: C_10  and  O_11 
REMARK    6  A    between atoms: N_21  and  C_23 
REMARK    7  A    between atoms: C_23  and  C_24 
ROOT
HETATM    1  N   UNL     1      41.666 -15.410   4.583  1.00  0.00    -0.323 N 
HETATM    2  C   UNL     1      40.534 -14.563   4.495  1.00  0.00     0.323 C 
HETATM    3  N   UNL     1      40.572 -13.621   3.493  1.00  0.00    -0.306 N 
HETATM    4  O   UNL     1      39.607 -14.730   5.281  1.00  0.00    -0.247 OA
HETATM    5  H   UNL     1      41.311 -13.684   2.820  1.00  0.00     0.171 HD
ENDROOT
BRANCH   1   6
HETATM    6  C   UNL     1      42.740 -15.436   3.584  1.00  0.00     0.193 C 
BRANCH   6   7
HETATM    7  C   UNL     1      42.213 -15.830   2.257  1.00  0.00     0.071 A 
HETATM    8  O   UNL     1      42.093 -14.829   1.336  1.00  0.00    -0.318 OA
HETATM    9  C   UNL     1      41.584 -15.388   0.202  1.00  0.00     0.049 A 
HETATM   10  C   UNL     1      41.344 -14.484  -0.942  1.00  0.00     0.076 C 
HETATM   11  C   UNL     1      41.385 -16.739   0.387  1.00  0.00     0.035 A 
HETATM   12  C   UNL     1      41.790 -17.025   1.712  1.00  0.00     0.037 A 
ENDBRANCH   6   7
ENDBRANCH   1   6
BRANCH   1  13
HETATM   13  C   UNL     1      41.715 -16.288   5.791  1.00  0.00     0.092 C 
HETATM   14  C   UNL     1      42.934 -16.209   6.721  1.00  0.00     0.053 C 
HETATM   15  C   UNL     1      44.166 -16.980   6.269  1.00  0.00     0.237 C 
HETATM   16  N   UNL     1      43.817 -18.380   5.816  1.00  0.00    -0.067 N 
HETATM   17  H   UNL     1      43.570 -18.910   6.661  1.00  0.00     0.280 HD
HETATM   18  C   UNL     1      42.645 -18.444   4.865  1.00  0.00     0.237 C 
HETATM   19  C   UNL     1      41.435 -17.761   5.460  1.00  0.00     0.053 C 
BRANCH  16  20
HETATM   20  C   UNL     1      45.001 -19.111   5.197  1.00  0.00     0.273 C 
BRANCH  20  21
HETATM   21  C   UNL     1      44.652 -20.075   4.100  1.00  0.00    -0.033 A 
HETATM   22  C   UNL     1      44.199 -19.617   2.853  1.00  0.00     0.009 A 
HETATM   23  C   UNL     1      43.880 -20.528   1.845  1.00  0.00     0.001 A 
HETATM   24  C   UNL     1      44.003 -21.898   2.072  1.00  0.00     0.000 A 
HETATM   25  C   UNL     1      44.449 -22.363   3.306  1.00  0.00     0.001 A 
HETATM   26  C   UNL     1      44.772 -21.459   4.315  1.00  0.00     0.009 A 
ENDBRANCH  20  21
ENDBRANCH  16  20
ENDBRANCH   1  13
BRANCH   3  27
HETATM   27  C   UNL     1      39.622 -12.620   3.155  1.00  0.00     0.069 A 
HETATM   28  C   UNL     1      39.287 -11.477   3.893  1.00  0.00     0.095 A 
HETATM   29  C   UNL     1      38.276 -10.611   3.447  1.00  0.00     0.039 A 
HETATM   30  C   UNL     1      37.628 -10.839   2.236  1.00  0.00     0.003 A 
HETATM   31  C   UNL     1      37.987 -11.936   1.464  1.00  0.00     0.002 A 
HETATM   32  C   UNL     1      38.975 -12.815   1.918  1.00  0.00     0.032 A 
BRANCH  28  33
HETATM   33  O   UNL     1      39.896 -11.113   5.059  1.00  0.00    -0.354 OA
HETATM   34  C   UNL     1      41.017 -10.271   4.794  1.00  0.00     0.210 C 
ENDBRANCH  28  33
ENDBRANCH   3  27
TORSDOF 7
ENDMDL
MODEL 5
REMARK VINA RESULT:      -9.2      2.193      3.903
REMARK  7 active torsions:
REMARK  status: ('A' for Active; 'I' for Inactive)
REMARK    1  A    between atoms: C_4  and  C_5 
REMARK    2  A    between atoms: C_5  and  N_6 
REMARK       I    between atoms: N_6  and  C_7 
REMARK    3  A    between atoms: N_6  and  C_18 
REMARK       I    between atoms: C_7  and  N_8 
REMARK    4  A    between atoms: N_8  and  C_9 
REMARK    5  A    between atoms: C_10  and  O_11 
REMARK    6  A    between atoms: N_21  and  C_23 
REMARK    7  A    between atoms: C_23  and  C_24 
ROOT
HETATM    1  N   UNL     1      42.044 -15.625   3.763  1.00  0.00    -0.323 N 
HETATM    2  C   UNL     1      42.076 -17.032   3.613  1.00  0.00     0.323 C 
HETATM    3  N   UNL     1      43.328 -17.590   3.490  1.00  0.00    -0.306 N 
HETATM    4  O   UNL     1      41.018 -17.653   3.620  1.00  0.00    -0.247 OA
HETATM    5  H   UNL     1      44.121 -17.000   3.654  1.00  0.00     0.171 HD
ENDROOT
BRANCH   1   6
HETATM    6  C   UNL     1      43.242 -14.802   3.965  1.00  0.00     0.193 C 
BRANCH   6   7
HETATM    7  C   UNL     1      43.678 -14.849   5.380  1.00  0.00     0.071 A 
HETATM    8  O   UNL     1      43.320 -15.963   6.084  1.00  0.00    -0.318 OA
HETATM    9  C   UNL     1      43.798 -15.806   7.351  1.00  0.00     0.049 A 
HETATM   10  C   UNL     1      43.512 -16.890   8.314  1.00  0.00     0.076 C 
HETATM   11  C   UNL     1      44.464 -14.606   7.461  1.00  0.00     0.035 A 
HETATM   12  C   UNL     1      44.387 -13.987   6.191  1.00  0.00     0.037 A 
ENDBRANCH   6   7
ENDBRANCH   1   6
BRANCH   1  13
HETATM   13  C   UNL     1      40.687 -15.004   3.687  1.00  0.00     0.092 C 
HETATM   14  C   UNL     1      40.471 -13.793   2.767  1.00  0.00     0.053 C 
HETATM   15  C   UNL     1      40.915 -12.448   3.324  1.00  0.00     0.237 C 
HETATM   16  N   UNL     1      40.438 -12.244   4.744  1.00  0.00    -0.067 N 
HETATM   17  H   UNL     1      39.422 -12.096   4.696  1.00  0.00     0.280 HD
HETATM   18  C   UNL     1      40.695 -13.423   5.654  1.00  0.00     0.237 C 
HETATM   19  C   UNL     1      40.106 -14.687   5.072  1.00  0.00     0.053 C 
BRANCH  16  20
HETATM   20  C   UNL     1      41.013 -10.987   5.384  1.00  0.00     0.273 C 
BRANCH  20  21
HETATM   21  C   UNL     1      40.840 -10.893   6.873  1.00  0.00    -0.033 A 
HETATM   22  C   UNL     1      39.567 -10.965   7.458  1.00  0.00     0.009 A 
HETATM   23  C   UNL     1      39.425 -10.877   8.843  1.00  0.00     0.001 A 
HETATM   24  C   UNL     1      40.547 -10.710   9.654  1.00  0.00     0.000 A 
HETATM   25  C   UNL     1      41.814 -10.634   9.084  1.00  0.00     0.001 A 
HETATM   26  C   UNL     1      41.962 -10.725   7.702  1.00  0.00     0.009 A 
ENDBRANCH  20  21
ENDBRANCH  16  20
ENDBRANCH   1  13
BRANCH   3  27
HETATM   27  C   UNL     1      43.700 -18.948   3.305  1.00  0.00     0.069 A 
HETATM   28  C   UNL     1      44.375 -19.780   4.210  1.00  0.00     0.095 A 
HETATM   29  C   UNL     1      44.725 -21.090   3.849  1.00  0.00     0.039 A 
HETATM   30  C   UNL     1      44.358 -21.609   2.611  1.00  0.00     0.003 A 
HETATM   31  C   UNL     1      43.640 -20.818   1.723  1.00  0.00     0.002 A 
HETATM   32  C   UNL     1      43.314 -19.503   2.069  1.00  0.00     0.032 A 
BRANCH  28  33
HETATM   33  O   UNL     1      44.728 -19.406   5.475  1.00  0.00    -0.354 OA
HETATM   34  C   UNL     1      43.860 -20.009   6.433  1.00  0.00     0.210 C 
ENDBRANCH  28  33
ENDBRANCH   3  27
TORSDOF 7
ENDMDL
MODEL 6
REMARK VINA RESULT:      -9.1      2.101      2.604
REMARK  7 active torsions:
REMARK  status: ('A' for Active; 'I' for Inactive)
REMARK    1  A    between atoms: C_4  and  C_5 
REMARK    2  A    between atoms: C_5  and  N_6 
REMARK       I    between atoms: N_6  and  C_7 
REMARK    3  A    between atoms: N_6  and  C_18 
REMARK       I    between atoms: C_7  and  N_8 
REMARK    4  A    between atoms: N_8  and  C_9 
REMARK    5  A    between atoms: C_10  and  O_11 
REMARK    6  A    between atoms: N_21  and  C_23 
REMARK    7  A    between atoms: C_23  and  C_24 
ROOT
HETATM    1  N   UNL     1      41.732 -16.137   3.402  1.00  0.00    -0.323 N 
HETATM    2  C   UNL     1      42.021 -17.491   3.700  1.00  0.00     0.323 C 
HETATM    3  N   UNL     1      43.067 -18.046   2.999  1.00  0.00    -0.306 N 
HETATM    4  O   UNL     1      41.354 -18.064   4.555  1.00  0.00    -0.247 OA
HETATM    5  H   UNL     1      43.633 -17.434   2.442  1.00  0.00     0.171 HD
ENDROOT
BRANCH   1   6
HETATM    6  C   UNL     1      42.579 -15.295   2.549  1.00  0.00     0.193 C 
BRANCH   6   7
HETATM    7  C   UNL     1      42.047 -15.245   1.167  1.00  0.00     0.071 A 
HETATM    8  O   UNL     1      41.966 -14.006   0.599  1.00  0.00    -0.318 OA
HETATM    9  C   UNL     1      41.445 -14.171  -0.650  1.00  0.00     0.049 A 
HETATM   10  C   UNL     1      41.243 -12.952  -1.460  1.00  0.00     0.076 C 
HETATM   11  C   UNL     1      41.200 -15.506  -0.887  1.00  0.00     0.035 A 
HETATM   12  C   UNL     1      41.586 -16.199   0.284  1.00  0.00     0.037 A 
ENDBRANCH   6   7
ENDBRANCH   1   6
BRANCH   1  13
HETATM   13  C   UNL     1      40.475 -15.603   4.007  1.00  0.00     0.092 C 
HETATM   14  C   UNL     1      39.831 -14.347   3.402  1.00  0.00     0.053 C 
HETATM   15  C   UNL     1      40.445 -13.018   3.820  1.00  0.00     0.237 C 
HETATM   16  N   UNL     1      40.666 -12.947   5.314  1.00  0.00    -0.067 N 
HETATM   17  H   UNL     1      39.736 -12.863   5.745  1.00  0.00     0.280 HD
HETATM   18  C   UNL     1      41.340 -14.168   5.894  1.00  0.00     0.237 C 
HETATM   19  C   UNL     1      40.583 -15.423   5.528  1.00  0.00     0.053 C 
BRANCH  16  20
HETATM   20  C   UNL     1      41.436 -11.704   5.738  1.00  0.00     0.273 C 
BRANCH  20  21
HETATM   21  C   UNL     1      41.112 -11.190   7.111  1.00  0.00    -0.033 A 
HETATM   22  C   UNL     1      39.800 -11.225   7.604  1.00  0.00     0.009 A 
HETATM   23  C   UNL     1      39.518 -10.744   8.883  1.00  0.00     0.001 A 
HETATM   24  C   UNL     1      40.537 -10.220   9.677  1.00  0.00     0.000 A 
HETATM   25  C   UNL     1      41.843 -10.177   9.197  1.00  0.00     0.001 A 
HETATM   26  C   UNL     1      42.131 -10.660   7.922  1.00  0.00     0.009 A 
ENDBRANCH  20  21
ENDBRANCH  16  20
ENDBRANCH   1  13
BRANCH   3  27
HETATM   27  C   UNL     1      43.589 -19.366   3.045  1.00  0.00     0.069 A 
HETATM   28  C   UNL     1      44.370 -19.940   4.058  1.00  0.00     0.095 A 
HETATM   29  C   UNL     1      44.862 -21.248   3.924  1.00  0.00     0.039 A 
HETATM   30  C   UNL     1      44.537 -22.019   2.811  1.00  0.00     0.003 A 
HETATM   31  C   UNL     1      43.719 -21.485   1.824  1.00  0.00     0.002 A 
HETATM   32  C   UNL     1      43.249 -20.174   1.942  1.00  0.00     0.032 A 
BRANCH  28  33
HETATM   33  O   UNL     1      44.698 -19.307   5.223  1.00  0.00    -0.354 OA
HETATM   34  C   UNL     1      43.892 -19.790   6.296  1.00  0.00     0.210 C 
ENDBRANCH  28  33
ENDBRANCH   3  27
TORSDOF 7
ENDMDL
MODEL 7
REMARK VINA RESULT:      -9.1      2.784      9.175
REMARK  7 active torsions:
REMARK  status: ('A' for Active; 'I' for Inactive)
REMARK    1  A    between atoms: C_4  and  C_5 
REMARK    2  A    between atoms: C_5  and  N_6 
REMARK       I    between atoms: N_6  and  C_7 
REMARK    3  A    between atoms: N_6  and  C_18 
REMARK       I    between atoms: C_7  and  N_8 
REMARK    4  A    between atoms: N_8  and  C_9 
REMARK    5  A    between atoms: C_10  and  O_11 
REMARK    6  A    between atoms: N_21  and  C_23 
REMARK    7  A    between atoms: C_23  and  C_24 
ROOT
HETATM    1  N   UNL     1      40.815 -14.693   4.373  1.00  0.00    -0.323 N 
HETATM    2  C   UNL     1      40.766 -13.282   4.275  1.00  0.00     0.323 C 
HETATM    3  N   UNL     1      40.433 -12.615   5.431  1.00  0.00    -0.306 N 
HETATM    4  O   UNL     1      41.035 -12.753   3.201  1.00  0.00    -0.247 OA
HETATM    5  H   UNL     1      40.388 -13.146   6.280  1.00  0.00     0.171 HD
ENDROOT
BRANCH   1   6
HETATM    6  C   UNL     1      40.708 -15.423   5.641  1.00  0.00     0.193 C 
BRANCH   6   7
HETATM    7  C   UNL     1      42.046 -15.632   6.241  1.00  0.00     0.071 A 
HETATM    8  O   UNL     1      42.891 -14.560   6.216  1.00  0.00    -0.318 OA
HETATM    9  C   UNL     1      44.059 -14.958   6.796  1.00  0.00     0.049 A 
HETATM   10  C   UNL     1      45.147 -13.960   6.866  1.00  0.00     0.076 C 
HETATM   11  C   UNL     1      43.966 -16.272   7.197  1.00  0.00     0.035 A 
HETATM   12  C   UNL     1      42.668 -16.709   6.840  1.00  0.00     0.037 A 
ENDBRANCH   6   7
ENDBRANCH   1   6
BRANCH   1  13
HETATM   13  C   UNL     1      40.972 -15.420   3.076  1.00  0.00     0.092 C 
HETATM   14  C   UNL     1      40.687 -16.928   3.028  1.00  0.00     0.053 C 
HETATM   15  C   UNL     1      41.807 -17.833   3.522  1.00  0.00     0.237 C 
HETATM   16  N   UNL     1      43.146 -17.432   2.946  1.00  0.00    -0.067 N 
HETATM   17  H   UNL     1      43.128 -17.690   1.951  1.00  0.00     0.280 HD
HETATM   18  C   UNL     1      43.438 -15.953   3.039  1.00  0.00     0.237 C 
HETATM   19  C   UNL     1      42.326 -15.147   2.408  1.00  0.00     0.053 C 
BRANCH  16  20
HETATM   20  C   UNL     1      44.306 -18.208   3.557  1.00  0.00     0.273 C 
BRANCH  20  21
HETATM   21  C   UNL     1      44.311 -19.681   3.267  1.00  0.00    -0.033 A 
HETATM   22  C   UNL     1      43.898 -20.173   2.021  1.00  0.00     0.009 A 
HETATM   23  C   UNL     1      43.910 -21.546   1.769  1.00  0.00     0.001 A 
HETATM   24  C   UNL     1      44.326 -22.437   2.756  1.00  0.00     0.000 A 
HETATM   25  C   UNL     1      44.736 -21.960   3.998  1.00  0.00     0.001 A 
HETATM   26  C   UNL     1      44.729 -20.590   4.254  1.00  0.00     0.009 A 
ENDBRANCH  20  21
ENDBRANCH  16  20
ENDBRANCH   1  13
BRANCH   3  27
HETATM   27  C   UNL     1      40.278 -11.222   5.661  1.00  0.00     0.069 A 
HETATM   28  C   UNL     1      39.212 -10.404   5.260  1.00  0.00     0.095 A 
HETATM   29  C   UNL     1      39.238  -9.024   5.514  1.00  0.00     0.039 A 
HETATM   30  C   UNL     1      40.291  -8.451   6.220  1.00  0.00     0.003 A 
HETATM   31  C   UNL     1      41.328  -9.255   6.675  1.00  0.00     0.002 A 
HETATM   32  C   UNL     1      41.319 -10.626   6.400  1.00  0.00     0.032 A 
BRANCH  28  33
HETATM   33  O   UNL     1      38.096 -10.862   4.620  1.00  0.00    -0.354 OA
HETATM   34  C   UNL     1      38.216 -10.670   3.211  1.00  0.00     0.210 C 
ENDBRANCH  28  33
ENDBRANCH   3  27
TORSDOF 7
ENDMDL
MODEL 8
REMARK VINA RESULT:      -9.0      4.784      9.202
REMARK  7 active torsions:
REMARK  status: ('A' for Active; 'I' for Inactive)
REMARK    1  A    between atoms: C_4  and  C_5 
REMARK    2  A    between atoms: C_5  and  N_6 
REMARK       I    between atoms: N_6  and  C_7 
REMARK    3  A    between atoms: N_6  and  C_18 
REMARK       I    between atoms: C_7  and  N_8 
REMARK    4  A    between atoms: N_8  and  C_9 
REMARK    5  A    between atoms: C_10  and  O_11 
REMARK    6  A    between atoms: N_21  and  C_23 
REMARK    7  A    between atoms: C_23  and  C_24 
ROOT
HETATM    1  N   UNL     1      40.137 -14.709   1.273  1.00  0.00    -0.323 N 
HETATM    2  C   UNL     1      38.895 -14.171   0.857  1.00  0.00     0.323 C 
HETATM    3  N   UNL     1      38.967 -13.143  -0.054  1.00  0.00    -0.306 N 
HETATM    4  O   UNL     1      37.861 -14.654   1.305  1.00  0.00    -0.247 OA
HETATM    5  H   UNL     1      39.859 -12.941  -0.462  1.00  0.00     0.171 HD
ENDROOT
BRANCH   1   6
HETATM    6  C   UNL     1      41.423 -14.351   0.663  1.00  0.00     0.193 C 
BRANCH   6   7
HETATM    7  C   UNL     1      41.361 -14.489  -0.810  1.00  0.00     0.071 A 
HETATM    8  O   UNL     1      41.523 -13.339  -1.529  1.00  0.00    -0.318 OA
HETATM    9  C   UNL     1      41.420 -13.674  -2.847  1.00  0.00     0.049 A 
HETATM   10  C   UNL     1      41.543 -12.576  -3.829  1.00  0.00     0.076 C 
HETATM   11  C   UNL     1      41.201 -15.027  -2.976  1.00  0.00     0.035 A 
HETATM   12  C   UNL     1      41.162 -15.554  -1.664  1.00  0.00     0.037 A 
ENDBRANCH   6   7
ENDBRANCH   1   6
BRANCH   1  13
HETATM   13  C   UNL     1      40.066 -15.678   2.409  1.00  0.00     0.092 C 
HETATM   14  C   UNL     1      41.044 -15.522   3.583  1.00  0.00     0.053 C 
HETATM   15  C   UNL     1      42.443 -16.082   3.362  1.00  0.00     0.237 C 
HETATM   16  N   UNL     1      42.403 -17.469   2.762  1.00  0.00    -0.067 N 
HETATM   17  H   UNL     1      42.069 -18.100   3.502  1.00  0.00     0.280 HD
HETATM   18  C   UNL     1      41.473 -17.602   1.580  1.00  0.00     0.237 C 
HETATM   19  C   UNL     1      40.080 -17.139   1.939  1.00  0.00     0.053 C 
BRANCH  16  20
HETATM   20  C   UNL     1      43.783 -17.981   2.370  1.00  0.00     0.273 C 
BRANCH  20  21
HETATM   21  C   UNL     1      44.030 -19.434   2.659  1.00  0.00    -0.033 A 
HETATM   22  C   UNL     1      43.677 -20.425   1.732  1.00  0.00     0.009 A 
HETATM   23  C   UNL     1      43.915 -21.770   2.017  1.00  0.00     0.001 A 
HETATM   24  C   UNL     1      44.499 -22.138   3.228  1.00  0.00     0.000 A 
HETATM   25  C   UNL     1      44.851 -21.163   4.157  1.00  0.00     0.001 A 
HETATM   26  C   UNL     1      44.619 -19.818   3.876  1.00  0.00     0.009 A 
ENDBRANCH  20  21
ENDBRANCH  16  20
ENDBRANCH   1  13
BRANCH   3  27
HETATM   27  C   UNL     1      37.923 -12.383  -0.646  1.00  0.00     0.069 A 
HETATM   28  C   UNL     1      37.008 -11.540   0.000  1.00  0.00     0.095 A 
HETATM   29  C   UNL     1      35.991 -10.902  -0.726  1.00  0.00     0.039 A 
HETATM   30  C   UNL     1      35.905 -11.047  -2.107  1.00  0.00     0.003 A 
HETATM   31  C   UNL     1      36.836 -11.834  -2.772  1.00  0.00     0.002 A 
HETATM   32  C   UNL     1      37.835 -12.492  -2.048  1.00  0.00     0.032 A 
BRANCH  28  33
HETATM   33  O   UNL     1      37.032 -11.268   1.338  1.00  0.00    -0.354 OA
HETATM   34  C   UNL     1      36.249 -10.111   1.625  1.00  0.00     0.210 C 
ENDBRANCH  28  33
ENDBRANCH   3  27
TORSDOF 7
ENDMDL
MODEL 9
REMARK VINA RESULT:      -9.0      2.775      4.802
REMARK  7 active torsions:
REMARK  status: ('A' for Active; 'I' for Inactive)
REMARK    1  A    between atoms: C_4  and  C_5 
REMARK    2  A    between atoms: C_5  and  N_6 
REMARK       I    between atoms: N_6  and  C_7 
REMARK    3  A    between atoms: N_6  and  C_18 
REMARK       I    between atoms: C_7  and  N_8 
REMARK    4  A    between atoms: N_8  and  C_9 
REMARK    5  A    between atoms: C_10  and  O_11 
REMARK    6  A    between atoms: N_21  and  C_23 
REMARK    7  A    between atoms: C_23  and  C_24 
ROOT
HETATM    1  N   UNL     1      42.086 -16.053   1.955  1.00  0.00    -0.323 N 
HETATM    2  C   UNL     1      42.272 -17.456   1.927  1.00  0.00     0.323 C 
HETATM    3  N   UNL     1      43.246 -17.945   2.766  1.00  0.00    -0.306 N 
HETATM    4  O   UNL     1      41.560 -18.132   1.192  1.00  0.00    -0.247 OA
HETATM    5  H   UNL     1      43.652 -17.314   3.430  1.00  0.00     0.171 HD
ENDROOT
BRANCH   1   6
HETATM    6  C   UNL     1      42.735 -15.167   2.929  1.00  0.00     0.193 C 
BRANCH   6   7
HETATM    7  C   UNL     1      42.301 -15.495   4.307  1.00  0.00     0.071 A 
HETATM    8  O   UNL     1      43.296 -15.768   5.202  1.00  0.00    -0.318 OA
HETATM    9  C   UNL     1      42.696 -16.055   6.392  1.00  0.00     0.049 A 
HETATM   10  C   UNL     1      43.581 -16.407   7.522  1.00  0.00     0.076 C 
HETATM   11  C   UNL     1      41.327 -15.961   6.267  1.00  0.00     0.035 A 
HETATM   12  C   UNL     1      41.071 -15.600   4.923  1.00  0.00     0.037 A 
ENDBRANCH   6   7
ENDBRANCH   1   6
BRANCH   1  13
HETATM   13  C   UNL     1      41.180 -15.505   0.901  1.00  0.00     0.092 C 
HETATM   14  C   UNL     1      41.567 -14.202   0.188  1.00  0.00     0.053 C 
HETATM   15  C   UNL     1      41.258 -12.915   0.940  1.00  0.00     0.237 C 
HETATM   16  N   UNL     1      39.857 -12.921   1.510  1.00  0.00    -0.067 N 
HETATM   17  H   UNL     1      39.215 -12.827   0.713  1.00  0.00     0.280 HD
HETATM   18  C   UNL     1      39.500 -14.190   2.249  1.00  0.00     0.237 C 
HETATM   19  C   UNL     1      39.723 -15.401   1.373  1.00  0.00     0.053 C 
BRANCH  16  20
HETATM   20  C   UNL     1      39.582 -11.726   2.412  1.00  0.00     0.273 C 
BRANCH  20  21
HETATM   21  C   UNL     1      40.027 -11.887   3.837  1.00  0.00    -0.033 A 
HETATM   22  C   UNL     1      41.387 -11.859   4.177  1.00  0.00     0.009 A 
HETATM   23  C   UNL     1      41.782 -12.009   5.507  1.00  0.00     0.001 A 
HETATM   24  C   UNL     1      40.828 -12.194   6.505  1.00  0.00     0.000 A 
HETATM   25  C   UNL     1      39.475 -12.227   6.179  1.00  0.00     0.001 A 
HETATM   26  C   UNL     1      39.075 -12.074   4.854  1.00  0.00     0.009 A 
ENDBRANCH  20  21
ENDBRANCH  16  20
ENDBRANCH   1  13
BRANCH   3  27
HETATM   27  C   UNL     1      43.690 -19.281   2.957  1.00  0.00     0.069 A 
HETATM   28  C   UNL     1      44.276 -19.830   4.106  1.00  0.00     0.095 A 
HETATM   29  C   UNL     1      44.718 -21.162   4.114  1.00  0.00     0.039 A 
HETATM   30  C   UNL     1      44.531 -21.980   3.003  1.00  0.00     0.003 A 
HETATM   31  C   UNL     1      43.903 -21.469   1.875  1.00  0.00     0.002 A 
HETATM   32  C   UNL     1      43.485 -20.134   1.854  1.00  0.00     0.032 A 
BRANCH  28  33
HETATM   33  O   UNL     1      44.451 -19.148   5.276  1.00  0.00    -0.354 OA
HETATM   34  C   UNL     1      43.980 -19.921   6.379  1.00  0.00     0.210 C 
ENDBRANCH  28  33
ENDBRANCH   3  27
TORSDOF 7
ENDMDL
MODEL 10
REMARK VINA RESULT:      -9.0      4.182      8.933
REMARK  7 active torsions:
REMARK  status: ('A' for Active; 'I' for Inactive)
REMARK    1  A    between atoms: C_4  and  C_5 
REMARK    2  A    between atoms: C_5  and  N_6 
REMARK       I    between atoms: N_6  and  C_7 
REMARK    3  A    between atoms: N_6  and  C_18 
REMARK       I    between atoms: C_7  and  N_8 
REMARK    4  A    between atoms: N_8  and  C_9 
REMARK    5  A    between atoms: C_10  and  O_11 
REMARK    6  A    between atoms: N_21  and  C_23 
REMARK    7  A    between atoms: C_23  and  C_24 
ROOT
HETATM    1  N   UNL     1      41.795 -14.574   1.295  1.00  0.00    -0.323 N 
HETATM    2  C   UNL     1      41.695 -13.851   0.081  1.00  0.00     0.323 C 
HETATM    3  N   UNL     1      41.979 -12.508   0.162  1.00  0.00    -0.306 N 
HETATM    4  O   UNL     1      41.389 -14.454  -0.942  1.00  0.00    -0.247 OA
HETATM    5  H   UNL     1      42.366 -12.162   1.019  1.00  0.00     0.171 HD
ENDROOT
BRANCH   1   6
HETATM    6  C   UNL     1      42.338 -14.007   2.535  1.00  0.00     0.193 C 
BRANCH   6   7
HETATM    7  C   UNL     1      41.252 -13.472   3.389  1.00  0.00     0.071 A 
HETATM    8  O   UNL     1      40.394 -12.595   2.791  1.00  0.00    -0.318 OA
HETATM    9  C   UNL     1      39.489 -12.214   3.736  1.00  0.00     0.049 A 
HETATM   10  C   UNL     1      38.458 -11.239   3.324  1.00  0.00     0.076 C 
HETATM   11  C   UNL     1      39.757 -12.846   4.931  1.00  0.00     0.035 A 
HETATM   12  C   UNL     1      40.895 -13.657   4.708  1.00  0.00     0.037 A 
ENDBRANCH   6   7
ENDBRANCH   1   6
BRANCH   1  13
HETATM   13  C   UNL     1      41.288 -15.979   1.247  1.00  0.00     0.092 C 
HETATM   14  C   UNL     1      40.796 -16.638   2.544  1.00  0.00     0.053 C 
HETATM   15  C   UNL     1      41.878 -17.195   3.459  1.00  0.00     0.237 C 
HETATM   16  N   UNL     1      42.896 -18.010   2.693  1.00  0.00    -0.067 N 
HETATM   17  H   UNL     1      42.426 -18.880   2.413  1.00  0.00     0.280 HD
HETATM   18  C   UNL     1      43.408 -17.334   1.443  1.00  0.00     0.237 C 
HETATM   19  C   UNL     1      42.263 -16.932   0.542  1.00  0.00     0.053 C 
BRANCH  16  20
HETATM   20  C   UNL     1      44.080 -18.431   3.552  1.00  0.00     0.273 C 
BRANCH  20  21
HETATM   21  C   UNL     1      44.301 -19.914   3.649  1.00  0.00    -0.033 A 
HETATM   22  C   UNL     1      44.152 -20.741   2.527  1.00  0.00     0.009 A 
HETATM   23  C   UNL     1      44.362 -22.116   2.635  1.00  0.00     0.001 A 
HETATM   24  C   UNL     1      44.717 -22.677   3.861  1.00  0.00     0.000 A 
HETATM   25  C   UNL     1      44.865 -21.866   4.983  1.00  0.00     0.001 A 
HETATM   26  C   UNL     1      44.660 -20.492   4.879  1.00  0.00     0.009 A 
ENDBRANCH  20  21
ENDBRANCH  16  20
ENDBRANCH   1  13
BRANCH   3  27
HETATM   27  C   UNL     1      41.950 -11.513  -0.851  1.00  0.00     0.069 A 
HETATM   28  C   UNL     1      40.837 -11.066  -1.577  1.00  0.00     0.095 A 
HETATM   29  C   UNL     1      40.987 -10.112  -2.596  1.00  0.00     0.039 A 
HETATM   30  C   UNL     1      42.231  -9.549  -2.866  1.00  0.00     0.003 A 
HETATM   31  C   UNL     1      43.335  -9.940  -2.119  1.00  0.00     0.002 A 
HETATM   32  C   UNL     1      43.194 -10.909  -1.122  1.00  0.00     0.032 A 
BRANCH  28  33
HETATM   33  O   UNL     1      39.559 -11.493  -1.359  1.00  0.00    -0.354 OA
HETATM   34  C   UNL     1      39.062 -12.183  -2.505  1.00  0.00     0.210 C 
ENDBRANCH  28  33
ENDBRANCH   3  27
TORSDOF 7
ENDMDL
