MODEL 1
REMARK VINA RESULT:      -9.3      0.000      0.000
REMARK  5 active torsions:
REMARK  status: ('A' for Active; 'I' for Inactive)
REMARK    1  A    between atoms: C_3  and  C_4 
REMARK    2  A    between atoms: C_8  and  C_9 
REMARK       I    between atoms: C_9  and  N_10 
REMARK    3  A    between atoms: N_10  and  C_11 
REMARK    4  A    between atoms: C_11  and  C_12 
REMARK    5  A    between atoms: C_24  and  O_25 
ROOT
HETATM    1  C   UNL     1      41.391 -16.002   0.336  1.00  0.00     0.270 C 
HETATM    2  N   UNL     1      41.832 -15.558  -0.894  1.00  0.00    -0.342 N 
HETATM    3  O   UNL     1      40.331 -15.646   0.841  1.00  0.00    -0.266 OA
HETATM    4  H   UNL     1      42.742 -15.857  -1.215  1.00  0.00     0.164 HD
ENDROOT
BRANCH   1   5
HETATM    5  C   UNL     1      42.296 -16.880   1.029  1.00  0.00     0.120 A 
HETATM    6  N   UNL     1      43.640 -16.634   1.060  1.00  0.00    -0.272 N 
HETATM    7  N   UNL     1      44.366 -17.606   1.636  1.00  0.00    -0.174 NA
HETATM    8  H   UNL     1      44.116 -15.830   0.659  1.00  0.00     0.189 HD
HETATM    9  C   UNL     1      43.456 -18.516   2.032  1.00  0.00     0.092 A 
HETATM   10  C   UNL     1      42.144 -18.080   1.695  1.00  0.00     0.071 A 
BRANCH   9  11
HETATM   11  C   UNL     1      43.866 -19.784   2.654  1.00  0.00     0.028 A 
HETATM   12  C   UNL     1      43.784 -20.989   1.937  1.00  0.00     0.017 A 
HETATM   13  C   UNL     1      44.222 -22.191   2.503  1.00  0.00     0.001 A 
HETATM   14  C   UNL     1      44.750 -22.207   3.792  1.00  0.00     0.003 A 
HETATM   15  C   UNL     1      44.830 -21.025   4.523  1.00  0.00     0.037 A 
HETATM   16  C   UNL     1      44.387 -19.830   3.960  1.00  0.00     0.078 A 
BRANCH  16  17
HETATM   17  O   UNL     1      44.498 -18.714   4.753  1.00  0.00    -0.360 OA
HETATM   18  H   UNL     1      44.684 -19.044   5.662  1.00  0.00     0.217 HD
ENDBRANCH  16  17
ENDBRANCH   9  11
ENDBRANCH   1   5
BRANCH   2  19
HETATM   19  C   UNL     1      41.328 -14.350  -1.494  1.00  0.00     0.064 A 
HETATM   20  C   UNL     1      41.436 -13.061  -0.699  1.00  0.00     0.039 A 
HETATM   21  C   UNL     1      42.278 -13.249  -1.919  1.00  0.00     0.039 A 
BRANCH  19  22
HETATM   22  C   UNL     1      40.065 -14.598  -2.305  1.00  0.00     0.011 A 
HETATM   23  C   UNL     1      38.821 -14.071  -1.915  1.00  0.00     0.125 A 
HETATM   24  F   UNL     1      38.746 -13.299  -0.819  1.00  0.00    -0.205 F 
HETATM   25  C   UNL     1      37.642 -14.346  -2.610  1.00  0.00     0.046 A 
HETATM   26  C   UNL     1      37.683 -15.176  -3.726  1.00  0.00     0.045 A 
HETATM   27  C   UNL     1      38.899 -15.715  -4.127  1.00  0.00     0.117 A 
HETATM   28  F   UNL     1      38.937 -16.528  -5.191  1.00  0.00    -0.206 F 
HETATM   29  C   UNL     1      40.074 -15.436  -3.434  1.00  0.00     0.055 A 
ENDBRANCH  19  22
ENDBRANCH   2  19
TORSDOF 5
ENDMDL
MODEL 2
REMARK VINA RESULT:      -9.2      1.603      3.412
REMARK  5 active torsions:
REMARK  status: ('A' for Active; 'I' for Inactive)
REMARK    1  A    between atoms: C_3  and  C_4 
REMARK    2  A    between atoms: C_8  and  C_9 
REMARK       I    between atoms: C_9  and  N_10 
REMARK    3  A    between atoms: N_10  and  C_11 
REMARK    4  A    between atoms: C_11  and  C_12 
REMARK    5  A    between atoms: C_24  and  O_25 
ROOT
HETATM    1  C   UNL     1      40.814 -15.605   1.020  1.00  0.00     0.270 C 
HETATM    2  N   UNL     1      40.528 -15.435  -0.320  1.00  0.00    -0.342 N 
HETATM    3  O   UNL     1      40.296 -14.937   1.909  1.00  0.00    -0.266 OA
HETATM    4  H   UNL     1      41.038 -15.989  -0.994  1.00  0.00     0.164 HD
ENDROOT
BRANCH   1   5
HETATM    5  C   UNL     1      41.820 -16.593   1.309  1.00  0.00     0.120 A 
HETATM    6  N   UNL     1      42.961 -16.683   0.564  1.00  0.00    -0.272 N 
HETATM    7  N   UNL     1      43.742 -17.731   0.875  1.00  0.00    -0.174 NA
HETATM    8  H   UNL     1      43.232 -16.073  -0.204  1.00  0.00     0.189 HD
HETATM    9  C   UNL     1      43.102 -18.337   1.893  1.00  0.00     0.092 A 
HETATM   10  C   UNL     1      41.907 -17.633   2.213  1.00  0.00     0.071 A 
BRANCH   9  11
HETATM   11  C   UNL     1      43.611 -19.586   2.478  1.00  0.00     0.028 A 
HETATM   12  C   UNL     1      43.511 -20.796   1.772  1.00  0.00     0.017 A 
HETATM   13  C   UNL     1      44.041 -21.980   2.299  1.00  0.00     0.001 A 
HETATM   14  C   UNL     1      44.679 -21.971   3.537  1.00  0.00     0.003 A 
HETATM   15  C   UNL     1      44.778 -20.784   4.258  1.00  0.00     0.037 A 
HETATM   16  C   UNL     1      44.244 -19.608   3.734  1.00  0.00     0.078 A 
BRANCH  16  17
HETATM   17  O   UNL     1      44.382 -18.486   4.514  1.00  0.00    -0.360 OA
HETATM   18  H   UNL     1      43.481 -18.280   4.856  1.00  0.00     0.217 HD
ENDBRANCH  16  17
ENDBRANCH   9  11
ENDBRANCH   1   5
BRANCH   2  19
HETATM   19  C   UNL     1      39.946 -14.220  -0.827  1.00  0.00     0.064 A 
HETATM   20  C   UNL     1      38.790 -14.338  -1.806  1.00  0.00     0.039 A 
HETATM   21  C   UNL     1      38.540 -13.818  -0.428  1.00  0.00     0.039 A 
BRANCH  19  22
HETATM   22  C   UNL     1      40.990 -13.139  -1.065  1.00  0.00     0.011 A 
HETATM   23  C   UNL     1      41.915 -13.226  -2.120  1.00  0.00     0.125 A 
HETATM   24  F   UNL     1      41.859 -14.270  -2.963  1.00  0.00    -0.205 F 
HETATM   25  C   UNL     1      42.922 -12.278  -2.311  1.00  0.00     0.046 A 
HETATM   26  C   UNL     1      43.031 -11.208  -1.428  1.00  0.00     0.045 A 
HETATM   27  C   UNL     1      42.132 -11.104  -0.374  1.00  0.00     0.117 A 
HETATM   28  F   UNL     1      42.246 -10.084   0.487  1.00  0.00    -0.206 F 
HETATM   29  C   UNL     1      41.126 -12.050  -0.188  1.00  0.00     0.055 A 
ENDBRANCH  19  22
ENDBRANCH   2  19
TORSDOF 5
ENDMDL
MODEL 3
REMARK VINA RESULT:      -9.2      3.586      8.577
REMARK  5 active torsions:
REMARK  status: ('A' for Active; 'I' for Inactive)
REMARK    1  A    between atoms: C_3  and  C_4 
REMARK    2  A    between atoms: C_8  and  C_9 
REMARK       I    between atoms: C_9  and  N_10 
REMARK    3  A    between atoms: N_10  and  C_11 
REMARK    4  A    between atoms: C_11  and  C_12 
REMARK    5  A    between atoms: C_24  and  O_25 
ROOT
HETATM    1  C   UNL     1      42.188 -17.445   4.491  1.00  0.00     0.270 C 
HETATM    2  N   UNL     1      43.553 -17.392   4.689  1.00  0.00    -0.342 N 
HETATM    3  O   UNL     1      41.440 -18.164   5.146  1.00  0.00    -0.266 OA
HETATM    4  H   UNL     1      44.106 -16.814   4.071  1.00  0.00     0.164 HD
ENDROOT
BRANCH   1   5
HETATM    5  C   UNL     1      41.695 -16.632   3.411  1.00  0.00     0.120 A 
HETATM    6  N   UNL     1      40.420 -16.772   2.942  1.00  0.00    -0.272 N 
HETATM    7  N   UNL     1      40.149 -16.033   1.853  1.00  0.00    -0.174 NA
HETATM    8  H   UNL     1      39.706 -17.397   3.308  1.00  0.00     0.189 HD
HETATM    9  C   UNL     1      41.286 -15.352   1.616  1.00  0.00     0.092 A 
HETATM   10  C   UNL     1      42.269 -15.679   2.592  1.00  0.00     0.071 A 
BRANCH   9  11
HETATM   11  C   UNL     1      41.417 -14.471   0.447  1.00  0.00     0.028 A 
HETATM   12  C   UNL     1      41.835 -13.139   0.601  1.00  0.00     0.017 A 
HETATM   13  C   UNL     1      42.014 -12.309  -0.512  1.00  0.00     0.001 A 
HETATM   14  C   UNL     1      41.779 -12.799  -1.795  1.00  0.00     0.003 A 
HETATM   15  C   UNL     1      41.353 -14.113  -1.968  1.00  0.00     0.037 A 
HETATM   16  C   UNL     1      41.169 -14.935  -0.858  1.00  0.00     0.078 A 
BRANCH  16  17
HETATM   17  O   UNL     1      40.743 -16.213  -1.121  1.00  0.00    -0.360 OA
HETATM   18  H   UNL     1      39.896 -16.324  -0.630  1.00  0.00     0.217 HD
ENDBRANCH  16  17
ENDBRANCH   9  11
ENDBRANCH   1   5
BRANCH   2  19
HETATM   19  C   UNL     1      44.268 -18.448   5.357  1.00  0.00     0.064 A 
HETATM   20  C   UNL     1      45.426 -18.063   6.262  1.00  0.00     0.039 A 
HETATM   21  C   UNL     1      44.170 -18.608   6.861  1.00  0.00     0.039 A 
BRANCH  19  22
HETATM   22  C   UNL     1      44.411 -19.686   4.484  1.00  0.00     0.011 A 
HETATM   23  C   UNL     1      44.444 -19.601   3.081  1.00  0.00     0.125 A 
HETATM   24  F   UNL     1      44.383 -18.395   2.493  1.00  0.00    -0.205 F 
HETATM   25  C   UNL     1      44.506 -20.731   2.266  1.00  0.00     0.046 A 
HETATM   26  C   UNL     1      44.529 -21.995   2.847  1.00  0.00     0.045 A 
HETATM   27  C   UNL     1      44.490 -22.106   4.232  1.00  0.00     0.117 A 
HETATM   28  F   UNL     1      44.495 -23.321   4.794  1.00  0.00    -0.206 F 
HETATM   29  C   UNL     1      44.432 -20.975   5.043  1.00  0.00     0.055 A 
ENDBRANCH  19  22
ENDBRANCH   2  19
TORSDOF 5
ENDMDL
MODEL 4
REMARK VINA RESULT:      -9.1      3.754      8.828
REMARK  5 active torsions:
REMARK  status: ('A' for Active; 'I' for Inactive)
REMARK    1  A    between atoms: C_3  and  C_4 
REMARK    2  A    between atoms: C_8  and  C_9 
REMARK       I    between atoms: C_9  and  N_10 
REMARK    3  A    between atoms: N_10  and  C_11 
REMARK    4  A    between atoms: C_11  and  C_12 
REMARK    5  A    between atoms: C_24  and  O_25 
ROOT
HETATM    1  C   UNL     1      42.168 -17.727   4.485  1.00  0.00     0.270 C 
HETATM    2  N   UNL     1      43.549 -17.753   4.513  1.00  0.00    -0.342 N 
HETATM    3  O   UNL     1      41.468 -18.186   5.382  1.00  0.00    -0.266 OA
HETATM    4  H   UNL     1      44.051 -17.403   3.709  1.00  0.00     0.164 HD
ENDROOT
BRANCH   1   5
HETATM    5  C   UNL     1      41.592 -17.172   3.290  1.00  0.00     0.120 A 
HETATM    6  N   UNL     1      41.934 -17.640   2.052  1.00  0.00    -0.272 N 
HETATM    7  N   UNL     1      41.409 -16.940   1.033  1.00  0.00    -0.174 NA
HETATM    8  H   UNL     1      42.562 -18.414   1.852  1.00  0.00     0.189 HD
HETATM    9  C   UNL     1      40.661 -15.990   1.627  1.00  0.00     0.092 A 
HETATM   10  C   UNL     1      40.727 -16.123   3.042  1.00  0.00     0.071 A 
BRANCH   9  11
HETATM   11  C   UNL     1      39.968 -14.962   0.837  1.00  0.00     0.028 A 
HETATM   12  C   UNL     1      38.693 -14.512   1.215  1.00  0.00     0.017 A 
HETATM   13  C   UNL     1      38.049 -13.495   0.500  1.00  0.00     0.001 A 
HETATM   14  C   UNL     1      38.671 -12.913  -0.601  1.00  0.00     0.003 A 
HETATM   15  C   UNL     1      39.931 -13.352  -0.999  1.00  0.00     0.037 A 
HETATM   16  C   UNL     1      40.567 -14.369  -0.290  1.00  0.00     0.078 A 
BRANCH  16  17
HETATM   17  O   UNL     1      41.803 -14.743  -0.754  1.00  0.00    -0.360 OA
HETATM   18  H   UNL     1      42.348 -13.923  -0.772  1.00  0.00     0.217 HD
ENDBRANCH  16  17
ENDBRANCH   9  11
ENDBRANCH   1   5
BRANCH   2  19
HETATM   19  C   UNL     1      44.278 -18.667   5.353  1.00  0.00     0.064 A 
HETATM   20  C   UNL     1      45.483 -18.134   6.107  1.00  0.00     0.039 A 
HETATM   21  C   UNL     1      44.250 -18.511   6.860  1.00  0.00     0.039 A 
BRANCH  19  22
HETATM   22  C   UNL     1      44.359 -20.060   4.749  1.00  0.00     0.011 A 
HETATM   23  C   UNL     1      44.387 -21.214   5.552  1.00  0.00     0.125 A 
HETATM   24  F   UNL     1      44.306 -21.090   6.887  1.00  0.00    -0.205 F 
HETATM   25  C   UNL     1      44.530 -22.494   5.016  1.00  0.00     0.046 A 
HETATM   26  C   UNL     1      44.658 -22.650   3.639  1.00  0.00     0.045 A 
HETATM   27  C   UNL     1      44.641 -21.525   2.824  1.00  0.00     0.117 A 
HETATM   28  F   UNL     1      44.781 -21.670   1.501  1.00  0.00    -0.206 F 
HETATM   29  C   UNL     1      44.494 -20.248   3.362  1.00  0.00     0.055 A 
ENDBRANCH  19  22
ENDBRANCH   2  19
TORSDOF 5
ENDMDL
MODEL 5
REMARK VINA RESULT:      -8.9      2.714      3.669
REMARK  5 active torsions:
REMARK  status: ('A' for Active; 'I' for Inactive)
REMARK    1  A    between atoms: C_3  and  C_4 
REMARK    2  A    between atoms: C_8  and  C_9 
REMARK       I    between atoms: C_9  and  N_10 
REMARK    3  A    between atoms: N_10  and  C_11 
REMARK    4  A    between atoms: C_11  and  C_12 
REMARK    5  A    between atoms: C_24  and  O_25 
ROOT
HETATM    1  C   UNL     1      42.648 -14.322   3.160  1.00  0.00     0.270 C 
HETATM    2  N   UNL     1      41.324 -13.979   2.973  1.00  0.00    -0.342 N 
HETATM    3  O   UNL     1      43.575 -13.528   3.029  1.00  0.00    -0.266 OA
HETATM    4  H   UNL     1      40.625 -14.704   3.049  1.00  0.00     0.164 HD
ENDROOT
BRANCH   1   5
HETATM    5  C   UNL     1      42.882 -15.708   3.467  1.00  0.00     0.120 A 
HETATM    6  N   UNL     1      43.161 -16.115   4.742  1.00  0.00    -0.272 N 
HETATM    7  N   UNL     1      43.478 -17.416   4.848  1.00  0.00    -0.174 NA
HETATM    8  H   UNL     1      43.190 -15.527   5.571  1.00  0.00     0.189 HD
HETATM    9  C   UNL     1      43.370 -17.893   3.593  1.00  0.00     0.092 A 
HETATM   10  C   UNL     1      42.968 -16.856   2.705  1.00  0.00     0.071 A 
BRANCH   9  11
HETATM   11  C   UNL     1      43.710 -19.287   3.276  1.00  0.00     0.028 A 
HETATM   12  C   UNL     1      43.275 -19.871   2.075  1.00  0.00     0.017 A 
HETATM   13  C   UNL     1      43.638 -21.181   1.741  1.00  0.00     0.001 A 
HETATM   14  C   UNL     1      44.443 -21.925   2.600  1.00  0.00     0.003 A 
HETATM   15  C   UNL     1      44.877 -21.368   3.800  1.00  0.00     0.037 A 
HETATM   16  C   UNL     1      44.507 -20.066   4.134  1.00  0.00     0.078 A 
BRANCH  16  17
HETATM   17  O   UNL     1      44.974 -19.599   5.338  1.00  0.00    -0.360 OA
HETATM   18  H   UNL     1      45.880 -19.972   5.442  1.00  0.00     0.217 HD
ENDBRANCH  16  17
ENDBRANCH   9  11
ENDBRANCH   1   5
BRANCH   2  19
HETATM   19  C   UNL     1      40.937 -12.817   2.215  1.00  0.00     0.064 A 
HETATM   20  C   UNL     1      39.620 -12.145   2.563  1.00  0.00     0.039 A 
HETATM   21  C   UNL     1      40.907 -11.450   2.867  1.00  0.00     0.039 A 
BRANCH  19  22
HETATM   22  C   UNL     1      41.325 -12.935   0.749  1.00  0.00     0.011 A 
HETATM   23  C   UNL     1      40.931 -14.035  -0.034  1.00  0.00     0.125 A 
HETATM   24  F   UNL     1      40.164 -14.992   0.513  1.00  0.00    -0.205 F 
HETATM   25  C   UNL     1      41.336 -14.191  -1.360  1.00  0.00     0.046 A 
HETATM   26  C   UNL     1      42.165 -13.236  -1.940  1.00  0.00     0.045 A 
HETATM   27  C   UNL     1      42.574 -12.144  -1.185  1.00  0.00     0.117 A 
HETATM   28  F   UNL     1      43.386 -11.232  -1.735  1.00  0.00    -0.206 F 
HETATM   29  C   UNL     1      42.165 -11.989   0.138  1.00  0.00     0.055 A 
ENDBRANCH  19  22
ENDBRANCH   2  19
TORSDOF 5
ENDMDL
MODEL 6
REMARK VINA RESULT:      -8.9      3.570      8.678
REMARK  5 active torsions:
REMARK  status: ('A' for Active; 'I' for Inactive)
REMARK    1  A    between atoms: C_3  and  C_4 
REMARK    2  A    between atoms: C_8  and  C_9 
REMARK       I    between atoms: C_9  and  N_10 
REMARK    3  A    between atoms: N_10  and  C_11 
REMARK    4  A    between atoms: C_11  and  C_12 
REMARK    5  A    between atoms: C_24  and  O_25 
ROOT
HETATM    1  C   UNL     1      43.125 -17.365   1.373  1.00  0.00     0.270 C 
HETATM    2  N   UNL     1      42.672 -18.568   1.877  1.00  0.00    -0.342 N 
HETATM    3  O   UNL     1      44.311 -17.051   1.343  1.00  0.00    -0.266 OA
HETATM    4  H   UNL     1      41.675 -18.728   1.915  1.00  0.00     0.164 HD
ENDROOT
BRANCH   1   5
HETATM    5  C   UNL     1      42.096 -16.461   0.931  1.00  0.00     0.120 A 
HETATM    6  N   UNL     1      42.069 -15.989  -0.351  1.00  0.00    -0.272 N 
HETATM    7  N   UNL     1      41.125 -15.061  -0.576  1.00  0.00    -0.174 NA
HETATM    8  H   UNL     1      42.708 -16.241  -1.101  1.00  0.00     0.189 HD
HETATM    9  C   UNL     1      40.481 -14.942   0.600  1.00  0.00     0.092 A 
HETATM   10  C   UNL     1      41.043 -15.828   1.561  1.00  0.00     0.071 A 
BRANCH   9  11
HETATM   11  C   UNL     1      39.406 -13.957   0.785  1.00  0.00     0.028 A 
HETATM   12  C   UNL     1      39.366 -13.152   1.936  1.00  0.00     0.017 A 
HETATM   13  C   UNL     1      38.377 -12.175   2.094  1.00  0.00     0.001 A 
HETATM   14  C   UNL     1      37.414 -11.986   1.105  1.00  0.00     0.003 A 
HETATM   15  C   UNL     1      37.430 -12.780  -0.038  1.00  0.00     0.037 A 
HETATM   16  C   UNL     1      38.412 -13.758  -0.191  1.00  0.00     0.078 A 
BRANCH  16  17
HETATM   17  O   UNL     1      38.348 -14.498  -1.345  1.00  0.00    -0.360 OA
HETATM   18  H   UNL     1      37.541 -14.193  -1.820  1.00  0.00     0.217 HD
ENDBRANCH  16  17
ENDBRANCH   9  11
ENDBRANCH   1   5
BRANCH   2  19
HETATM   19  C   UNL     1      43.465 -19.364   2.777  1.00  0.00     0.064 A 
HETATM   20  C   UNL     1      43.415 -20.874   2.623  1.00  0.00     0.039 A 
HETATM   21  C   UNL     1      44.664 -20.136   2.265  1.00  0.00     0.039 A 
BRANCH  19  22
HETATM   22  C   UNL     1      43.499 -18.779   4.181  1.00  0.00     0.011 A 
HETATM   23  C   UNL     1      42.357 -18.212   4.773  1.00  0.00     0.125 A 
HETATM   24  F   UNL     1      41.195 -18.215   4.101  1.00  0.00    -0.205 F 
HETATM   25  C   UNL     1      42.390 -17.610   6.032  1.00  0.00     0.046 A 
HETATM   26  C   UNL     1      43.590 -17.555   6.734  1.00  0.00     0.045 A 
HETATM   27  C   UNL     1      44.734 -18.102   6.167  1.00  0.00     0.117 A 
HETATM   28  F   UNL     1      45.894 -18.036   6.833  1.00  0.00    -0.206 F 
HETATM   29  C   UNL     1      44.698 -18.706   4.912  1.00  0.00     0.055 A 
ENDBRANCH  19  22
ENDBRANCH   2  19
TORSDOF 5
ENDMDL
MODEL 7
REMARK VINA RESULT:      -8.9      2.209      3.781
REMARK  5 active torsions:
REMARK  status: ('A' for Active; 'I' for Inactive)
REMARK    1  A    between atoms: C_3  and  C_4 
REMARK    2  A    between atoms: C_8  and  C_9 
REMARK       I    between atoms: C_9  and  N_10 
REMARK    3  A    between atoms: N_10  and  C_11 
REMARK    4  A    between atoms: C_11  and  C_12 
REMARK    5  A    between atoms: C_24  and  O_25 
ROOT
HETATM    1  C   UNL     1      39.726 -14.639   1.694  1.00  0.00     0.270 C 
HETATM    2  N   UNL     1      39.439 -14.806   0.353  1.00  0.00    -0.342 N 
HETATM    3  O   UNL     1      39.458 -13.617   2.318  1.00  0.00    -0.266 OA
HETATM    4  H   UNL     1      39.740 -15.657  -0.100  1.00  0.00     0.164 HD
ENDROOT
BRANCH   1   5
HETATM    5  C   UNL     1      40.423 -15.736   2.310  1.00  0.00     0.120 A 
HETATM    6  N   UNL     1      40.393 -15.926   3.663  1.00  0.00    -0.272 N 
HETATM    7  N   UNL     1      41.191 -16.914   4.099  1.00  0.00    -0.174 NA
HETATM    8  H   UNL     1      39.873 -15.372   4.340  1.00  0.00     0.189 HD
HETATM    9  C   UNL     1      41.744 -17.420   2.980  1.00  0.00     0.092 A 
HETATM   10  C   UNL     1      41.261 -16.726   1.835  1.00  0.00     0.071 A 
BRANCH   9  11
HETATM   11  C   UNL     1      42.747 -18.492   3.042  1.00  0.00     0.028 A 
HETATM   12  C   UNL     1      42.844 -19.440   2.010  1.00  0.00     0.017 A 
HETATM   13  C   UNL     1      43.831 -20.431   2.036  1.00  0.00     0.001 A 
HETATM   14  C   UNL     1      44.737 -20.490   3.092  1.00  0.00     0.003 A 
HETATM   15  C   UNL     1      44.652 -19.566   4.131  1.00  0.00     0.037 A 
HETATM   16  C   UNL     1      43.663 -18.583   4.106  1.00  0.00     0.078 A 
BRANCH  16  17
HETATM   17  O   UNL     1      43.649 -17.719   5.172  1.00  0.00    -0.360 OA
HETATM   18  H   UNL     1      43.814 -18.270   5.972  1.00  0.00     0.217 HD
ENDBRANCH  16  17
ENDBRANCH   9  11
ENDBRANCH   1   5
BRANCH   2  19
HETATM   19  C   UNL     1      39.201 -13.686  -0.520  1.00  0.00     0.064 A 
HETATM   20  C   UNL     1      38.111 -13.820  -1.569  1.00  0.00     0.039 A 
HETATM   21  C   UNL     1      37.915 -12.891  -0.415  1.00  0.00     0.039 A 
BRANCH  19  22
HETATM   22  C   UNL     1      40.489 -12.973  -0.901  1.00  0.00     0.011 A 
HETATM   23  C   UNL     1      41.430 -13.558  -1.768  1.00  0.00     0.125 A 
HETATM   24  F   UNL     1      41.173 -14.762  -2.302  1.00  0.00    -0.205 F 
HETATM   25  C   UNL     1      42.647 -12.946  -2.072  1.00  0.00     0.046 A 
HETATM   26  C   UNL     1      42.957 -11.717  -1.499  1.00  0.00     0.045 A 
HETATM   27  C   UNL     1      42.048 -11.121  -0.634  1.00  0.00     0.117 A 
HETATM   28  F   UNL     1      42.352  -9.946  -0.069  1.00  0.00    -0.206 F 
HETATM   29  C   UNL     1      40.832 -11.733  -0.335  1.00  0.00     0.055 A 
ENDBRANCH  19  22
ENDBRANCH   2  19
TORSDOF 5
ENDMDL
MODEL 8
REMARK VINA RESULT:      -8.8      2.133      2.912
REMARK  5 active torsions:
REMARK  status: ('A' for Active; 'I' for Inactive)
REMARK    1  A    between atoms: C_3  and  C_4 
REMARK    2  A    between atoms: C_8  and  C_9 
REMARK       I    between atoms: C_9  and  N_10 
REMARK    3  A    between atoms: N_10  and  C_11 
REMARK    4  A    between atoms: C_11  and  C_12 
REMARK    5  A    between atoms: C_24  and  O_25 
ROOT
HETATM    1  C   UNL     1      42.416 -15.521   2.311  1.00  0.00     0.270 C 
HETATM    2  N   UNL     1      41.132 -15.631   1.814  1.00  0.00    -0.342 N 
HETATM    3  O   UNL     1      42.945 -14.447   2.578  1.00  0.00    -0.266 OA
HETATM    4  H   UNL     1      40.788 -16.549   1.570  1.00  0.00     0.164 HD
ENDROOT
BRANCH   1   5
HETATM    5  C   UNL     1      43.127 -16.765   2.443  1.00  0.00     0.120 A 
HETATM    6  N   UNL     1      43.843 -17.288   1.403  1.00  0.00    -0.272 N 
HETATM    7  N   UNL     1      44.346 -18.511   1.640  1.00  0.00    -0.174 NA
HETATM    8  H   UNL     1      43.979 -16.863   0.490  1.00  0.00     0.189 HD
HETATM    9  C   UNL     1      43.974 -18.790   2.904  1.00  0.00     0.092 A 
HETATM   10  C   UNL     1      43.233 -17.704   3.451  1.00  0.00     0.071 A 
BRANCH   9  11
HETATM   11  C   UNL     1      44.278 -20.090   3.519  1.00  0.00     0.028 A 
HETATM   12  C   UNL     1      44.549 -20.182   4.894  1.00  0.00     0.017 A 
HETATM   13  C   UNL     1      44.787 -21.422   5.497  1.00  0.00     0.001 A 
HETATM   14  C   UNL     1      44.756 -22.588   4.735  1.00  0.00     0.003 A 
HETATM   15  C   UNL     1      44.500 -22.517   3.368  1.00  0.00     0.037 A 
HETATM   16  C   UNL     1      44.270 -21.280   2.769  1.00  0.00     0.078 A 
BRANCH  16  17
HETATM   17  O   UNL     1      44.031 -21.302   1.417  1.00  0.00    -0.360 OA
HETATM   18  H   UNL     1      44.896 -21.507   0.991  1.00  0.00     0.217 HD
ENDBRANCH  16  17
ENDBRANCH   9  11
ENDBRANCH   1   5
BRANCH   2  19
HETATM   19  C   UNL     1      40.465 -14.526   1.175  1.00  0.00     0.064 A 
HETATM   20  C   UNL     1      38.970 -14.373   1.396  1.00  0.00     0.039 A 
HETATM   21  C   UNL     1      39.911 -13.384   2.001  1.00  0.00     0.039 A 
BRANCH  19  22
HETATM   22  C   UNL     1      41.026 -14.241  -0.209  1.00  0.00     0.011 A 
HETATM   23  C   UNL     1      41.809 -13.103  -0.470  1.00  0.00     0.125 A 
HETATM   24  F   UNL     1      42.101 -12.260   0.534  1.00  0.00    -0.205 F 
HETATM   25  C   UNL     1      42.273 -12.792  -1.749  1.00  0.00     0.046 A 
HETATM   26  C   UNL     1      41.952 -13.626  -2.815  1.00  0.00     0.045 A 
HETATM   27  C   UNL     1      41.173 -14.753  -2.585  1.00  0.00     0.117 A 
HETATM   28  F   UNL     1      40.848 -15.548  -3.613  1.00  0.00    -0.206 F 
HETATM   29  C   UNL     1      40.714 -15.063  -1.307  1.00  0.00     0.055 A 
ENDBRANCH  19  22
ENDBRANCH   2  19
TORSDOF 5
ENDMDL
MODEL 9
REMARK VINA RESULT:      -8.7      7.698      9.922
REMARK  5 active torsions:
REMARK  status: ('A' for Active; 'I' for Inactive)
REMARK    1  A    between atoms: C_3  and  C_4 
REMARK    2  A    between atoms: C_8  and  C_9 
REMARK       I    between atoms: C_9  and  N_10 
REMARK    3  A    between atoms: N_10  and  C_11 
REMARK    4  A    between atoms: C_11  and  C_12 
REMARK    5  A    between atoms: C_24  and  O_25 
ROOT
HETATM    1  C   UNL     1      43.676 -13.929   5.582  1.00  0.00     0.270 C 
HETATM    2  N   UNL     1      42.567 -14.752   5.612  1.00  0.00    -0.342 N 
HETATM    3  O   UNL     1      44.359 -13.756   4.578  1.00  0.00    -0.266 OA
HETATM    4  H   UNL     1      42.090 -14.882   6.493  1.00  0.00     0.164 HD
ENDROOT
BRANCH   1   5
HETATM    5  C   UNL     1      44.020 -13.321   6.840  1.00  0.00     0.120 A 
HETATM    6  N   UNL     1      45.173 -13.649   7.495  1.00  0.00    -0.272 N 
HETATM    7  N   UNL     1      45.293 -13.094   8.712  1.00  0.00    -0.174 NA
HETATM    8  H   UNL     1      45.894 -14.288   7.168  1.00  0.00     0.189 HD
HETATM    9  C   UNL     1      44.186 -12.340   8.849  1.00  0.00     0.092 A 
HETATM   10  C   UNL     1      43.378 -12.434   7.681  1.00  0.00     0.071 A 
BRANCH   9  11
HETATM   11  C   UNL     1      43.907 -11.614  10.097  1.00  0.00     0.028 A 
HETATM   12  C   UNL     1      43.619 -10.240  10.073  1.00  0.00     0.017 A 
HETATM   13  C   UNL     1      43.300  -9.553  11.250  1.00  0.00     0.001 A 
HETATM   14  C   UNL     1      43.263 -10.229  12.467  1.00  0.00     0.003 A 
HETATM   15  C   UNL     1      43.556 -11.590  12.514  1.00  0.00     0.037 A 
HETATM   16  C   UNL     1      43.880 -12.270  11.341  1.00  0.00     0.078 A 
BRANCH  16  17
HETATM   17  O   UNL     1      44.160 -13.607  11.480  1.00  0.00    -0.360 OA
HETATM   18  H   UNL     1      43.498 -14.083  10.927  1.00  0.00     0.217 HD
ENDBRANCH  16  17
ENDBRANCH   9  11
ENDBRANCH   1   5
BRANCH   2  19
HETATM   19  C   UNL     1      42.359 -15.786   4.633  1.00  0.00     0.064 A 
HETATM   20  C   UNL     1      40.987 -15.890   3.988  1.00  0.00     0.039 A 
HETATM   21  C   UNL     1      42.153 -15.431   3.174  1.00  0.00     0.039 A 
BRANCH  19  22
HETATM   22  C   UNL     1      43.090 -17.071   4.991  1.00  0.00     0.011 A 
HETATM   23  C   UNL     1      43.860 -17.772   4.046  1.00  0.00     0.125 A 
HETATM   24  F   UNL     1      43.983 -17.281   2.802  1.00  0.00    -0.205 F 
HETATM   25  C   UNL     1      44.480 -18.987   4.341  1.00  0.00     0.046 A 
HETATM   26  C   UNL     1      44.334 -19.540   5.609  1.00  0.00     0.045 A 
HETATM   27  C   UNL     1      43.573 -18.870   6.559  1.00  0.00     0.117 A 
HETATM   28  F   UNL     1      43.417 -19.409   7.775  1.00  0.00    -0.206 F 
HETATM   29  C   UNL     1      42.958 -17.655   6.263  1.00  0.00     0.055 A 
ENDBRANCH  19  22
ENDBRANCH   2  19
TORSDOF 5
ENDMDL
MODEL 10
REMARK VINA RESULT:      -8.6      3.583      8.409
REMARK  5 active torsions:
REMARK  status: ('A' for Active; 'I' for Inactive)
REMARK    1  A    between atoms: C_3  and  C_4 
REMARK    2  A    between atoms: C_8  and  C_9 
REMARK       I    between atoms: C_9  and  N_10 
REMARK    3  A    between atoms: N_10  and  C_11 
REMARK    4  A    between atoms: C_11  and  C_12 
REMARK    5  A    between atoms: C_24  and  O_25 
ROOT
HETATM    1  C   UNL     1      41.515 -15.399   3.129  1.00  0.00     0.270 C 
HETATM    2  N   UNL     1      42.587 -16.060   3.694  1.00  0.00    -0.342 N 
HETATM    3  O   UNL     1      40.353 -15.575   3.482  1.00  0.00    -0.266 OA
HETATM    4  H   UNL     1      43.508 -15.898   3.310  1.00  0.00     0.164 HD
ENDROOT
BRANCH   1   5
HETATM    5  C   UNL     1      41.846 -14.517   2.041  1.00  0.00     0.120 A 
HETATM    6  N   UNL     1      42.279 -13.241   2.269  1.00  0.00    -0.272 N 
HETATM    7  N   UNL     1      42.427 -12.503   1.156  1.00  0.00    -0.174 NA
HETATM    8  H   UNL     1      42.447 -12.812   3.175  1.00  0.00     0.189 HD
HETATM    9  C   UNL     1      42.109 -13.340   0.151  1.00  0.00     0.092 A 
HETATM   10  C   UNL     1      41.769 -14.623   0.666  1.00  0.00     0.071 A 
BRANCH   9  11
HETATM   11  C   UNL     1      42.081 -12.880  -1.245  1.00  0.00     0.028 A 
HETATM   12  C   UNL     1      41.301 -13.551  -2.201  1.00  0.00     0.017 A 
HETATM   13  C   UNL     1      41.226 -13.088  -3.520  1.00  0.00     0.001 A 
HETATM   14  C   UNL     1      41.927 -11.946  -3.901  1.00  0.00     0.003 A 
HETATM   15  C   UNL     1      42.714 -11.273  -2.971  1.00  0.00     0.037 A 
HETATM   16  C   UNL     1      42.793 -11.740  -1.660  1.00  0.00     0.078 A 
BRANCH  16  17
HETATM   17  O   UNL     1      43.595 -11.019  -0.812  1.00  0.00    -0.360 OA
HETATM   18  H   UNL     1      43.901 -10.236  -1.326  1.00  0.00     0.217 HD
ENDBRANCH  16  17
ENDBRANCH   9  11
ENDBRANCH   1   5
BRANCH   2  19
HETATM   19  C   UNL     1      42.425 -17.290   4.424  1.00  0.00     0.064 A 
HETATM   20  C   UNL     1      42.398 -17.219   5.941  1.00  0.00     0.039 A 
HETATM   21  C   UNL     1      41.150 -17.562   5.195  1.00  0.00     0.039 A 
BRANCH  19  22
HETATM   22  C   UNL     1      43.159 -18.448   3.766  1.00  0.00     0.011 A 
HETATM   23  C   UNL     1      42.817 -18.907   2.482  1.00  0.00     0.125 A 
HETATM   24  F   UNL     1      41.839 -18.288   1.800  1.00  0.00    -0.205 F 
HETATM   25  C   UNL     1      43.434 -20.011   1.893  1.00  0.00     0.046 A 
HETATM   26  C   UNL     1      44.421 -20.697   2.593  1.00  0.00     0.045 A 
HETATM   27  C   UNL     1      44.774 -20.268   3.867  1.00  0.00     0.117 A 
HETATM   28  F   UNL     1      45.711 -20.938   4.550  1.00  0.00    -0.206 F 
HETATM   29  C   UNL     1      44.157 -19.163   4.450  1.00  0.00     0.055 A 
ENDBRANCH  19  22
ENDBRANCH   2  19
TORSDOF 5
ENDMDL
