MODEL 1
REMARK VINA RESULT:      -8.1      0.000      0.000
REMARK  8 active torsions:
REMARK  status: ('A' for Active; 'I' for Inactive)
REMARK    1  A    between atoms: O_2  and  C_3 
REMARK    2  A    between atoms: C_4  and  N_5 
REMARK    3  A    between atoms: N_5  and  C_6 
REMARK    4  A    between atoms: C_6  and  N_7 
REMARK    5  A    between atoms: N_7  and  N_8 
REMARK       I    between atoms: N_8  and  C_9 
REMARK    6  A    between atoms: C_9  and  C_10 
REMARK    7  A    between atoms: N_13  and  C_15 
REMARK    8  A    between atoms: C_15  and  C_16 
ROOT
HETATM    1  N   UNL     1      40.230 -14.160   3.175  1.00  0.00    -0.268 N 
HETATM    2  C   UNL     1      41.011 -14.418   2.068  1.00  0.00     0.240 C 
HETATM    3  O   UNL     1      41.976 -13.723   1.759  1.00  0.00    -0.271 OA
HETATM    4  H   UNL     1      39.607 -14.841   3.597  1.00  0.00     0.190 HD
ENDROOT
BRANCH   1   5
HETATM    5  N   UNL     1      40.556 -13.039   3.973  1.00  0.00    -0.274 N 
HETATM    6  H   UNL     1      40.142 -12.165   3.645  1.00  0.00     0.189 HD
BRANCH   5   7
HETATM    7  C   UNL     1      40.596 -13.135   5.352  1.00  0.00     0.191 C 
HETATM    8  S   UNL     1      39.420 -12.577   6.411  1.00  0.00    -0.039 SA
BRANCH   7   9
HETATM    9  N   UNL     1      41.724 -13.688   5.887  1.00  0.00    -0.330 N 
HETATM   10  H   UNL     1      42.388 -13.023   6.279  1.00  0.00     0.168 HD
BRANCH   9  11
HETATM   11  C   UNL     1      42.119 -15.034   6.058  1.00  0.00     0.068 A 
HETATM   12  C   UNL     1      43.506 -15.300   6.082  1.00  0.00     0.095 A 
HETATM   13  C   UNL     1      43.956 -16.602   6.313  1.00  0.00     0.039 A 
HETATM   14  C   UNL     1      43.040 -17.634   6.522  1.00  0.00     0.003 A 
HETATM   15  C   UNL     1      41.673 -17.370   6.511  1.00  0.00     0.002 A 
HETATM   16  C   UNL     1      41.212 -16.073   6.283  1.00  0.00     0.032 A 
BRANCH  12  17
HETATM   17  O   UNL     1      44.321 -14.212   5.874  1.00  0.00    -0.354 OA
HETATM   18  C   UNL     1      45.148 -13.816   6.964  1.00  0.00     0.210 C 
ENDBRANCH  12  17
ENDBRANCH   9  11
ENDBRANCH   7   9
ENDBRANCH   5   7
ENDBRANCH   1   5
BRANCH   2  19
HETATM   19  C   UNL     1      40.604 -15.632   1.226  1.00  0.00     0.082 C 
HETATM   20  C   UNL     1      40.231 -16.799   2.154  1.00  0.00     0.042 C 
HETATM   21  C   UNL     1      41.439 -17.296   2.947  1.00  0.00     0.236 C 
HETATM   22  N   UNL     1      42.554 -17.702   2.005  1.00  0.00    -0.067 N 
HETATM   23  H   UNL     1      42.240 -18.549   1.518  1.00  0.00     0.280 HD
HETATM   24  C   UNL     1      42.909 -16.660   0.976  1.00  0.00     0.236 C 
HETATM   25  C   UNL     1      41.679 -16.129   0.259  1.00  0.00     0.042 C 
BRANCH  22  26
HETATM   26  C   UNL     1      43.819 -18.091   2.764  1.00  0.00     0.273 C 
BRANCH  26  27
HETATM   27  C   UNL     1      44.042 -19.573   2.876  1.00  0.00    -0.033 A 
HETATM   28  C   UNL     1      44.612 -20.128   4.030  1.00  0.00     0.009 A 
HETATM   29  C   UNL     1      44.816 -21.506   4.120  1.00  0.00     0.001 A 
HETATM   30  C   UNL     1      44.457 -22.337   3.061  1.00  0.00     0.000 A 
HETATM   31  C   UNL     1      43.890 -21.795   1.911  1.00  0.00     0.001 A 
HETATM   32  C   UNL     1      43.682 -20.420   1.815  1.00  0.00     0.009 A 
ENDBRANCH  26  27
ENDBRANCH  22  26
ENDBRANCH   2  19
TORSDOF 8
ENDMDL
MODEL 2
REMARK VINA RESULT:      -7.7      2.927      4.130
REMARK  8 active torsions:
REMARK  status: ('A' for Active; 'I' for Inactive)
REMARK    1  A    between atoms: O_2  and  C_3 
REMARK    2  A    between atoms: C_4  and  N_5 
REMARK    3  A    between atoms: N_5  and  C_6 
REMARK    4  A    between atoms: C_6  and  N_7 
REMARK    5  A    between atoms: N_7  and  N_8 
REMARK       I    between atoms: N_8  and  C_9 
REMARK    6  A    between atoms: C_9  and  C_10 
REMARK    7  A    between atoms: N_13  and  C_15 
REMARK    8  A    between atoms: C_15  and  C_16 
ROOT
HETATM    1  N   UNL     1      41.252 -13.697   6.249  1.00  0.00    -0.268 N 
HETATM    2  C   UNL     1      41.530 -14.331   5.057  1.00  0.00     0.240 C 
HETATM    3  O   UNL     1      42.436 -13.972   4.307  1.00  0.00    -0.271 OA
HETATM    4  H   UNL     1      40.703 -14.113   6.995  1.00  0.00     0.190 HD
ENDROOT
BRANCH   1   5
HETATM    5  N   UNL     1      42.041 -12.579   6.608  1.00  0.00    -0.274 N 
HETATM    6  H   UNL     1      42.773 -12.358   5.933  1.00  0.00     0.189 HD
BRANCH   5   7
HETATM    7  C   UNL     1      41.466 -11.456   7.174  1.00  0.00     0.191 C 
HETATM    8  S   UNL     1      39.855 -11.007   7.047  1.00  0.00    -0.039 SA
BRANCH   7   9
HETATM    9  N   UNL     1      42.310 -10.619   7.848  1.00  0.00    -0.330 N 
HETATM   10  H   UNL     1      42.676  -9.843   7.301  1.00  0.00     0.168 HD
BRANCH   9  11
HETATM   11  C   UNL     1      42.725 -10.594   9.198  1.00  0.00     0.068 A 
HETATM   12  C   UNL     1      43.931 -11.256   9.513  1.00  0.00     0.095 A 
HETATM   13  C   UNL     1      44.425 -11.208  10.819  1.00  0.00     0.039 A 
HETATM   14  C   UNL     1      43.731 -10.507  11.806  1.00  0.00     0.003 A 
HETATM   15  C   UNL     1      42.547  -9.844  11.493  1.00  0.00     0.002 A 
HETATM   16  C   UNL     1      42.046  -9.884  10.192  1.00  0.00     0.032 A 
BRANCH  12  17
HETATM   17  O   UNL     1      44.541 -11.908   8.466  1.00  0.00    -0.354 OA
HETATM   18  C   UNL     1      45.864 -12.381   8.692  1.00  0.00     0.210 C 
ENDBRANCH  12  17
ENDBRANCH   9  11
ENDBRANCH   7   9
ENDBRANCH   5   7
ENDBRANCH   1   5
BRANCH   2  19
HETATM   19  C   UNL     1      40.634 -15.524   4.704  1.00  0.00     0.082 C 
HETATM   20  C   UNL     1      40.898 -16.673   5.691  1.00  0.00     0.042 C 
HETATM   21  C   UNL     1      42.314 -17.227   5.545  1.00  0.00     0.236 C 
HETATM   22  N   UNL     1      42.554 -17.685   4.120  1.00  0.00    -0.067 N 
HETATM   23  H   UNL     1      41.970 -18.516   3.972  1.00  0.00     0.280 HD
HETATM   24  C   UNL     1      42.208 -16.661   3.072  1.00  0.00     0.236 C 
HETATM   25  C   UNL     1      40.824 -16.071   3.289  1.00  0.00     0.042 C 
BRANCH  22  26
HETATM   26  C   UNL     1      43.996 -18.134   3.909  1.00  0.00     0.273 C 
BRANCH  26  27
HETATM   27  C   UNL     1      44.143 -19.575   3.508  1.00  0.00    -0.033 A 
HETATM   28  C   UNL     1      43.746 -20.010   2.236  1.00  0.00     0.009 A 
HETATM   29  C   UNL     1      43.885 -21.353   1.877  1.00  0.00     0.001 A 
HETATM   30  C   UNL     1      44.416 -22.267   2.784  1.00  0.00     0.000 A 
HETATM   31  C   UNL     1      44.813 -21.845   4.049  1.00  0.00     0.001 A 
HETATM   32  C   UNL     1      44.678 -20.506   4.413  1.00  0.00     0.009 A 
ENDBRANCH  26  27
ENDBRANCH  22  26
ENDBRANCH   2  19
TORSDOF 8
ENDMDL
MODEL 3
REMARK VINA RESULT:      -7.7      3.598      6.029
REMARK  8 active torsions:
REMARK  status: ('A' for Active; 'I' for Inactive)
REMARK    1  A    between atoms: O_2  and  C_3 
REMARK    2  A    between atoms: C_4  and  N_5 
REMARK    3  A    between atoms: N_5  and  C_6 
REMARK    4  A    between atoms: C_6  and  N_7 
REMARK    5  A    between atoms: N_7  and  N_8 
REMARK       I    between atoms: N_8  and  C_9 
REMARK    6  A    between atoms: C_9  and  C_10 
REMARK    7  A    between atoms: N_13  and  C_15 
REMARK    8  A    between atoms: C_15  and  C_16 
ROOT
HETATM    1  N   UNL     1      41.338 -15.320   0.710  1.00  0.00    -0.268 N 
HETATM    2  C   UNL     1      40.802 -15.682   1.928  1.00  0.00     0.240 C 
HETATM    3  O   UNL     1      39.643 -16.069   2.056  1.00  0.00    -0.271 OA
HETATM    4  H   UNL     1      42.334 -15.251   0.529  1.00  0.00     0.190 HD
ENDROOT
BRANCH   1   5
HETATM    5  N   UNL     1      40.504 -15.387  -0.431  1.00  0.00    -0.274 N 
HETATM    6  H   UNL     1      39.545 -15.085  -0.258  1.00  0.00     0.189 HD
BRANCH   5   7
HETATM    7  C   UNL     1      40.974 -15.016  -1.678  1.00  0.00     0.191 C 
HETATM    8  S   UNL     1      40.328 -15.491  -3.151  1.00  0.00    -0.039 SA
BRANCH   7   9
HETATM    9  N   UNL     1      42.096 -14.239  -1.694  1.00  0.00    -0.330 N 
HETATM   10  H   UNL     1      42.971 -14.739  -1.550  1.00  0.00     0.168 HD
BRANCH   9  11
HETATM   11  C   UNL     1      42.278 -12.859  -1.941  1.00  0.00     0.068 A 
HETATM   12  C   UNL     1      42.430 -12.019  -0.817  1.00  0.00     0.095 A 
HETATM   13  C   UNL     1      42.678 -10.657  -1.001  1.00  0.00     0.039 A 
HETATM   14  C   UNL     1      42.778 -10.130  -2.289  1.00  0.00     0.003 A 
HETATM   15  C   UNL     1      42.641 -10.960  -3.398  1.00  0.00     0.002 A 
HETATM   16  C   UNL     1      42.394 -12.323  -3.227  1.00  0.00     0.032 A 
BRANCH  12  17
HETATM   17  O   UNL     1      42.323 -12.639   0.406  1.00  0.00    -0.354 OA
HETATM   18  C   UNL     1      41.691 -11.899   1.445  1.00  0.00     0.210 C 
ENDBRANCH  12  17
ENDBRANCH   9  11
ENDBRANCH   7   9
ENDBRANCH   5   7
ENDBRANCH   1   5
BRANCH   2  19
HETATM   19  C   UNL     1      41.741 -15.573   3.135  1.00  0.00     0.082 C 
HETATM   20  C   UNL     1      43.188 -15.405   2.646  1.00  0.00     0.042 C 
HETATM   21  C   UNL     1      43.683 -16.652   1.914  1.00  0.00     0.236 C 
HETATM   22  N   UNL     1      43.562 -17.869   2.809  1.00  0.00    -0.067 N 
HETATM   23  H   UNL     1      44.254 -17.757   3.559  1.00  0.00     0.280 HD
HETATM   24  C   UNL     1      42.202 -18.049   3.433  1.00  0.00     0.236 C 
HETATM   25  C   UNL     1      41.704 -16.770   4.085  1.00  0.00     0.042 C 
BRANCH  22  26
HETATM   26  C   UNL     1      43.935 -19.150   2.071  1.00  0.00     0.273 C 
BRANCH  26  27
HETATM   27  C   UNL     1      44.272 -20.306   2.970  1.00  0.00    -0.033 A 
HETATM   28  C   UNL     1      44.273 -21.620   2.482  1.00  0.00     0.009 A 
HETATM   29  C   UNL     1      44.586 -22.685   3.329  1.00  0.00     0.001 A 
HETATM   30  C   UNL     1      44.896 -22.446   4.666  1.00  0.00     0.000 A 
HETATM   31  C   UNL     1      44.897 -21.145   5.161  1.00  0.00     0.001 A 
HETATM   32  C   UNL     1      44.587 -20.078   4.320  1.00  0.00     0.009 A 
ENDBRANCH  26  27
ENDBRANCH  22  26
ENDBRANCH   2  19
TORSDOF 8
ENDMDL
MODEL 4
REMARK VINA RESULT:      -7.6      2.984      6.008
REMARK  8 active torsions:
REMARK  status: ('A' for Active; 'I' for Inactive)
REMARK    1  A    between atoms: O_2  and  C_3 
REMARK    2  A    between atoms: C_4  and  N_5 
REMARK    3  A    between atoms: N_5  and  C_6 
REMARK    4  A    between atoms: C_6  and  N_7 
REMARK    5  A    between atoms: N_7  and  N_8 
REMARK       I    between atoms: N_8  and  C_9 
REMARK    6  A    between atoms: C_9  and  C_10 
REMARK    7  A    between atoms: N_13  and  C_15 
REMARK    8  A    between atoms: C_15  and  C_16 
ROOT
HETATM    1  N   UNL     1      40.133 -16.247   3.097  1.00  0.00    -0.268 N 
HETATM    2  C   UNL     1      40.593 -15.351   4.038  1.00  0.00     0.240 C 
HETATM    3  O   UNL     1      40.647 -14.140   3.832  1.00  0.00    -0.271 OA
HETATM    4  H   UNL     1      39.835 -17.192   3.316  1.00  0.00     0.190 HD
ENDROOT
BRANCH   1   5
HETATM    5  N   UNL     1      39.722 -15.743   1.841  1.00  0.00    -0.274 N 
HETATM    6  H   UNL     1      39.185 -14.877   1.901  1.00  0.00     0.189 HD
BRANCH   5   7
HETATM    7  C   UNL     1      40.567 -15.783   0.747  1.00  0.00     0.191 C 
HETATM    8  S   UNL     1      41.957 -16.712   0.613  1.00  0.00    -0.039 SA
BRANCH   7   9
HETATM    9  N   UNL     1      40.259 -14.945  -0.286  1.00  0.00    -0.330 N 
HETATM   10  H   UNL     1      39.263 -14.809  -0.451  1.00  0.00     0.168 HD
BRANCH   9  11
HETATM   11  C   UNL     1      41.074 -14.170  -1.141  1.00  0.00     0.068 A 
HETATM   12  C   UNL     1      41.124 -14.549  -2.500  1.00  0.00     0.095 A 
HETATM   13  C   UNL     1      41.862 -13.782  -3.405  1.00  0.00     0.039 A 
HETATM   14  C   UNL     1      42.543 -12.645  -2.969  1.00  0.00     0.003 A 
HETATM   15  C   UNL     1      42.484 -12.264  -1.631  1.00  0.00     0.002 A 
HETATM   16  C   UNL     1      41.749 -13.022  -0.718  1.00  0.00     0.032 A 
BRANCH  12  17
HETATM   17  O   UNL     1      40.411 -15.679  -2.827  1.00  0.00    -0.354 OA
HETATM   18  C   UNL     1      39.403 -15.532  -3.822  1.00  0.00     0.210 C 
ENDBRANCH  12  17
ENDBRANCH   9  11
ENDBRANCH   7   9
ENDBRANCH   5   7
ENDBRANCH   1   5
BRANCH   2  19
HETATM   19  C   UNL     1      41.044 -15.950   5.375  1.00  0.00     0.082 C 
HETATM   20  C   UNL     1      42.499 -15.542   5.654  1.00  0.00     0.042 C 
HETATM   21  C   UNL     1      43.461 -16.156   4.638  1.00  0.00     0.236 C 
HETATM   22  N   UNL     1      43.325 -17.665   4.631  1.00  0.00    -0.067 N 
HETATM   23  H   UNL     1      43.697 -18.002   5.526  1.00  0.00     0.280 HD
HETATM   24  C   UNL     1      41.910 -18.160   4.480  1.00  0.00     0.236 C 
HETATM   25  C   UNL     1      40.963 -17.475   5.452  1.00  0.00     0.042 C 
BRANCH  22  26
HETATM   26  C   UNL     1      44.184 -18.302   3.544  1.00  0.00     0.273 C 
BRANCH  26  27
HETATM   27  C   UNL     1      44.349 -19.790   3.679  1.00  0.00    -0.033 A 
HETATM   28  C   UNL     1      44.663 -20.369   4.916  1.00  0.00     0.009 A 
HETATM   29  C   UNL     1      44.815 -21.753   5.027  1.00  0.00     0.001 A 
HETATM   30  C   UNL     1      44.659 -22.565   3.906  1.00  0.00     0.000 A 
HETATM   31  C   UNL     1      44.348 -22.000   2.673  1.00  0.00     0.001 A 
HETATM   32  C   UNL     1      44.193 -20.620   2.556  1.00  0.00     0.009 A 
ENDBRANCH  26  27
ENDBRANCH  22  26
ENDBRANCH   2  19
TORSDOF 8
ENDMDL
MODEL 5
REMARK VINA RESULT:      -7.4      3.737      5.021
REMARK  8 active torsions:
REMARK  status: ('A' for Active; 'I' for Inactive)
REMARK    1  A    between atoms: O_2  and  C_3 
REMARK    2  A    between atoms: C_4  and  N_5 
REMARK    3  A    between atoms: N_5  and  C_6 
REMARK    4  A    between atoms: C_6  and  N_7 
REMARK    5  A    between atoms: N_7  and  N_8 
REMARK       I    between atoms: N_8  and  C_9 
REMARK    6  A    between atoms: C_9  and  C_10 
REMARK    7  A    between atoms: N_13  and  C_15 
REMARK    8  A    between atoms: C_15  and  C_16 
ROOT
HETATM    1  N   UNL     1      41.314 -13.108   6.249  1.00  0.00    -0.268 N 
HETATM    2  C   UNL     1      41.870 -14.308   5.861  1.00  0.00     0.240 C 
HETATM    3  O   UNL     1      43.068 -14.554   5.974  1.00  0.00    -0.271 OA
HETATM    4  H   UNL     1      40.321 -12.971   6.411  1.00  0.00     0.190 HD
ENDROOT
BRANCH   1   5
HETATM    5  N   UNL     1      42.172 -12.120   6.788  1.00  0.00    -0.274 N 
HETATM    6  H   UNL     1      42.949 -11.872   6.175  1.00  0.00     0.189 HD
BRANCH   5   7
HETATM    7  C   UNL     1      41.663 -11.040   7.485  1.00  0.00     0.191 C 
HETATM    8  S   UNL     1      41.284  -9.541   6.833  1.00  0.00    -0.039 SA
BRANCH   7   9
HETATM    9  N   UNL     1      41.512 -11.206   8.832  1.00  0.00    -0.330 N 
HETATM   10  H   UNL     1      40.719 -11.780   9.110  1.00  0.00     0.168 HD
BRANCH   9  11
HETATM   11  C   UNL     1      42.299 -10.775   9.924  1.00  0.00     0.068 A 
HETATM   12  C   UNL     1      41.639 -10.070  10.954  1.00  0.00     0.095 A 
HETATM   13  C   UNL     1      42.352  -9.677  12.088  1.00  0.00     0.039 A 
HETATM   14  C   UNL     1      43.708  -9.982  12.205  1.00  0.00     0.003 A 
HETATM   15  C   UNL     1      44.357 -10.688  11.195  1.00  0.00     0.002 A 
HETATM   16  C   UNL     1      43.654 -11.087  10.058  1.00  0.00     0.032 A 
BRANCH  12  17
HETATM   17  O   UNL     1      40.301  -9.829  10.744  1.00  0.00    -0.354 OA
HETATM   18  C   UNL     1      39.504  -9.597  11.902  1.00  0.00     0.210 C 
ENDBRANCH  12  17
ENDBRANCH   9  11
ENDBRANCH   7   9
ENDBRANCH   5   7
ENDBRANCH   1   5
BRANCH   2  19
HETATM   19  C   UNL     1      40.901 -15.337   5.265  1.00  0.00     0.082 C 
HETATM   20  C   UNL     1      40.959 -16.633   6.089  1.00  0.00     0.042 C 
HETATM   21  C   UNL     1      42.324 -17.311   5.975  1.00  0.00     0.236 C 
HETATM   22  N   UNL     1      42.651 -17.590   4.523  1.00  0.00    -0.067 N 
HETATM   23  H   UNL     1      42.007 -18.324   4.207  1.00  0.00     0.280 HD
HETATM   24  C   UNL     1      42.505 -16.399   3.613  1.00  0.00     0.236 C 
HETATM   25  C   UNL     1      41.170 -15.699   3.804  1.00  0.00     0.042 C 
BRANCH  22  26
HETATM   26  C   UNL     1      44.057 -18.159   4.362  1.00  0.00     0.273 C 
BRANCH  26  27
HETATM   27  C   UNL     1      44.108 -19.501   3.688  1.00  0.00    -0.033 A 
HETATM   28  C   UNL     1      43.569 -19.683   2.408  1.00  0.00     0.009 A 
HETATM   29  C   UNL     1      43.621 -20.937   1.795  1.00  0.00     0.001 A 
HETATM   30  C   UNL     1      44.206 -22.015   2.456  1.00  0.00     0.000 A 
HETATM   31  C   UNL     1      44.744 -21.845   3.728  1.00  0.00     0.001 A 
HETATM   32  C   UNL     1      44.696 -20.595   4.345  1.00  0.00     0.009 A 
ENDBRANCH  26  27
ENDBRANCH  22  26
ENDBRANCH   2  19
TORSDOF 8
ENDMDL
MODEL 6
REMARK VINA RESULT:      -7.4      4.208      5.672
REMARK  8 active torsions:
REMARK  status: ('A' for Active; 'I' for Inactive)
REMARK    1  A    between atoms: O_2  and  C_3 
REMARK    2  A    between atoms: C_4  and  N_5 
REMARK    3  A    between atoms: N_5  and  C_6 
REMARK    4  A    between atoms: C_6  and  N_7 
REMARK    5  A    between atoms: N_7  and  N_8 
REMARK       I    between atoms: N_8  and  C_9 
REMARK    6  A    between atoms: C_9  and  C_10 
REMARK    7  A    between atoms: N_13  and  C_15 
REMARK    8  A    between atoms: C_15  and  C_16 
ROOT
HETATM    1  N   UNL     1      40.271 -11.763   7.456  1.00  0.00    -0.268 N 
HETATM    2  C   UNL     1      39.760 -12.152   6.237  1.00  0.00     0.240 C 
HETATM    3  O   UNL     1      38.646 -12.657   6.113  1.00  0.00    -0.271 OA
HETATM    4  H   UNL     1      41.051 -11.121   7.563  1.00  0.00     0.190 HD
ENDROOT
BRANCH   1   5
HETATM    5  N   UNL     1      39.477 -11.971   8.609  1.00  0.00    -0.274 N 
HETATM    6  H   UNL     1      39.382 -12.952   8.871  1.00  0.00     0.189 HD
BRANCH   5   7
HETATM    7  C   UNL     1      39.569 -11.124   9.698  1.00  0.00     0.191 C 
HETATM    8  S   UNL     1      39.033  -9.535   9.755  1.00  0.00    -0.039 SA
BRANCH   7   9
HETATM    9  N   UNL     1      40.204 -11.622  10.800  1.00  0.00    -0.330 N 
HETATM   10  H   UNL     1      39.905 -12.552  11.087  1.00  0.00     0.168 HD
BRANCH   9  11
HETATM   11  C   UNL     1      41.256 -11.107  11.589  1.00  0.00     0.068 A 
HETATM   12  C   UNL     1      42.450 -10.758  10.921  1.00  0.00     0.095 A 
HETATM   13  C   UNL     1      43.501 -10.184  11.639  1.00  0.00     0.039 A 
HETATM   14  C   UNL     1      43.370  -9.951  13.009  1.00  0.00     0.003 A 
HETATM   15  C   UNL     1      42.188 -10.283  13.666  1.00  0.00     0.002 A 
HETATM   16  C   UNL     1      41.131 -10.856  12.958  1.00  0.00     0.032 A 
BRANCH  12  17
HETATM   17  O   UNL     1      42.473 -11.020   9.571  1.00  0.00    -0.354 OA
HETATM   18  C   UNL     1      43.741 -11.325   9.000  1.00  0.00     0.210 C 
ENDBRANCH  12  17
ENDBRANCH   9  11
ENDBRANCH   7   9
ENDBRANCH   5   7
ENDBRANCH   1   5
BRANCH   2  19
HETATM   19  C   UNL     1      40.667 -11.922   5.022  1.00  0.00     0.082 C 
HETATM   20  C   UNL     1      40.113 -12.695   3.815  1.00  0.00     0.042 C 
HETATM   21  C   UNL     1      40.177 -14.205   4.035  1.00  0.00     0.236 C 
HETATM   22  N   UNL     1      41.600 -14.633   4.331  1.00  0.00    -0.067 N 
HETATM   23  H   UNL     1      42.136 -14.508   3.465  1.00  0.00     0.280 HD
HETATM   24  C   UNL     1      42.270 -13.846   5.428  1.00  0.00     0.236 C 
HETATM   25  C   UNL     1      42.122 -12.347   5.222  1.00  0.00     0.042 C 
BRANCH  22  26
HETATM   26  C   UNL     1      41.682 -16.117   4.674  1.00  0.00     0.273 C 
BRANCH  26  27
HETATM   27  C   UNL     1      42.511 -16.927   3.718  1.00  0.00    -0.033 A 
HETATM   28  C   UNL     1      43.024 -16.353   2.547  1.00  0.00     0.009 A 
HETATM   29  C   UNL     1      43.791 -17.119   1.666  1.00  0.00     0.001 A 
HETATM   30  C   UNL     1      44.046 -18.459   1.945  1.00  0.00     0.000 A 
HETATM   31  C   UNL     1      43.541 -19.039   3.105  1.00  0.00     0.001 A 
HETATM   32  C   UNL     1      42.776 -18.280   3.989  1.00  0.00     0.009 A 
ENDBRANCH  26  27
ENDBRANCH  22  26
ENDBRANCH   2  19
TORSDOF 8
ENDMDL
MODEL 7
REMARK VINA RESULT:      -7.3      3.058      5.962
REMARK  8 active torsions:
REMARK  status: ('A' for Active; 'I' for Inactive)
REMARK    1  A    between atoms: O_2  and  C_3 
REMARK    2  A    between atoms: C_4  and  N_5 
REMARK    3  A    between atoms: N_5  and  C_6 
REMARK    4  A    between atoms: C_6  and  N_7 
REMARK    5  A    between atoms: N_7  and  N_8 
REMARK       I    between atoms: N_8  and  C_9 
REMARK    6  A    between atoms: C_9  and  C_10 
REMARK    7  A    between atoms: N_13  and  C_15 
REMARK    8  A    between atoms: C_15  and  C_16 
ROOT
HETATM    1  N   UNL     1      40.369 -12.680   2.159  1.00  0.00    -0.268 N 
HETATM    2  C   UNL     1      41.733 -12.840   2.267  1.00  0.00     0.240 C 
HETATM    3  O   UNL     1      42.503 -12.631   1.332  1.00  0.00    -0.271 OA
HETATM    4  H   UNL     1      39.746 -12.591   2.956  1.00  0.00     0.190 HD
ENDROOT
BRANCH   1   5
HETATM    5  N   UNL     1      39.842 -12.269   0.912  1.00  0.00    -0.274 N 
HETATM    6  H   UNL     1      40.537 -11.857   0.288  1.00  0.00     0.189 HD
BRANCH   5   7
HETATM    7  C   UNL     1      38.903 -13.037   0.248  1.00  0.00     0.191 C 
HETATM    8  S   UNL     1      37.806 -14.084   0.965  1.00  0.00    -0.039 SA
BRANCH   7   9
HETATM    9  N   UNL     1      38.920 -12.967  -1.115  1.00  0.00    -0.330 N 
HETATM   10  H   UNL     1      38.903 -12.024  -1.500  1.00  0.00     0.168 HD
BRANCH   9  11
HETATM   11  C   UNL     1      39.020 -13.970  -2.105  1.00  0.00     0.068 A 
HETATM   12  C   UNL     1      40.284 -14.572  -2.285  1.00  0.00     0.095 A 
HETATM   13  C   UNL     1      40.429 -15.615  -3.203  1.00  0.00     0.039 A 
HETATM   14  C   UNL     1      39.328 -16.062  -3.936  1.00  0.00     0.003 A 
HETATM   15  C   UNL     1      38.078 -15.477  -3.749  1.00  0.00     0.002 A 
HETATM   16  C   UNL     1      37.922 -14.435  -2.834  1.00  0.00     0.032 A 
BRANCH  12  17
HETATM   17  O   UNL     1      41.299 -14.065  -1.508  1.00  0.00    -0.354 OA
HETATM   18  C   UNL     1      42.296 -13.300  -2.178  1.00  0.00     0.210 C 
ENDBRANCH  12  17
ENDBRANCH   9  11
ENDBRANCH   7   9
ENDBRANCH   5   7
ENDBRANCH   1   5
BRANCH   2  19
HETATM   19  C   UNL     1      42.251 -13.306   3.633  1.00  0.00     0.082 C 
HETATM   20  C   UNL     1      43.596 -14.027   3.453  1.00  0.00     0.042 C 
HETATM   21  C   UNL     1      43.438 -15.325   2.663  1.00  0.00     0.236 C 
HETATM   22  N   UNL     1      42.435 -16.235   3.344  1.00  0.00    -0.067 N 
HETATM   23  H   UNL     1      42.867 -16.554   4.218  1.00  0.00     0.280 HD
HETATM   24  C   UNL     1      41.120 -15.576   3.668  1.00  0.00     0.236 C 
HETATM   25  C   UNL     1      41.311 -14.249   4.385  1.00  0.00     0.042 C 
BRANCH  22  26
HETATM   26  C   UNL     1      42.164 -17.489   2.519  1.00  0.00     0.273 C 
BRANCH  26  27
HETATM   27  C   UNL     1      43.045 -18.657   2.863  1.00  0.00    -0.033 A 
HETATM   28  C   UNL     1      43.733 -18.704   4.083  1.00  0.00     0.009 A 
HETATM   29  C   UNL     1      44.551 -19.794   4.387  1.00  0.00     0.001 A 
HETATM   30  C   UNL     1      44.690 -20.839   3.477  1.00  0.00     0.000 A 
HETATM   31  C   UNL     1      44.011 -20.802   2.263  1.00  0.00     0.001 A 
HETATM   32  C   UNL     1      43.193 -19.718   1.953  1.00  0.00     0.009 A 
ENDBRANCH  26  27
ENDBRANCH  22  26
ENDBRANCH   2  19
TORSDOF 8
ENDMDL
MODEL 8
REMARK VINA RESULT:      -7.3      3.831      5.015
REMARK  8 active torsions:
REMARK  status: ('A' for Active; 'I' for Inactive)
REMARK    1  A    between atoms: O_2  and  C_3 
REMARK    2  A    between atoms: C_4  and  N_5 
REMARK    3  A    between atoms: N_5  and  C_6 
REMARK    4  A    between atoms: C_6  and  N_7 
REMARK    5  A    between atoms: N_7  and  N_8 
REMARK       I    between atoms: N_8  and  C_9 
REMARK    6  A    between atoms: C_9  and  C_10 
REMARK    7  A    between atoms: N_13  and  C_15 
REMARK    8  A    between atoms: C_15  and  C_16 
ROOT
HETATM    1  N   UNL     1      41.615 -12.274   6.601  1.00  0.00    -0.268 N 
HETATM    2  C   UNL     1      41.538 -13.058   5.470  1.00  0.00     0.240 C 
HETATM    3  O   UNL     1      40.493 -13.588   5.097  1.00  0.00    -0.271 OA
HETATM    4  H   UNL     1      42.373 -11.625   6.788  1.00  0.00     0.190 HD
ENDROOT
BRANCH   1   5
HETATM    5  N   UNL     1      40.438 -12.089   7.365  1.00  0.00    -0.274 N 
HETATM    6  H   UNL     1      40.084 -12.947   7.789  1.00  0.00     0.189 HD
BRANCH   5   7
HETATM    7  C   UNL     1      40.283 -10.978   8.174  1.00  0.00     0.191 C 
HETATM    8  S   UNL     1      39.716  -9.477   7.684  1.00  0.00    -0.039 SA
BRANCH   7   9
HETATM    9  N   UNL     1      40.682 -11.116   9.473  1.00  0.00    -0.330 N 
HETATM   10  H   UNL     1      39.974 -11.482  10.106  1.00  0.00     0.168 HD
BRANCH   9  11
HETATM   11  C   UNL     1      41.931 -10.902  10.098  1.00  0.00     0.068 A 
HETATM   12  C   UNL     1      41.950 -10.889  11.509  1.00  0.00     0.095 A 
HETATM   13  C   UNL     1      43.166 -10.746  12.183  1.00  0.00     0.039 A 
HETATM   14  C   UNL     1      44.355 -10.621  11.464  1.00  0.00     0.003 A 
HETATM   15  C   UNL     1      44.338 -10.647  10.072  1.00  0.00     0.002 A 
HETATM   16  C   UNL     1      43.130 -10.790   9.389  1.00  0.00     0.032 A 
BRANCH  12  17
HETATM   17  O   UNL     1      40.726 -11.028  12.120  1.00  0.00    -0.354 OA
HETATM   18  C   UNL     1      40.240  -9.902  12.844  1.00  0.00     0.210 C 
ENDBRANCH  12  17
ENDBRANCH   9  11
ENDBRANCH   7   9
ENDBRANCH   5   7
ENDBRANCH   1   5
BRANCH   2  19
HETATM   19  C   UNL     1      42.844 -13.242   4.689  1.00  0.00     0.082 C 
HETATM   20  C   UNL     1      42.554 -13.972   3.367  1.00  0.00     0.042 C 
HETATM   21  C   UNL     1      42.069 -15.401   3.608  1.00  0.00     0.236 C 
HETATM   22  N   UNL     1      43.088 -16.169   4.426  1.00  0.00    -0.067 N 
HETATM   23  H   UNL     1      43.910 -16.307   3.826  1.00  0.00     0.280 HD
HETATM   24  C   UNL     1      43.525 -15.472   5.688  1.00  0.00     0.236 C 
HETATM   25  C   UNL     1      43.926 -14.029   5.429  1.00  0.00     0.042 C 
BRANCH  22  26
HETATM   26  C   UNL     1      42.585 -17.563   4.786  1.00  0.00     0.273 C 
BRANCH  26  27
HETATM   27  C   UNL     1      43.265 -18.678   4.043  1.00  0.00    -0.033 A 
HETATM   28  C   UNL     1      44.236 -19.471   4.668  1.00  0.00     0.009 A 
HETATM   29  C   UNL     1      44.863 -20.502   3.965  1.00  0.00     0.001 A 
HETATM   30  C   UNL     1      44.527 -20.744   2.634  1.00  0.00     0.000 A 
HETATM   31  C   UNL     1      43.564 -19.962   2.004  1.00  0.00     0.001 A 
HETATM   32  C   UNL     1      42.934 -18.932   2.701  1.00  0.00     0.009 A 
ENDBRANCH  26  27
ENDBRANCH  22  26
ENDBRANCH   2  19
TORSDOF 8
ENDMDL
MODEL 9
REMARK VINA RESULT:      -7.1      2.675      5.372
REMARK  8 active torsions:
REMARK  status: ('A' for Active; 'I' for Inactive)
REMARK    1  A    between atoms: O_2  and  C_3 
REMARK    2  A    between atoms: C_4  and  N_5 
REMARK    3  A    between atoms: N_5  and  C_6 
REMARK    4  A    between atoms: C_6  and  N_7 
REMARK    5  A    between atoms: N_7  and  N_8 
REMARK       I    between atoms: N_8  and  C_9 
REMARK    6  A    between atoms: C_9  and  C_10 
REMARK    7  A    between atoms: N_13  and  C_15 
REMARK    8  A    between atoms: C_15  and  C_16 
ROOT
HETATM    1  N   UNL     1      40.152 -15.979   3.640  1.00  0.00    -0.268 N 
HETATM    2  C   UNL     1      40.750 -15.200   4.608  1.00  0.00     0.240 C 
HETATM    3  O   UNL     1      40.911 -13.988   4.480  1.00  0.00    -0.271 OA
HETATM    4  H   UNL     1      39.774 -16.905   3.814  1.00  0.00     0.190 HD
ENDROOT
BRANCH   1   5
HETATM    5  N   UNL     1      39.721 -15.348   2.449  1.00  0.00    -0.274 N 
HETATM    6  H   UNL     1      39.518 -14.354   2.560  1.00  0.00     0.189 HD
BRANCH   5   7
HETATM    7  C   UNL     1      40.306 -15.651   1.233  1.00  0.00     0.191 C 
HETATM    8  S   UNL     1      41.373 -16.913   0.943  1.00  0.00    -0.039 SA
BRANCH   7   9
HETATM    9  N   UNL     1      40.021 -14.806   0.199  1.00  0.00    -0.330 N 
HETATM   10  H   UNL     1      39.234 -15.085  -0.383  1.00  0.00     0.168 HD
BRANCH   9  11
HETATM   11  C   UNL     1      40.584 -13.567  -0.182  1.00  0.00     0.068 A 
HETATM   12  C   UNL     1      39.961 -12.399   0.309  1.00  0.00     0.095 A 
HETATM   13  C   UNL     1      40.512 -11.148   0.019  1.00  0.00     0.039 A 
HETATM   14  C   UNL     1      41.674 -11.054  -0.749  1.00  0.00     0.003 A 
HETATM   15  C   UNL     1      42.295 -12.207  -1.222  1.00  0.00     0.002 A 
HETATM   16  C   UNL     1      41.755 -13.461  -0.938  1.00  0.00     0.032 A 
BRANCH  12  17
HETATM   17  O   UNL     1      38.829 -12.603   1.062  1.00  0.00    -0.354 OA
HETATM   18  C   UNL     1      38.726 -11.863   2.274  1.00  0.00     0.210 C 
ENDBRANCH  12  17
ENDBRANCH   9  11
ENDBRANCH   7   9
ENDBRANCH   5   7
ENDBRANCH   1   5
BRANCH   2  19
HETATM   19  C   UNL     1      41.215 -15.935   5.870  1.00  0.00     0.082 C 
HETATM   20  C   UNL     1      42.706 -15.648   6.110  1.00  0.00     0.042 C 
HETATM   21  C   UNL     1      43.578 -16.239   5.004  1.00  0.00     0.236 C 
HETATM   22  N   UNL     1      43.337 -17.730   4.886  1.00  0.00    -0.067 N 
HETATM   23  H   UNL     1      43.723 -18.163   5.733  1.00  0.00     0.280 HD
HETATM   24  C   UNL     1      41.886 -18.117   4.765  1.00  0.00     0.236 C 
HETATM   25  C   UNL     1      41.031 -17.452   5.832  1.00  0.00     0.042 C 
BRANCH  22  26
HETATM   26  C   UNL     1      44.103 -18.333   3.712  1.00  0.00     0.273 C 
BRANCH  26  27
HETATM   27  C   UNL     1      44.315 -19.817   3.809  1.00  0.00    -0.033 A 
HETATM   28  C   UNL     1      44.643 -20.417   5.033  1.00  0.00     0.009 A 
HETATM   29  C   UNL     1      44.840 -21.798   5.108  1.00  0.00     0.001 A 
HETATM   30  C   UNL     1      44.715 -22.585   3.966  1.00  0.00     0.000 A 
HETATM   31  C   UNL     1      44.390 -21.999   2.746  1.00  0.00     0.001 A 
HETATM   32  C   UNL     1      44.191 -20.622   2.665  1.00  0.00     0.009 A 
ENDBRANCH  26  27
ENDBRANCH  22  26
ENDBRANCH   2  19
TORSDOF 8
ENDMDL
MODEL 10
REMARK VINA RESULT:      -7.1      3.236      6.114
REMARK  8 active torsions:
REMARK  status: ('A' for Active; 'I' for Inactive)
REMARK    1  A    between atoms: O_2  and  C_3 
REMARK    2  A    between atoms: C_4  and  N_5 
REMARK    3  A    between atoms: N_5  and  C_6 
REMARK    4  A    between atoms: C_6  and  N_7 
REMARK    5  A    between atoms: N_7  and  N_8 
REMARK       I    between atoms: N_8  and  C_9 
REMARK    6  A    between atoms: C_9  and  C_10 
REMARK    7  A    between atoms: N_13  and  C_15 
REMARK    8  A    between atoms: C_15  and  C_16 
ROOT
HETATM    1  N   UNL     1      42.120 -12.187   1.976  1.00  0.00    -0.268 N 
HETATM    2  C   UNL     1      41.441 -12.989   2.868  1.00  0.00     0.240 C 
HETATM    3  O   UNL     1      40.314 -13.426   2.646  1.00  0.00    -0.271 OA
HETATM    4  H   UNL     1      43.122 -12.030   2.007  1.00  0.00     0.190 HD
ENDROOT
BRANCH   1   5
HETATM    5  N   UNL     1      41.477 -11.848   0.762  1.00  0.00    -0.274 N 
HETATM    6  H   UNL     1      41.365 -10.844   0.622  1.00  0.00     0.189 HD
BRANCH   5   7
HETATM    7  C   UNL     1      41.758 -12.532  -0.407  1.00  0.00     0.191 C 
HETATM    8  S   UNL     1      42.701 -11.965  -1.673  1.00  0.00    -0.039 SA
BRANCH   7   9
HETATM    9  N   UNL     1      41.164 -13.753  -0.551  1.00  0.00    -0.330 N 
HETATM   10  H   UNL     1      41.340 -14.411   0.205  1.00  0.00     0.168 HD
BRANCH   9  11
HETATM   11  C   UNL     1      40.288 -14.259  -1.538  1.00  0.00     0.068 A 
HETATM   12  C   UNL     1      38.927 -13.896  -1.436  1.00  0.00     0.095 A 
HETATM   13  C   UNL     1      38.026 -14.313  -2.419  1.00  0.00     0.039 A 
HETATM   14  C   UNL     1      38.469 -15.079  -3.497  1.00  0.00     0.003 A 
HETATM   15  C   UNL     1      39.813 -15.426  -3.604  1.00  0.00     0.002 A 
HETATM   16  C   UNL     1      40.723 -15.015  -2.629  1.00  0.00     0.032 A 
BRANCH  12  17
HETATM   17  O   UNL     1      38.597 -13.132  -0.341  1.00  0.00    -0.354 OA
HETATM   18  C   UNL     1      37.569 -13.638   0.505  1.00  0.00     0.210 C 
ENDBRANCH  12  17
ENDBRANCH   9  11
ENDBRANCH   7   9
ENDBRANCH   5   7
ENDBRANCH   1   5
BRANCH   2  19
HETATM   19  C   UNL     1      42.174 -13.311   4.176  1.00  0.00     0.082 C 
HETATM   20  C   UNL     1      43.501 -14.019   3.860  1.00  0.00     0.042 C 
HETATM   21  C   UNL     1      43.269 -15.391   3.227  1.00  0.00     0.236 C 
HETATM   22  N   UNL     1      42.412 -16.249   4.135  1.00  0.00    -0.067 N 
HETATM   23  H   UNL     1      42.981 -16.474   4.959  1.00  0.00     0.280 HD
HETATM   24  C   UNL     1      41.139 -15.588   4.595  1.00  0.00     0.236 C 
HETATM   25  C   UNL     1      41.391 -14.195   5.147  1.00  0.00     0.042 C 
BRANCH  22  26
HETATM   26  C   UNL     1      42.061 -17.583   3.482  1.00  0.00     0.273 C 
BRANCH  26  27
HETATM   27  C   UNL     1      43.109 -18.647   3.648  1.00  0.00    -0.033 A 
HETATM   28  C   UNL     1      43.735 -18.851   4.886  1.00  0.00     0.009 A 
HETATM   29  C   UNL     1      44.709 -19.842   5.026  1.00  0.00     0.001 A 
HETATM   30  C   UNL     1      45.067 -20.630   3.934  1.00  0.00     0.000 A 
HETATM   31  C   UNL     1      44.451 -20.435   2.701  1.00  0.00     0.001 A 
HETATM   32  C   UNL     1      43.477 -19.448   2.555  1.00  0.00     0.009 A 
ENDBRANCH  26  27
ENDBRANCH  22  26
ENDBRANCH   2  19
TORSDOF 8
ENDMDL
