MODEL 1
REMARK VINA RESULT:      -8.8      0.000      0.000
REMARK  8 active torsions:
REMARK  status: ('A' for Active; 'I' for Inactive)
REMARK    1  A    between atoms: C_3  and  C_4 
REMARK       I    between atoms: C_4  and  N_5 
REMARK    2  A    between atoms: N_5  and  C_6 
REMARK    3  A    between atoms: C_8  and  C_9 
REMARK    4  A    between atoms: C_9  and  C_10 
REMARK    5  A    between atoms: C_10  and  N_11 
REMARK    6  A    between atoms: C_21  and  O_22 
REMARK    7  A    between atoms: O_22  and  C_23 
REMARK    8  A    between atoms: C_23  and  C_24 
ROOT
HETATM    1  C   UNL     1      43.291 -18.172   2.207  1.00  0.00     0.259 C 
HETATM    2  N   UNL     1      41.973 -18.076   1.797  1.00  0.00    -0.323 N 
HETATM    3  O   UNL     1      44.088 -17.239   2.230  1.00  0.00    -0.267 OA
HETATM    4  H   UNL     1      41.450 -18.945   1.795  1.00  0.00     0.169 HD
ENDROOT
BRANCH   2   5
HETATM    5  C   UNL     1      41.280 -16.906   1.410  1.00  0.00     0.035 A 
HETATM    6  C   UNL     1      41.590 -16.340   0.162  1.00  0.00     0.036 A 
HETATM    7  C   UNL     1      40.926 -15.189  -0.313  1.00  0.00    -0.054 A 
HETATM    8  C   UNL     1      39.920 -14.627   0.486  1.00  0.00     0.007 A 
HETATM    9  C   UNL     1      39.618 -15.172   1.730  1.00  0.00     0.003 A 
HETATM   10  C   UNL     1      40.295 -16.300   2.188  1.00  0.00     0.029 A 
BRANCH   7  11
HETATM   11  C   UNL     1      41.260 -14.658  -1.690  1.00  0.00     0.066 C 
BRANCH  11  12
HETATM   12  C   UNL     1      40.927 -15.613  -2.846  1.00  0.00     0.239 C 
BRANCH  12  13
HETATM   13  N   UNL     1      39.866 -15.037  -3.764  1.00  0.00    -0.071 N 
HETATM   14  H   UNL     1      40.318 -14.794  -4.656  1.00  0.00     0.279 HD
HETATM   15  C   UNL     1      39.253 -13.760  -3.206  1.00  0.00     0.235 C 
HETATM   16  C   UNL     1      37.883 -14.187  -2.726  1.00  0.00     0.029 C 
HETATM   17  C   UNL     1      37.455 -15.174  -3.791  1.00  0.00     0.029 C 
HETATM   18  C   UNL     1      38.710 -15.990  -4.045  1.00  0.00     0.235 C 
ENDBRANCH  12  13
ENDBRANCH  11  12
ENDBRANCH   7  11
ENDBRANCH   2   5
BRANCH   1  19
HETATM   19  C   UNL     1      43.778 -19.521   2.662  1.00  0.00     0.065 A 
HETATM   20  C   UNL     1      43.619 -20.578   1.744  1.00  0.00     0.020 A 
HETATM   21  C   UNL     1      44.033 -21.875   2.048  1.00  0.00     0.001 A 
HETATM   22  C   UNL     1      44.604 -22.141   3.285  1.00  0.00     0.003 A 
HETATM   23  C   UNL     1      44.768 -21.109   4.210  1.00  0.00     0.038 A 
HETATM   24  C   UNL     1      44.387 -19.792   3.902  1.00  0.00     0.084 A 
BRANCH  24  25
HETATM   25  O   UNL     1      44.512 -18.793   4.835  1.00  0.00    -0.348 OA
BRANCH  25  26
HETATM   26  C   UNL     1      43.625 -18.889   5.959  1.00  0.00     0.207 C 
BRANCH  26  27
HETATM   27  C   UNL     1      43.477 -17.518   6.634  1.00  0.00     0.145 C 
HETATM   28  O   UNL     1      42.144 -17.405   7.166  1.00  0.00    -0.384 OA
HETATM   29  C   UNL     1      41.430 -16.405   6.418  1.00  0.00     0.168 C 
HETATM   30  C   UNL     1      42.258 -16.098   5.191  1.00  0.00     0.029 C 
HETATM   31  C   UNL     1      43.660 -16.335   5.694  1.00  0.00     0.036 C 
ENDBRANCH  26  27
ENDBRANCH  25  26
ENDBRANCH  24  25
ENDBRANCH   1  19
TORSDOF 8
ENDMDL
MODEL 2
REMARK VINA RESULT:      -8.6      1.253      2.139
REMARK  8 active torsions:
REMARK  status: ('A' for Active; 'I' for Inactive)
REMARK    1  A    between atoms: C_3  and  C_4 
REMARK       I    between atoms: C_4  and  N_5 
REMARK    2  A    between atoms: N_5  and  C_6 
REMARK    3  A    between atoms: C_8  and  C_9 
REMARK    4  A    between atoms: C_9  and  C_10 
REMARK    5  A    between atoms: C_10  and  N_11 
REMARK    6  A    between atoms: C_21  and  O_22 
REMARK    7  A    between atoms: O_22  and  C_23 
REMARK    8  A    between atoms: C_23  and  C_24 
ROOT
HETATM    1  C   UNL     1      43.125 -18.039   2.770  1.00  0.00     0.259 C 
HETATM    2  N   UNL     1      41.818 -17.810   3.163  1.00  0.00    -0.323 N 
HETATM    3  O   UNL     1      43.909 -17.169   2.400  1.00  0.00    -0.267 OA
HETATM    4  H   UNL     1      41.281 -18.636   3.403  1.00  0.00     0.169 HD
ENDROOT
BRANCH   2   5
HETATM    5  C   UNL     1      41.167 -16.561   3.287  1.00  0.00     0.035 A 
HETATM    6  C   UNL     1      40.359 -16.131   2.221  1.00  0.00     0.036 A 
HETATM    7  C   UNL     1      39.653 -14.911   2.275  1.00  0.00    -0.054 A 
HETATM    8  C   UNL     1      39.756 -14.135   3.438  1.00  0.00     0.007 A 
HETATM    9  C   UNL     1      40.567 -14.546   4.492  1.00  0.00     0.003 A 
HETATM   10  C   UNL     1      41.269 -15.747   4.414  1.00  0.00     0.029 A 
BRANCH   7  11
HETATM   11  C   UNL     1      38.750 -14.527   1.122  1.00  0.00     0.066 C 
BRANCH  11  12
HETATM   12  C   UNL     1      39.472 -13.885  -0.072  1.00  0.00     0.239 C 
BRANCH  12  13
HETATM   13  N   UNL     1      39.532 -14.822  -1.263  1.00  0.00    -0.071 N 
HETATM   14  H   UNL     1      39.014 -15.677  -1.019  1.00  0.00     0.279 HD
HETATM   15  C   UNL     1      40.958 -15.240  -1.596  1.00  0.00     0.235 C 
HETATM   16  C   UNL     1      41.291 -14.451  -2.844  1.00  0.00     0.029 C 
HETATM   17  C   UNL     1      39.986 -14.483  -3.610  1.00  0.00     0.029 C 
HETATM   18  C   UNL     1      38.938 -14.238  -2.539  1.00  0.00     0.235 C 
ENDBRANCH  12  13
ENDBRANCH  11  12
ENDBRANCH   7  11
ENDBRANCH   2   5
BRANCH   1  19
HETATM   19  C   UNL     1      43.621 -19.459   2.808  1.00  0.00     0.065 A 
HETATM   20  C   UNL     1      43.239 -20.276   1.725  1.00  0.00     0.020 A 
HETATM   21  C   UNL     1      43.637 -21.610   1.643  1.00  0.00     0.001 A 
HETATM   22  C   UNL     1      44.417 -22.156   2.654  1.00  0.00     0.003 A 
HETATM   23  C   UNL     1      44.804 -21.366   3.736  1.00  0.00     0.038 A 
HETATM   24  C   UNL     1      44.438 -20.011   3.811  1.00  0.00     0.084 A 
BRANCH  24  25
HETATM   25  O   UNL     1      44.787 -19.254   4.902  1.00  0.00    -0.348 OA
BRANCH  25  26
HETATM   26  C   UNL     1      44.095 -19.576   6.118  1.00  0.00     0.207 C 
BRANCH  26  27
HETATM   27  C   UNL     1      44.550 -18.640   7.248  1.00  0.00     0.145 C 
HETATM   28  O   UNL     1      43.402 -18.269   8.033  1.00  0.00    -0.384 OA
HETATM   29  C   UNL     1      43.139 -16.869   7.839  1.00  0.00     0.168 C 
HETATM   30  C   UNL     1      43.977 -16.422   6.662  1.00  0.00     0.029 C 
HETATM   31  C   UNL     1      45.173 -17.336   6.767  1.00  0.00     0.036 C 
ENDBRANCH  26  27
ENDBRANCH  25  26
ENDBRANCH  24  25
ENDBRANCH   1  19
TORSDOF 8
ENDMDL
MODEL 3
REMARK VINA RESULT:      -8.4      3.018      4.879
REMARK  8 active torsions:
REMARK  status: ('A' for Active; 'I' for Inactive)
REMARK    1  A    between atoms: C_3  and  C_4 
REMARK       I    between atoms: C_4  and  N_5 
REMARK    2  A    between atoms: N_5  and  C_6 
REMARK    3  A    between atoms: C_8  and  C_9 
REMARK    4  A    between atoms: C_9  and  C_10 
REMARK    5  A    between atoms: C_10  and  N_11 
REMARK    6  A    between atoms: C_21  and  O_22 
REMARK    7  A    between atoms: O_22  and  C_23 
REMARK    8  A    between atoms: C_23  and  C_24 
ROOT
HETATM    1  C   UNL     1      43.435 -18.420   2.365  1.00  0.00     0.259 C 
HETATM    2  N   UNL     1      42.286 -17.953   2.978  1.00  0.00    -0.323 N 
HETATM    3  O   UNL     1      44.115 -17.781   1.568  1.00  0.00    -0.267 OA
HETATM    4  H   UNL     1      41.810 -18.615   3.581  1.00  0.00     0.169 HD
ENDROOT
BRANCH   2   5
HETATM    5  C   UNL     1      41.726 -16.659   2.873  1.00  0.00     0.035 A 
HETATM    6  C   UNL     1      42.297 -15.630   3.641  1.00  0.00     0.036 A 
HETATM    7  C   UNL     1      41.818 -14.305   3.574  1.00  0.00    -0.054 A 
HETATM    8  C   UNL     1      40.760 -14.026   2.697  1.00  0.00     0.007 A 
HETATM    9  C   UNL     1      40.178 -15.042   1.945  1.00  0.00     0.003 A 
HETATM   10  C   UNL     1      40.656 -16.348   2.035  1.00  0.00     0.029 A 
BRANCH   7  11
HETATM   11  C   UNL     1      42.510 -13.226   4.379  1.00  0.00     0.066 C 
BRANCH  11  12
HETATM   12  C   UNL     1      42.243 -13.281   5.890  1.00  0.00     0.239 C 
BRANCH  12  13
HETATM   13  N   UNL     1      41.298 -12.181   6.335  1.00  0.00    -0.071 N 
HETATM   14  H   UNL     1      41.630 -11.827   7.243  1.00  0.00     0.279 HD
HETATM   15  C   UNL     1      39.878 -12.689   6.542  1.00  0.00     0.235 C 
HETATM   16  C   UNL     1      39.119 -12.160   5.345  1.00  0.00     0.029 C 
HETATM   17  C   UNL     1      39.720 -10.784   5.158  1.00  0.00     0.029 C 
HETATM   18  C   UNL     1      41.207 -11.014   5.359  1.00  0.00     0.235 C 
ENDBRANCH  12  13
ENDBRANCH  11  12
ENDBRANCH   7  11
ENDBRANCH   2   5
BRANCH   1  19
HETATM   19  C   UNL     1      43.884 -19.815   2.708  1.00  0.00     0.065 A 
HETATM   20  C   UNL     1      43.727 -20.782   1.695  1.00  0.00     0.020 A 
HETATM   21  C   UNL     1      44.108 -22.109   1.890  1.00  0.00     0.001 A 
HETATM   22  C   UNL     1      44.644 -22.497   3.111  1.00  0.00     0.003 A 
HETATM   23  C   UNL     1      44.805 -21.556   4.128  1.00  0.00     0.038 A 
HETATM   24  C   UNL     1      44.458 -20.209   3.931  1.00  0.00     0.084 A 
BRANCH  24  25
HETATM   25  O   UNL     1      44.580 -19.301   4.953  1.00  0.00    -0.348 OA
BRANCH  25  26
HETATM   26  C   UNL     1      43.675 -19.487   6.051  1.00  0.00     0.207 C 
BRANCH  26  27
HETATM   27  C   UNL     1      44.147 -18.677   7.268  1.00  0.00     0.145 C 
HETATM   28  O   UNL     1      43.020 -17.970   7.818  1.00  0.00    -0.384 OA
HETATM   29  C   UNL     1      43.208 -16.561   7.605  1.00  0.00     0.168 C 
HETATM   30  C   UNL     1      44.351 -16.411   6.627  1.00  0.00     0.029 C 
HETATM   31  C   UNL     1      45.195 -17.621   6.947  1.00  0.00     0.036 C 
ENDBRANCH  26  27
ENDBRANCH  25  26
ENDBRANCH  24  25
ENDBRANCH   1  19
TORSDOF 8
ENDMDL
MODEL 4
REMARK VINA RESULT:      -8.2      1.650      2.332
REMARK  8 active torsions:
REMARK  status: ('A' for Active; 'I' for Inactive)
REMARK    1  A    between atoms: C_3  and  C_4 
REMARK       I    between atoms: C_4  and  N_5 
REMARK    2  A    between atoms: N_5  and  C_6 
REMARK    3  A    between atoms: C_8  and  C_9 
REMARK    4  A    between atoms: C_9  and  C_10 
REMARK    5  A    between atoms: C_10  and  N_11 
REMARK    6  A    between atoms: C_21  and  O_22 
REMARK    7  A    between atoms: O_22  and  C_23 
REMARK    8  A    between atoms: C_23  and  C_24 
ROOT
HETATM    1  C   UNL     1      43.460 -18.429   1.938  1.00  0.00     0.259 C 
HETATM    2  N   UNL     1      42.111 -18.125   1.996  1.00  0.00    -0.323 N 
HETATM    3  O   UNL     1      44.322 -17.704   1.450  1.00  0.00    -0.267 OA
HETATM    4  H   UNL     1      41.516 -18.844   2.393  1.00  0.00     0.169 HD
ENDROOT
BRANCH   2   5
HETATM    5  C   UNL     1      41.485 -16.924   1.587  1.00  0.00     0.035 A 
HETATM    6  C   UNL     1      41.581 -16.561   0.234  1.00  0.00     0.036 A 
HETATM    7  C   UNL     1      40.962 -15.394  -0.263  1.00  0.00    -0.054 A 
HETATM    8  C   UNL     1      40.222 -14.605   0.628  1.00  0.00     0.007 A 
HETATM    9  C   UNL     1      40.135 -14.950   1.974  1.00  0.00     0.003 A 
HETATM   10  C   UNL     1      40.765 -16.099   2.449  1.00  0.00     0.029 A 
BRANCH   7  11
HETATM   11  C   UNL     1      41.049 -15.082  -1.742  1.00  0.00     0.066 C 
BRANCH  11  12
HETATM   12  C   UNL     1      40.809 -13.609  -2.103  1.00  0.00     0.239 C 
BRANCH  12  13
HETATM   13  N   UNL     1      41.984 -13.016  -2.857  1.00  0.00    -0.071 N 
HETATM   14  H   UNL     1      42.534 -13.794  -3.248  1.00  0.00     0.279 HD
HETATM   15  C   UNL     1      42.911 -12.222  -1.947  1.00  0.00     0.235 C 
HETATM   16  C   UNL     1      42.616 -10.778  -2.290  1.00  0.00     0.029 C 
HETATM   17  C   UNL     1      42.416 -10.831  -3.789  1.00  0.00     0.029 C 
HETATM   18  C   UNL     1      41.581 -12.083  -3.992  1.00  0.00     0.235 C 
ENDBRANCH  12  13
ENDBRANCH  11  12
ENDBRANCH   7  11
ENDBRANCH   2   5
BRANCH   1  19
HETATM   19  C   UNL     1      43.899 -19.743   2.524  1.00  0.00     0.065 A 
HETATM   20  C   UNL     1      43.792 -20.865   1.677  1.00  0.00     0.020 A 
HETATM   21  C   UNL     1      44.169 -22.138   2.104  1.00  0.00     0.001 A 
HETATM   22  C   UNL     1      44.651 -22.315   3.394  1.00  0.00     0.003 A 
HETATM   23  C   UNL     1      44.763 -21.218   4.249  1.00  0.00     0.038 A 
HETATM   24  C   UNL     1      44.419 -19.926   3.819  1.00  0.00     0.084 A 
BRANCH  24  25
HETATM   25  O   UNL     1      44.491 -18.861   4.683  1.00  0.00    -0.348 OA
BRANCH  25  26
HETATM   26  C   UNL     1      43.633 -18.943   5.831  1.00  0.00     0.207 C 
BRANCH  26  27
HETATM   27  C   UNL     1      42.623 -17.785   5.820  1.00  0.00     0.145 C 
HETATM   28  O   UNL     1      43.066 -16.794   4.873  1.00  0.00    -0.384 OA
HETATM   29  C   UNL     1      43.454 -15.610   5.589  1.00  0.00     0.168 C 
HETATM   30  C   UNL     1      43.533 -15.985   7.052  1.00  0.00     0.029 C 
HETATM   31  C   UNL     1      42.484 -17.065   7.154  1.00  0.00     0.036 C 
ENDBRANCH  26  27
ENDBRANCH  25  26
ENDBRANCH  24  25
ENDBRANCH   1  19
TORSDOF 8
ENDMDL
MODEL 5
REMARK VINA RESULT:      -8.0      2.553      7.677
REMARK  8 active torsions:
REMARK  status: ('A' for Active; 'I' for Inactive)
REMARK    1  A    between atoms: C_3  and  C_4 
REMARK       I    between atoms: C_4  and  N_5 
REMARK    2  A    between atoms: N_5  and  C_6 
REMARK    3  A    between atoms: C_8  and  C_9 
REMARK    4  A    between atoms: C_9  and  C_10 
REMARK    5  A    between atoms: C_10  and  N_11 
REMARK    6  A    between atoms: C_21  and  O_22 
REMARK    7  A    between atoms: O_22  and  C_23 
REMARK    8  A    between atoms: C_23  and  C_24 
ROOT
HETATM    1  C   UNL     1      41.702 -16.574   0.330  1.00  0.00     0.259 C 
HETATM    2  N   UNL     1      42.933 -16.652   0.959  1.00  0.00    -0.323 N 
HETATM    3  O   UNL     1      40.773 -17.356   0.509  1.00  0.00    -0.267 OA
HETATM    4  H   UNL     1      43.615 -15.957   0.677  1.00  0.00     0.169 HD
ENDROOT
BRANCH   2   5
HETATM    5  C   UNL     1      43.326 -17.571   1.959  1.00  0.00     0.035 A 
HETATM    6  C   UNL     1      43.002 -17.271   3.292  1.00  0.00     0.036 A 
HETATM    7  C   UNL     1      43.332 -18.148   4.348  1.00  0.00    -0.054 A 
HETATM    8  C   UNL     1      43.979 -19.351   4.034  1.00  0.00     0.007 A 
HETATM    9  C   UNL     1      44.319 -19.648   2.717  1.00  0.00     0.003 A 
HETATM   10  C   UNL     1      43.997 -18.763   1.689  1.00  0.00     0.029 A 
BRANCH   7  11
HETATM   11  C   UNL     1      42.905 -17.802   5.759  1.00  0.00     0.066 C 
BRANCH  11  12
HETATM   12  C   UNL     1      41.888 -16.656   5.859  1.00  0.00     0.239 C 
BRANCH  12  13
HETATM   13  N   UNL     1      42.449 -15.471   6.621  1.00  0.00    -0.071 N 
HETATM   14  H   UNL     1      41.822 -15.280   7.415  1.00  0.00     0.279 HD
HETATM   15  C   UNL     1      42.497 -14.209   5.771  1.00  0.00     0.235 C 
HETATM   16  C   UNL     1      43.964 -14.043   5.439  1.00  0.00     0.029 C 
HETATM   17  C   UNL     1      44.640 -14.463   6.727  1.00  0.00     0.029 C 
HETATM   18  C   UNL     1      43.859 -15.692   7.155  1.00  0.00     0.235 C 
ENDBRANCH  12  13
ENDBRANCH  11  12
ENDBRANCH   7  11
ENDBRANCH   2   5
BRANCH   1  19
HETATM   19  C   UNL     1      41.491 -15.443  -0.639  1.00  0.00     0.065 A 
HETATM   20  C   UNL     1      41.082 -15.809  -1.937  1.00  0.00     0.020 A 
HETATM   21  C   UNL     1      40.851 -14.852  -2.925  1.00  0.00     0.001 A 
HETATM   22  C   UNL     1      41.036 -13.507  -2.634  1.00  0.00     0.003 A 
HETATM   23  C   UNL     1      41.443 -13.123  -1.356  1.00  0.00     0.038 A 
HETATM   24  C   UNL     1      41.645 -14.076  -0.343  1.00  0.00     0.084 A 
BRANCH  24  25
HETATM   25  O   UNL     1      42.087 -13.691   0.899  1.00  0.00    -0.348 OA
BRANCH  25  26
HETATM   26  C   UNL     1      41.536 -12.461   1.392  1.00  0.00     0.207 C 
BRANCH  26  27
HETATM   27  C   UNL     1      40.522 -12.746   2.510  1.00  0.00     0.145 C 
HETATM   28  O   UNL     1      40.566 -14.151   2.826  1.00  0.00    -0.384 OA
HETATM   29  C   UNL     1      39.327 -14.756   2.418  1.00  0.00     0.168 C 
HETATM   30  C   UNL     1      38.608 -13.748   1.550  1.00  0.00     0.029 C 
HETATM   31  C   UNL     1      39.078 -12.440   2.138  1.00  0.00     0.036 C 
ENDBRANCH  26  27
ENDBRANCH  25  26
ENDBRANCH  24  25
ENDBRANCH   1  19
TORSDOF 8
ENDMDL
MODEL 6
REMARK VINA RESULT:      -7.9      2.098      2.625
REMARK  8 active torsions:
REMARK  status: ('A' for Active; 'I' for Inactive)
REMARK    1  A    between atoms: C_3  and  C_4 
REMARK       I    between atoms: C_4  and  N_5 
REMARK    2  A    between atoms: N_5  and  C_6 
REMARK    3  A    between atoms: C_8  and  C_9 
REMARK    4  A    between atoms: C_9  and  C_10 
REMARK    5  A    between atoms: C_10  and  N_11 
REMARK    6  A    between atoms: C_21  and  O_22 
REMARK    7  A    between atoms: O_22  and  C_23 
REMARK    8  A    between atoms: C_23  and  C_24 
ROOT
HETATM    1  C   UNL     1      42.786 -18.249   2.276  1.00  0.00     0.259 C 
HETATM    2  N   UNL     1      43.463 -17.096   2.631  1.00  0.00    -0.323 N 
HETATM    3  O   UNL     1      41.679 -18.278   1.745  1.00  0.00    -0.267 OA
HETATM    4  H   UNL     1      44.351 -17.235   3.099  1.00  0.00     0.169 HD
ENDROOT
BRANCH   2   5
HETATM    5  C   UNL     1      43.064 -15.761   2.390  1.00  0.00     0.035 A 
HETATM    6  C   UNL     1      42.404 -15.479   1.183  1.00  0.00     0.036 A 
HETATM    7  C   UNL     1      41.947 -14.179   0.877  1.00  0.00    -0.054 A 
HETATM    8  C   UNL     1      42.147 -13.165   1.823  1.00  0.00     0.007 A 
HETATM    9  C   UNL     1      42.814 -13.433   3.016  1.00  0.00     0.003 A 
HETATM   10  C   UNL     1      43.271 -14.720   3.294  1.00  0.00     0.029 A 
BRANCH   7  11
HETATM   11  C   UNL     1      41.190 -13.946  -0.414  1.00  0.00     0.066 C 
BRANCH  11  12
HETATM   12  C   UNL     1      40.677 -12.511  -0.607  1.00  0.00     0.239 C 
BRANCH  12  13
HETATM   13  N   UNL     1      39.167 -12.433  -0.487  1.00  0.00    -0.071 N 
HETATM   14  H   UNL     1      38.816 -11.871  -1.274  1.00  0.00     0.279 HD
HETATM   15  C   UNL     1      38.725 -11.740   0.794  1.00  0.00     0.235 C 
HETATM   16  C   UNL     1      38.229 -12.869   1.672  1.00  0.00     0.029 C 
HETATM   17  C   UNL     1      37.532 -13.774   0.679  1.00  0.00     0.029 C 
HETATM   18  C   UNL     1      38.476 -13.791  -0.510  1.00  0.00     0.235 C 
ENDBRANCH  12  13
ENDBRANCH  11  12
ENDBRANCH   7  11
ENDBRANCH   2   5
BRANCH   1  19
HETATM   19  C   UNL     1      43.462 -19.563   2.558  1.00  0.00     0.065 A 
HETATM   20  C   UNL     1      43.204 -20.601   1.640  1.00  0.00     0.020 A 
HETATM   21  C   UNL     1      43.774 -21.865   1.790  1.00  0.00     0.001 A 
HETATM   22  C   UNL     1      44.606 -22.118   2.873  1.00  0.00     0.003 A 
HETATM   23  C   UNL     1      44.873 -21.106   3.795  1.00  0.00     0.038 A 
HETATM   24  C   UNL     1      44.332 -19.819   3.634  1.00  0.00     0.084 A 
BRANCH  24  25
HETATM   25  O   UNL     1      44.565 -18.842   4.571  1.00  0.00    -0.348 OA
BRANCH  25  26
HETATM   26  C   UNL     1      44.260 -19.207   5.925  1.00  0.00     0.207 C 
BRANCH  26  27
HETATM   27  C   UNL     1      44.828 -18.159   6.895  1.00  0.00     0.145 C 
HETATM   28  O   UNL     1      44.214 -18.341   8.184  1.00  0.00    -0.384 OA
HETATM   29  C   UNL     1      43.370 -17.211   8.459  1.00  0.00     0.168 C 
HETATM   30  C   UNL     1      43.227 -16.441   7.166  1.00  0.00     0.029 C 
HETATM   31  C   UNL     1      44.549 -16.718   6.492  1.00  0.00     0.036 C 
ENDBRANCH  26  27
ENDBRANCH  25  26
ENDBRANCH  24  25
ENDBRANCH   1  19
TORSDOF 8
ENDMDL
MODEL 7
REMARK VINA RESULT:      -7.9      4.965      8.714
REMARK  8 active torsions:
REMARK  status: ('A' for Active; 'I' for Inactive)
REMARK    1  A    between atoms: C_3  and  C_4 
REMARK       I    between atoms: C_4  and  N_5 
REMARK    2  A    between atoms: N_5  and  C_6 
REMARK    3  A    between atoms: C_8  and  C_9 
REMARK    4  A    between atoms: C_9  and  C_10 
REMARK    5  A    between atoms: C_10  and  N_11 
REMARK    6  A    between atoms: C_21  and  O_22 
REMARK    7  A    between atoms: O_22  and  C_23 
REMARK    8  A    between atoms: C_23  and  C_24 
ROOT
HETATM    1  C   UNL     1      44.569 -13.159   7.416  1.00  0.00     0.259 C 
HETATM    2  N   UNL     1      43.421 -13.506   6.726  1.00  0.00    -0.323 N 
HETATM    3  O   UNL     1      45.706 -13.499   7.103  1.00  0.00    -0.267 OA
HETATM    4  H   UNL     1      42.550 -13.182   7.132  1.00  0.00     0.169 HD
ENDROOT
BRANCH   2   5
HETATM    5  C   UNL     1      43.337 -14.235   5.517  1.00  0.00     0.035 A 
HETATM    6  C   UNL     1      42.968 -15.589   5.590  1.00  0.00     0.036 A 
HETATM    7  C   UNL     1      42.833 -16.380   4.429  1.00  0.00    -0.054 A 
HETATM    8  C   UNL     1      43.055 -15.776   3.184  1.00  0.00     0.007 A 
HETATM    9  C   UNL     1      43.435 -14.440   3.105  1.00  0.00     0.003 A 
HETATM   10  C   UNL     1      43.578 -13.678   4.263  1.00  0.00     0.029 A 
BRANCH   7  11
HETATM   11  C   UNL     1      42.376 -17.818   4.563  1.00  0.00     0.066 C 
BRANCH  11  12
HETATM   12  C   UNL     1      43.498 -18.824   4.858  1.00  0.00     0.239 C 
BRANCH  12  13
HETATM   13  N   UNL     1      44.265 -19.194   3.603  1.00  0.00    -0.071 N 
HETATM   14  H   UNL     1      44.989 -18.478   3.453  1.00  0.00     0.279 HD
HETATM   15  C   UNL     1      43.377 -19.204   2.367  1.00  0.00     0.235 C 
HETATM   16  C   UNL     1      43.178 -20.674   2.068  1.00  0.00     0.029 C 
HETATM   17  C   UNL     1      44.538 -21.260   2.384  1.00  0.00     0.029 C 
HETATM   18  C   UNL     1      44.936 -20.560   3.671  1.00  0.00     0.235 C 
ENDBRANCH  12  13
ENDBRANCH  11  12
ENDBRANCH   7  11
ENDBRANCH   2   5
BRANCH   1  19
HETATM   19  C   UNL     1      44.408 -12.293   8.636  1.00  0.00     0.065 A 
HETATM   20  C   UNL     1      45.360 -12.482   9.658  1.00  0.00     0.020 A 
HETATM   21  C   UNL     1      45.319 -11.738  10.837  1.00  0.00     0.001 A 
HETATM   22  C   UNL     1      44.315 -10.798  11.021  1.00  0.00     0.003 A 
HETATM   23  C   UNL     1      43.361 -10.597  10.024  1.00  0.00     0.038 A 
HETATM   24  C   UNL     1      43.412 -11.315   8.817  1.00  0.00     0.084 A 
BRANCH  24  25
HETATM   25  O   UNL     1      42.443 -11.142   7.860  1.00  0.00    -0.348 OA
BRANCH  25  26
HETATM   26  C   UNL     1      41.790  -9.864   7.874  1.00  0.00     0.207 C 
BRANCH  26  27
HETATM   27  C   UNL     1      40.325 -10.015   7.439  1.00  0.00     0.145 C 
HETATM   28  O   UNL     1      39.509  -9.147   8.248  1.00  0.00    -0.384 OA
HETATM   29  C   UNL     1      38.677  -9.953   9.099  1.00  0.00     0.168 C 
HETATM   30  C   UNL     1      39.207 -11.367   9.023  1.00  0.00     0.029 C 
HETATM   31  C   UNL     1      39.760 -11.417   7.620  1.00  0.00     0.036 C 
ENDBRANCH  26  27
ENDBRANCH  25  26
ENDBRANCH  24  25
ENDBRANCH   1  19
TORSDOF 8
ENDMDL
MODEL 8
REMARK VINA RESULT:      -7.8      6.776     11.083
REMARK  8 active torsions:
REMARK  status: ('A' for Active; 'I' for Inactive)
REMARK    1  A    between atoms: C_3  and  C_4 
REMARK       I    between atoms: C_4  and  N_5 
REMARK    2  A    between atoms: N_5  and  C_6 
REMARK    3  A    between atoms: C_8  and  C_9 
REMARK    4  A    between atoms: C_9  and  C_10 
REMARK    5  A    between atoms: C_10  and  N_11 
REMARK    6  A    between atoms: C_21  and  O_22 
REMARK    7  A    between atoms: O_22  and  C_23 
REMARK    8  A    between atoms: C_23  and  C_24 
ROOT
HETATM    1  C   UNL     1      43.674 -11.554  11.399  1.00  0.00     0.259 C 
HETATM    2  N   UNL     1      43.969 -11.126  10.116  1.00  0.00    -0.323 N 
HETATM    3  O   UNL     1      44.095 -12.588  11.908  1.00  0.00    -0.267 OA
HETATM    4  H   UNL     1      43.512 -10.270   9.823  1.00  0.00     0.169 HD
ENDROOT
BRANCH   2   5
HETATM    5  C   UNL     1      44.850 -11.735   9.192  1.00  0.00     0.035 A 
HETATM    6  C   UNL     1      44.375 -12.835   8.458  1.00  0.00     0.036 A 
HETATM    7  C   UNL     1      45.179 -13.483   7.496  1.00  0.00    -0.054 A 
HETATM    8  C   UNL     1      46.470 -12.988   7.268  1.00  0.00     0.007 A 
HETATM    9  C   UNL     1      46.953 -11.909   8.002  1.00  0.00     0.003 A 
HETATM   10  C   UNL     1      46.150 -11.291   8.958  1.00  0.00     0.029 A 
BRANCH   7  11
HETATM   11  C   UNL     1      44.595 -14.626   6.692  1.00  0.00     0.066 C 
BRANCH  11  12
HETATM   12  C   UNL     1      43.210 -14.345   6.090  1.00  0.00     0.239 C 
BRANCH  12  13
HETATM   13  N   UNL     1      42.171 -15.334   6.584  1.00  0.00    -0.071 N 
HETATM   14  H   UNL     1      41.686 -14.908   7.386  1.00  0.00     0.279 HD
HETATM   15  C   UNL     1      42.798 -16.632   7.075  1.00  0.00     0.235 C 
HETATM   16  C   UNL     1      42.488 -17.629   5.979  1.00  0.00     0.029 C 
HETATM   17  C   UNL     1      41.086 -17.235   5.566  1.00  0.00     0.029 C 
HETATM   18  C   UNL     1      41.136 -15.718   5.534  1.00  0.00     0.235 C 
ENDBRANCH  12  13
ENDBRANCH  11  12
ENDBRANCH   7  11
ENDBRANCH   2   5
BRANCH   1  19
HETATM   19  C   UNL     1      42.774 -10.680  12.229  1.00  0.00     0.065 A 
HETATM   20  C   UNL     1      43.404  -9.928  13.242  1.00  0.00     0.020 A 
HETATM   21  C   UNL     1      42.679  -9.079  14.076  1.00  0.00     0.001 A 
HETATM   22  C   UNL     1      41.303  -8.975  13.922  1.00  0.00     0.003 A 
HETATM   23  C   UNL     1      40.659  -9.712  12.928  1.00  0.00     0.038 A 
HETATM   24  C   UNL     1      41.384 -10.544  12.058  1.00  0.00     0.084 A 
BRANCH  24  25
HETATM   25  O   UNL     1      40.735 -11.298  11.112  1.00  0.00    -0.348 OA
BRANCH  25  26
HETATM   26  C   UNL     1      39.839 -10.572  10.258  1.00  0.00     0.207 C 
BRANCH  26  27
HETATM   27  C   UNL     1      40.171 -10.850   8.784  1.00  0.00     0.145 C 
HETATM   28  O   UNL     1      41.548 -10.502   8.547  1.00  0.00    -0.384 OA
HETATM   29  C   UNL     1      41.594  -9.355   7.682  1.00  0.00     0.168 C 
HETATM   30  C   UNL     1      40.192  -8.794   7.618  1.00  0.00     0.029 C 
HETATM   31  C   UNL     1      39.352 -10.035   7.794  1.00  0.00     0.036 C 
ENDBRANCH  26  27
ENDBRANCH  25  26
ENDBRANCH  24  25
ENDBRANCH   1  19
TORSDOF 8
ENDMDL
MODEL 9
REMARK VINA RESULT:      -7.8      1.445      1.662
REMARK  8 active torsions:
REMARK  status: ('A' for Active; 'I' for Inactive)
REMARK    1  A    between atoms: C_3  and  C_4 
REMARK       I    between atoms: C_4  and  N_5 
REMARK    2  A    between atoms: N_5  and  C_6 
REMARK    3  A    between atoms: C_8  and  C_9 
REMARK    4  A    between atoms: C_9  and  C_10 
REMARK    5  A    between atoms: C_10  and  N_11 
REMARK    6  A    between atoms: C_21  and  O_22 
REMARK    7  A    between atoms: O_22  and  C_23 
REMARK    8  A    between atoms: C_23  and  C_24 
ROOT
HETATM    1  C   UNL     1      42.124 -17.863   2.283  1.00  0.00     0.259 C 
HETATM    2  N   UNL     1      42.047 -16.566   2.759  1.00  0.00    -0.323 N 
HETATM    3  O   UNL     1      41.448 -18.315   1.364  1.00  0.00    -0.267 OA
HETATM    4  H   UNL     1      42.642 -16.354   3.552  1.00  0.00     0.169 HD
ENDROOT
BRANCH   2   5
HETATM    5  C   UNL     1      41.256 -15.512   2.247  1.00  0.00     0.035 A 
HETATM    6  C   UNL     1      41.524 -15.062   0.943  1.00  0.00     0.036 A 
HETATM    7  C   UNL     1      40.763 -14.035   0.346  1.00  0.00    -0.054 A 
HETATM    8  C   UNL     1      39.705 -13.480   1.080  1.00  0.00     0.007 A 
HETATM    9  C   UNL     1      39.443 -13.910   2.377  1.00  0.00     0.003 A 
HETATM   10  C   UNL     1      40.215 -14.915   2.956  1.00  0.00     0.029 A 
BRANCH   7  11
HETATM   11  C   UNL     1      41.058 -13.630  -1.083  1.00  0.00     0.066 C 
BRANCH  11  12
HETATM   12  C   UNL     1      41.021 -14.782  -2.098  1.00  0.00     0.239 C 
BRANCH  12  13
HETATM   13  N   UNL     1      40.102 -14.474  -3.265  1.00  0.00    -0.071 N 
HETATM   14  H   UNL     1      40.661 -14.006  -3.991  1.00  0.00     0.279 HD
HETATM   15  C   UNL     1      38.978 -13.523  -2.878  1.00  0.00     0.235 C 
HETATM   16  C   UNL     1      37.754 -14.409  -2.805  1.00  0.00     0.029 C 
HETATM   17  C   UNL     1      37.967 -15.359  -3.964  1.00  0.00     0.029 C 
HETATM   18  C   UNL     1      39.443 -15.706  -3.873  1.00  0.00     0.235 C 
ENDBRANCH  12  13
ENDBRANCH  11  12
ENDBRANCH   7  11
ENDBRANCH   2   5
BRANCH   1  19
HETATM   19  C   UNL     1      43.116 -18.784   2.941  1.00  0.00     0.065 A 
HETATM   20  C   UNL     1      43.660 -19.794   2.122  1.00  0.00     0.020 A 
HETATM   21  C   UNL     1      44.591 -20.708   2.614  1.00  0.00     0.001 A 
HETATM   22  C   UNL     1      44.988 -20.635   3.943  1.00  0.00     0.003 A 
HETATM   23  C   UNL     1      44.461 -19.644   4.771  1.00  0.00     0.038 A 
HETATM   24  C   UNL     1      43.548 -18.697   4.277  1.00  0.00     0.084 A 
BRANCH  24  25
HETATM   25  O   UNL     1      43.002 -17.753   5.112  1.00  0.00    -0.348 OA
BRANCH  25  26
HETATM   26  C   UNL     1      43.912 -17.171   6.058  1.00  0.00     0.207 C 
BRANCH  26  27
HETATM   27  C   UNL     1      43.263 -15.955   6.735  1.00  0.00     0.145 C 
HETATM   28  O   UNL     1      42.363 -15.330   5.800  1.00  0.00    -0.384 OA
HETATM   29  C   UNL     1      42.893 -14.046   5.433  1.00  0.00     0.168 C 
HETATM   30  C   UNL     1      44.320 -13.998   5.932  1.00  0.00     0.029 C 
HETATM   31  C   UNL     1      44.250 -14.875   7.158  1.00  0.00     0.036 C 
ENDBRANCH  26  27
ENDBRANCH  25  26
ENDBRANCH  24  25
ENDBRANCH   1  19
TORSDOF 8
ENDMDL
MODEL 10
REMARK VINA RESULT:      -7.7      2.527      7.667
REMARK  8 active torsions:
REMARK  status: ('A' for Active; 'I' for Inactive)
REMARK    1  A    between atoms: C_3  and  C_4 
REMARK       I    between atoms: C_4  and  N_5 
REMARK    2  A    between atoms: N_5  and  C_6 
REMARK    3  A    between atoms: C_8  and  C_9 
REMARK    4  A    between atoms: C_9  and  C_10 
REMARK    5  A    between atoms: C_10  and  N_11 
REMARK    6  A    between atoms: C_21  and  O_22 
REMARK    7  A    between atoms: O_22  and  C_23 
REMARK    8  A    between atoms: C_23  and  C_24 
ROOT
HETATM    1  C   UNL     1      41.869 -16.999   1.618  1.00  0.00     0.259 C 
HETATM    2  N   UNL     1      43.055 -17.682   1.409  1.00  0.00    -0.323 N 
HETATM    3  O   UNL     1      41.039 -17.281   2.477  1.00  0.00    -0.267 OA
HETATM    4  H   UNL     1      43.619 -17.355   0.633  1.00  0.00     0.169 HD
ENDROOT
BRANCH   2   5
HETATM    5  C   UNL     1      43.567 -18.758   2.171  1.00  0.00     0.035 A 
HETATM    6  C   UNL     1      43.997 -18.491   3.481  1.00  0.00     0.036 A 
HETATM    7  C   UNL     1      44.495 -19.513   4.317  1.00  0.00    -0.054 A 
HETATM    8  C   UNL     1      44.532 -20.821   3.817  1.00  0.00     0.007 A 
HETATM    9  C   UNL     1      44.124 -21.092   2.514  1.00  0.00     0.003 A 
HETATM   10  C   UNL     1      43.648 -20.067   1.698  1.00  0.00     0.029 A 
BRANCH   7  11
HETATM   11  C   UNL     1      44.888 -19.178   5.741  1.00  0.00     0.066 C 
BRANCH  11  12
HETATM   12  C   UNL     1      43.724 -19.166   6.743  1.00  0.00     0.239 C 
BRANCH  12  13
HETATM   13  N   UNL     1      43.520 -17.791   7.351  1.00  0.00    -0.071 N 
HETATM   14  H   UNL     1      43.544 -17.892   8.375  1.00  0.00     0.279 HD
HETATM   15  C   UNL     1      42.167 -17.196   6.989  1.00  0.00     0.235 C 
HETATM   16  C   UNL     1      42.495 -16.134   5.961  1.00  0.00     0.029 C 
HETATM   17  C   UNL     1      43.786 -15.550   6.493  1.00  0.00     0.029 C 
HETATM   18  C   UNL     1      44.573 -16.771   6.936  1.00  0.00     0.235 C 
ENDBRANCH  12  13
ENDBRANCH  11  12
ENDBRANCH   7  11
ENDBRANCH   2   5
BRANCH   1  19
HETATM   19  C   UNL     1      41.584 -15.821   0.727  1.00  0.00     0.065 A 
HETATM   20  C   UNL     1      41.269 -16.122  -0.614  1.00  0.00     0.020 A 
HETATM   21  C   UNL     1      40.983 -15.117  -1.538  1.00  0.00     0.001 A 
HETATM   22  C   UNL     1      41.018 -13.787  -1.139  1.00  0.00     0.003 A 
HETATM   23  C   UNL     1      41.330 -13.468   0.183  1.00  0.00     0.038 A 
HETATM   24  C   UNL     1      41.586 -14.473   1.131  1.00  0.00     0.084 A 
BRANCH  24  25
HETATM   25  O   UNL     1      41.935 -14.146   2.418  1.00  0.00    -0.348 OA
BRANCH  25  26
HETATM   26  C   UNL     1      41.314 -12.961   2.939  1.00  0.00     0.207 C 
BRANCH  26  27
HETATM   27  C   UNL     1      39.896 -13.281   3.433  1.00  0.00     0.145 C 
HETATM   28  O   UNL     1      39.296 -12.072   3.934  1.00  0.00    -0.384 OA
HETATM   29  C   UNL     1      39.135 -12.189   5.358  1.00  0.00     0.168 C 
HETATM   30  C   UNL     1      39.933 -13.397   5.794  1.00  0.00     0.029 C 
HETATM   31  C   UNL     1      39.844 -14.285   4.577  1.00  0.00     0.036 C 
ENDBRANCH  26  27
ENDBRANCH  25  26
ENDBRANCH  24  25
ENDBRANCH   1  19
TORSDOF 8
ENDMDL
