MODEL 1
REMARK VINA RESULT:      -7.4      0.000      0.000
REMARK  3 active torsions:
REMARK  status: ('A' for Active; 'I' for Inactive)
REMARK    1  A    between atoms: C_2  and  C_3 
REMARK    2  A    between atoms: C_7  and  N_8 
REMARK       I    between atoms: N_8  and  C_9 
REMARK    3  A    between atoms: C_9  and  C_10 
ROOT
HETATM    1  N   UNL     1      43.859 -14.970   7.390  1.00  0.00    -0.311 N 
HETATM    2  C   UNL     1      43.012 -14.921   6.294  1.00  0.00     0.234 C 
HETATM    3  O   UNL     1      42.869 -13.926   5.581  1.00  0.00    -0.272 OA
HETATM    4  H   UNL     1      43.936 -15.822   7.937  1.00  0.00     0.170 HD
ENDROOT
BRANCH   2   5
HETATM    5  C   UNL     1      42.218 -16.189   6.022  1.00  0.00     0.138 C 
HETATM    6  C   UNL     1      42.812 -17.077   4.989  1.00  0.00    -0.008 A 
HETATM    7  C   UNL     1      43.368 -18.189   5.606  1.00  0.00     0.076 A 
HETATM    8  C   UNL     1      42.905 -16.905   3.618  1.00  0.00     0.030 A 
HETATM    9  C   UNL     1      44.039 -19.162   4.896  1.00  0.00     0.039 A 
HETATM   10  O   UNL     1      43.227 -18.187   6.968  1.00  0.00    -0.349 OA
HETATM   11  C   UNL     1      44.136 -19.009   3.510  1.00  0.00     0.022 A 
HETATM   12  C   UNL     1      43.571 -17.888   2.881  1.00  0.00     0.011 A 
HETATM   13 BR   UNL     1      43.727 -17.698   1.006  1.00  0.00    -0.051 Br
HETATM   14  C   UNL     1      42.250 -17.143   7.221  1.00  0.00     0.194 C 
ENDBRANCH   2   5
BRANCH   1  15
HETATM   15  C   UNL     1      44.652 -13.901   7.750  1.00  0.00     0.126 A 
HETATM   16  N   UNL     1      45.796 -13.523   7.095  1.00  0.00    -0.262 N 
HETATM   17  N   UNL     1      46.400 -12.452   7.641  1.00  0.00    -0.178 NA
HETATM   18  H   UNL     1      46.201 -13.969   6.275  1.00  0.00     0.191 HD
HETATM   19  C   UNL     1      45.618 -12.138   8.680  1.00  0.00     0.058 A 
HETATM   20  C   UNL     1      44.508 -13.012   8.787  1.00  0.00     0.079 A 
BRANCH  19  21
HETATM   21  C   UNL     1      45.965 -10.987   9.564  1.00  0.00     0.056 C 
HETATM   22  C   UNL     1      45.043 -10.889  10.771  1.00  0.00     0.011 C 
ENDBRANCH  19  21
ENDBRANCH   1  15
TORSDOF 3
ENDMDL
MODEL 2
REMARK VINA RESULT:      -7.4      5.798      8.001
REMARK  3 active torsions:
REMARK  status: ('A' for Active; 'I' for Inactive)
REMARK    1  A    between atoms: C_2  and  C_3 
REMARK    2  A    between atoms: C_7  and  N_8 
REMARK       I    between atoms: N_8  and  C_9 
REMARK    3  A    between atoms: C_9  and  C_10 
ROOT
HETATM    1  N   UNL     1      40.724 -16.035  -0.105  1.00  0.00    -0.311 N 
HETATM    2  C   UNL     1      41.746 -16.633   0.615  1.00  0.00     0.234 C 
HETATM    3  O   UNL     1      42.928 -16.622   0.266  1.00  0.00    -0.272 OA
HETATM    4  H   UNL     1      39.769 -16.076   0.237  1.00  0.00     0.170 HD
ENDROOT
BRANCH   2   5
HETATM    5  C   UNL     1      41.319 -17.355   1.883  1.00  0.00     0.138 C 
HETATM    6  C   UNL     1      42.336 -18.293   2.429  1.00  0.00    -0.008 A 
HETATM    7  C   UNL     1      42.904 -17.739   3.567  1.00  0.00     0.076 A 
HETATM    8  C   UNL     1      42.767 -19.515   1.941  1.00  0.00     0.030 A 
HETATM    9  C   UNL     1      43.920 -18.366   4.257  1.00  0.00     0.039 A 
HETATM   10  O   UNL     1      42.396 -16.510   3.890  1.00  0.00    -0.349 OA
HETATM   11  C   UNL     1      44.363 -19.604   3.784  1.00  0.00     0.022 A 
HETATM   12  C   UNL     1      43.788 -20.170   2.635  1.00  0.00     0.011 A 
HETATM   13 BR   UNL     1      44.414 -21.841   2.008  1.00  0.00    -0.051 Br
HETATM   14  C   UNL     1      41.204 -16.393   3.070  1.00  0.00     0.194 C 
ENDBRANCH   2   5
BRANCH   1  15
HETATM   15  C   UNL     1      40.962 -15.333  -1.268  1.00  0.00     0.126 A 
HETATM   16  N   UNL     1      41.334 -15.901  -2.459  1.00  0.00    -0.262 N 
HETATM   17  N   UNL     1      41.515 -15.007  -3.448  1.00  0.00    -0.178 NA
HETATM   18  H   UNL     1      41.480 -16.891  -2.639  1.00  0.00     0.191 HD
HETATM   19  C   UNL     1      41.252 -13.830  -2.868  1.00  0.00     0.058 A 
HETATM   20  C   UNL     1      40.895 -13.982  -1.505  1.00  0.00     0.079 A 
BRANCH  19  21
HETATM   21  C   UNL     1      41.355 -12.564  -3.651  1.00  0.00     0.056 C 
HETATM   22  C   UNL     1      42.475 -11.665  -3.148  1.00  0.00     0.011 C 
ENDBRANCH  19  21
ENDBRANCH   1  15
TORSDOF 3
ENDMDL
MODEL 3
REMARK VINA RESULT:      -7.0      5.127      7.283
REMARK  3 active torsions:
REMARK  status: ('A' for Active; 'I' for Inactive)
REMARK    1  A    between atoms: C_2  and  C_3 
REMARK    2  A    between atoms: C_7  and  N_8 
REMARK       I    between atoms: N_8  and  C_9 
REMARK    3  A    between atoms: C_9  and  C_10 
ROOT
HETATM    1  N   UNL     1      41.169 -16.149   1.013  1.00  0.00    -0.311 N 
HETATM    2  C   UNL     1      42.114 -16.278   2.020  1.00  0.00     0.234 C 
HETATM    3  O   UNL     1      43.176 -15.655   2.048  1.00  0.00    -0.272 OA
HETATM    4  H   UNL     1      40.310 -16.689   1.048  1.00  0.00     0.170 HD
ENDROOT
BRANCH   2   5
HETATM    5  C   UNL     1      41.776 -17.284   3.109  1.00  0.00     0.138 C 
HETATM    6  C   UNL     1      42.745 -18.404   3.233  1.00  0.00    -0.008 A 
HETATM    7  C   UNL     1      43.513 -18.221   4.374  1.00  0.00     0.076 A 
HETATM    8  C   UNL     1      42.973 -19.477   2.387  1.00  0.00     0.030 A 
HETATM    9  C   UNL     1      44.534 -19.083   4.716  1.00  0.00     0.039 A 
HETATM   10  O   UNL     1      43.188 -17.092   5.077  1.00  0.00    -0.349 OA
HETATM   11  C   UNL     1      44.774 -20.175   3.878  1.00  0.00     0.022 A 
HETATM   12  C   UNL     1      43.997 -20.367   2.724  1.00  0.00     0.011 A 
HETATM   13 BR   UNL     1      44.351 -21.846   1.600  1.00  0.00    -0.051 Br
HETATM   14  C   UNL     1      41.921 -16.673   4.507  1.00  0.00     0.194 C 
ENDBRANCH   2   5
BRANCH   1  15
HETATM   15  C   UNL     1      41.332 -15.266  -0.034  1.00  0.00     0.126 A 
HETATM   16  N   UNL     1      41.790 -13.980   0.095  1.00  0.00    -0.262 N 
HETATM   17  N   UNL     1      41.854 -13.312  -1.070  1.00  0.00    -0.178 NA
HETATM   18  H   UNL     1      42.066 -13.518   0.959  1.00  0.00     0.191 HD
HETATM   19  C   UNL     1      41.420 -14.200  -1.973  1.00  0.00     0.058 A 
HETATM   20  C   UNL     1      41.086 -15.440  -1.373  1.00  0.00     0.079 A 
BRANCH  19  21
HETATM   21  C   UNL     1      41.331 -13.827  -3.415  1.00  0.00     0.056 C 
HETATM   22  C   UNL     1      41.762 -12.390  -3.667  1.00  0.00     0.011 C 
ENDBRANCH  19  21
ENDBRANCH   1  15
TORSDOF 3
ENDMDL
MODEL 4
REMARK VINA RESULT:      -6.8      4.530      6.401
REMARK  3 active torsions:
REMARK  status: ('A' for Active; 'I' for Inactive)
REMARK    1  A    between atoms: C_2  and  C_3 
REMARK    2  A    between atoms: C_7  and  N_8 
REMARK       I    between atoms: N_8  and  C_9 
REMARK    3  A    between atoms: C_9  and  C_10 
ROOT
HETATM    1  N   UNL     1      40.247 -16.477   3.109  1.00  0.00    -0.311 N 
HETATM    2  C   UNL     1      41.098 -16.149   4.153  1.00  0.00     0.234 C 
HETATM    3  O   UNL     1      41.690 -15.072   4.245  1.00  0.00    -0.272 OA
HETATM    4  H   UNL     1      39.786 -17.381   3.092  1.00  0.00     0.170 HD
ENDROOT
BRANCH   2   5
HETATM    5  C   UNL     1      41.297 -17.233   5.201  1.00  0.00     0.138 C 
HETATM    6  C   UNL     1      42.553 -18.013   5.048  1.00  0.00    -0.008 A 
HETATM    7  C   UNL     1      43.451 -17.633   6.035  1.00  0.00     0.076 A 
HETATM    8  C   UNL     1      42.906 -18.948   4.089  1.00  0.00     0.030 A 
HETATM    9  C   UNL     1      44.725 -18.154   6.108  1.00  0.00     0.039 A 
HETATM   10  O   UNL     1      42.963 -16.669   6.877  1.00  0.00    -0.349 OA
HETATM   11  C   UNL     1      45.096 -19.105   5.153  1.00  0.00     0.022 A 
HETATM   12  C   UNL     1      44.190 -19.496   4.154  1.00  0.00     0.011 A 
HETATM   13 BR   UNL     1      44.721 -20.775   2.866  1.00  0.00    -0.051 Br
HETATM   14  C   UNL     1      41.539 -16.638   6.592  1.00  0.00     0.194 C 
ENDBRANCH   2   5
BRANCH   1  15
HETATM   15  C   UNL     1      39.960 -15.589   2.094  1.00  0.00     0.126 A 
HETATM   16  N   UNL     1      40.884 -15.086   1.214  1.00  0.00    -0.262 N 
HETATM   17  N   UNL     1      40.362 -14.230   0.317  1.00  0.00    -0.178 NA
HETATM   18  H   UNL     1      41.878 -15.297   1.192  1.00  0.00     0.191 HD
HETATM   19  C   UNL     1      39.063 -14.183   0.636  1.00  0.00     0.058 A 
HETATM   20  C   UNL     1      38.762 -15.020   1.739  1.00  0.00     0.079 A 
BRANCH  19  21
HETATM   21  C   UNL     1      38.127 -13.314  -0.136  1.00  0.00     0.056 C 
HETATM   22  C   UNL     1      37.221 -12.495   0.770  1.00  0.00     0.011 C 
ENDBRANCH  19  21
ENDBRANCH   1  15
TORSDOF 3
ENDMDL
MODEL 5
REMARK VINA RESULT:      -6.8      5.548      8.398
REMARK  3 active torsions:
REMARK  status: ('A' for Active; 'I' for Inactive)
REMARK    1  A    between atoms: C_2  and  C_3 
REMARK    2  A    between atoms: C_7  and  N_8 
REMARK       I    between atoms: N_8  and  C_9 
REMARK    3  A    between atoms: C_9  and  C_10 
ROOT
HETATM    1  N   UNL     1      42.158 -15.772  -0.047  1.00  0.00    -0.311 N 
HETATM    2  C   UNL     1      42.040 -16.886   0.770  1.00  0.00     0.234 C 
HETATM    3  O   UNL     1      40.992 -17.515   0.925  1.00  0.00    -0.272 OA
HETATM    4  H   UNL     1      43.051 -15.297  -0.135  1.00  0.00     0.170 HD
ENDROOT
BRANCH   2   5
HETATM    5  C   UNL     1      43.303 -17.288   1.515  1.00  0.00     0.138 C 
HETATM    6  C   UNL     1      43.281 -16.986   2.970  1.00  0.00    -0.008 A 
HETATM    7  C   UNL     1      43.119 -18.168   3.680  1.00  0.00     0.076 A 
HETATM    8  C   UNL     1      43.347 -15.768   3.624  1.00  0.00     0.030 A 
HETATM    9  C   UNL     1      43.011 -18.188   5.054  1.00  0.00     0.039 A 
HETATM   10  O   UNL     1      43.030 -19.278   2.883  1.00  0.00    -0.349 OA
HETATM   11  C   UNL     1      43.082 -16.968   5.732  1.00  0.00     0.022 A 
HETATM   12  C   UNL     1      43.250 -15.770   5.019  1.00  0.00     0.011 A 
HETATM   13 BR   UNL     1      43.332 -14.131   5.959  1.00  0.00    -0.051 Br
HETATM   14  C   UNL     1      43.461 -18.811   1.577  1.00  0.00     0.194 C 
ENDBRANCH   2   5
BRANCH   1  15
HETATM   15  C   UNL     1      41.100 -15.298  -0.794  1.00  0.00     0.126 A 
HETATM   16  N   UNL     1      40.014 -14.639  -0.279  1.00  0.00    -0.262 N 
HETATM   17  N   UNL     1      39.110 -14.282  -1.208  1.00  0.00    -0.178 NA
HETATM   18  H   UNL     1      39.848 -14.416   0.700  1.00  0.00     0.191 HD
HETATM   19  C   UNL     1      39.635 -14.730  -2.355  1.00  0.00     0.058 A 
HETATM   20  C   UNL     1      40.883 -15.368  -2.148  1.00  0.00     0.079 A 
BRANCH  19  21
HETATM   21  C   UNL     1      38.909 -14.534  -3.644  1.00  0.00     0.056 C 
HETATM   22  C   UNL     1      37.538 -15.194  -3.640  1.00  0.00     0.011 C 
ENDBRANCH  19  21
ENDBRANCH   1  15
TORSDOF 3
ENDMDL
MODEL 6
REMARK VINA RESULT:      -6.7      4.537      7.209
REMARK  3 active torsions:
REMARK  status: ('A' for Active; 'I' for Inactive)
REMARK    1  A    between atoms: C_2  and  C_3 
REMARK    2  A    between atoms: C_7  and  N_8 
REMARK       I    between atoms: N_8  and  C_9 
REMARK    3  A    between atoms: C_9  and  C_10 
ROOT
HETATM    1  N   UNL     1      43.461 -16.798   3.204  1.00  0.00    -0.311 N 
HETATM    2  C   UNL     1      42.260 -16.301   3.684  1.00  0.00     0.234 C 
HETATM    3  O   UNL     1      41.432 -16.978   4.295  1.00  0.00    -0.272 OA
HETATM    4  H   UNL     1      44.104 -16.187   2.710  1.00  0.00     0.170 HD
ENDROOT
BRANCH   2   5
HETATM    5  C   UNL     1      41.990 -14.835   3.382  1.00  0.00     0.138 C 
HETATM    6  C   UNL     1      41.114 -14.602   2.203  1.00  0.00    -0.008 A 
HETATM    7  C   UNL     1      39.860 -14.196   2.639  1.00  0.00     0.076 A 
HETATM    8  C   UNL     1      41.376 -14.777   0.855  1.00  0.00     0.030 A 
HETATM    9  C   UNL     1      38.823 -13.958   1.763  1.00  0.00     0.039 A 
HETATM   10  O   UNL     1      39.754 -14.112   4.001  1.00  0.00    -0.349 OA
HETATM   11  C   UNL     1      39.070 -14.122   0.397  1.00  0.00     0.022 A 
HETATM   12  C   UNL     1      40.339 -14.528  -0.048  1.00  0.00     0.011 A 
HETATM   13 BR   UNL     1      40.645 -14.756  -1.901  1.00  0.00    -0.051 Br
HETATM   14  C   UNL     1      41.127 -14.183   4.468  1.00  0.00     0.194 C 
ENDBRANCH   2   5
BRANCH   1  15
HETATM   15  C   UNL     1      43.848 -18.105   3.414  1.00  0.00     0.126 A 
HETATM   16  N   UNL     1      44.255 -18.613   4.620  1.00  0.00    -0.262 N 
HETATM   17  N   UNL     1      44.590 -19.915   4.570  1.00  0.00    -0.178 NA
HETATM   18  H   UNL     1      44.324 -18.107   5.500  1.00  0.00     0.191 HD
HETATM   19  C   UNL     1      44.392 -20.248   3.289  1.00  0.00     0.058 A 
HETATM   20  C   UNL     1      43.922 -19.150   2.526  1.00  0.00     0.079 A 
BRANCH  19  21
HETATM   21  C   UNL     1      44.669 -21.637   2.819  1.00  0.00     0.056 C 
HETATM   22  C   UNL     1      43.968 -21.952   1.506  1.00  0.00     0.011 C 
ENDBRANCH  19  21
ENDBRANCH   1  15
TORSDOF 3
ENDMDL
MODEL 7
REMARK VINA RESULT:      -6.5      4.475      5.786
REMARK  3 active torsions:
REMARK  status: ('A' for Active; 'I' for Inactive)
REMARK    1  A    between atoms: C_2  and  C_3 
REMARK    2  A    between atoms: C_7  and  N_8 
REMARK       I    between atoms: N_8  and  C_9 
REMARK    3  A    between atoms: C_9  and  C_10 
ROOT
HETATM    1  N   UNL     1      41.117 -10.880   9.337  1.00  0.00    -0.311 N 
HETATM    2  C   UNL     1      42.015 -10.679   8.301  1.00  0.00     0.234 C 
HETATM    3  O   UNL     1      43.222 -10.493   8.465  1.00  0.00    -0.272 OA
HETATM    4  H   UNL     1      40.133 -11.032   9.137  1.00  0.00     0.170 HD
ENDROOT
BRANCH   2   5
HETATM    5  C   UNL     1      41.413 -10.667   6.905  1.00  0.00     0.138 C 
HETATM    6  C   UNL     1      41.265 -12.011   6.287  1.00  0.00    -0.008 A 
HETATM    7  C   UNL     1      39.926 -12.371   6.289  1.00  0.00     0.076 A 
HETATM    8  C   UNL     1      42.233 -12.876   5.804  1.00  0.00     0.030 A 
HETATM    9  C   UNL     1      39.495 -13.595   5.823  1.00  0.00     0.039 A 
HETATM   10  O   UNL     1      39.104 -11.422   6.838  1.00  0.00    -0.349 OA
HETATM   11  C   UNL     1      40.457 -14.479   5.326  1.00  0.00     0.022 A 
HETATM   12  C   UNL     1      41.814 -14.117   5.318  1.00  0.00     0.011 A 
HETATM   13 BR   UNL     1      43.097 -15.336   4.650  1.00  0.00    -0.051 Br
HETATM   14  C   UNL     1      39.941 -10.240   6.928  1.00  0.00     0.194 C 
ENDBRANCH   2   5
BRANCH   1  15
HETATM   15  C   UNL     1      41.521 -10.930  10.655  1.00  0.00     0.126 A 
HETATM   16  N   UNL     1      42.572 -11.676  11.121  1.00  0.00    -0.262 N 
HETATM   17  N   UNL     1      42.764 -11.566  12.448  1.00  0.00    -0.178 NA
HETATM   18  H   UNL     1      43.180 -12.277  10.571  1.00  0.00     0.191 HD
HETATM   19  C   UNL     1      41.803 -10.723  12.842  1.00  0.00     0.058 A 
HETATM   20  C   UNL     1      41.001 -10.293  11.755  1.00  0.00     0.079 A 
BRANCH  19  21
HETATM   21  C   UNL     1      41.671 -10.348  14.280  1.00  0.00     0.056 C 
HETATM   22  C   UNL     1      42.743  -9.362  14.719  1.00  0.00     0.011 C 
ENDBRANCH  19  21
ENDBRANCH   1  15
TORSDOF 3
ENDMDL
MODEL 8
REMARK VINA RESULT:      -6.4      4.934      7.162
REMARK  3 active torsions:
REMARK  status: ('A' for Active; 'I' for Inactive)
REMARK    1  A    between atoms: C_2  and  C_3 
REMARK    2  A    between atoms: C_7  and  N_8 
REMARK       I    between atoms: N_8  and  C_9 
REMARK    3  A    between atoms: C_9  and  C_10 
ROOT
HETATM    1  N   UNL     1      41.739 -15.080   1.820  1.00  0.00    -0.311 N 
HETATM    2  C   UNL     1      42.061 -16.412   2.027  1.00  0.00     0.234 C 
HETATM    3  O   UNL     1      41.255 -17.338   1.919  1.00  0.00    -0.272 OA
HETATM    4  H   UNL     1      42.450 -14.362   1.922  1.00  0.00     0.170 HD
ENDROOT
BRANCH   2   5
HETATM    5  C   UNL     1      43.500 -16.682   2.439  1.00  0.00     0.138 C 
HETATM    6  C   UNL     1      43.645 -17.408   3.728  1.00  0.00    -0.008 A 
HETATM    7  C   UNL     1      44.028 -18.717   3.475  1.00  0.00     0.076 A 
HETATM    8  C   UNL     1      43.412 -16.973   5.022  1.00  0.00     0.030 A 
HETATM    9  C   UNL     1      44.187 -19.642   4.485  1.00  0.00     0.039 A 
HETATM   10  O   UNL     1      44.176 -18.997   2.143  1.00  0.00    -0.349 OA
HETATM   11  C   UNL     1      43.964 -19.219   5.798  1.00  0.00     0.022 A 
HETATM   12  C   UNL     1      43.579 -17.894   6.060  1.00  0.00     0.011 A 
HETATM   13 BR   UNL     1      43.271 -17.351   7.844  1.00  0.00    -0.051 Br
HETATM   14  C   UNL     1      44.175 -17.692   1.505  1.00  0.00     0.194 C 
ENDBRANCH   2   5
BRANCH   1  15
HETATM   15  C   UNL     1      40.477 -14.685   1.430  1.00  0.00     0.126 A 
HETATM   16  N   UNL     1      39.309 -15.194   1.937  1.00  0.00    -0.262 N 
HETATM   17  N   UNL     1      38.205 -14.654   1.391  1.00  0.00    -0.178 NA
HETATM   18  H   UNL     1      39.220 -15.912   2.651  1.00  0.00     0.191 HD
HETATM   19  C   UNL     1      38.683 -13.773   0.504  1.00  0.00     0.058 A 
HETATM   20  C   UNL     1      40.100 -13.751   0.495  1.00  0.00     0.079 A 
BRANCH  19  21
HETATM   21  C   UNL     1      37.751 -12.961  -0.332  1.00  0.00     0.056 C 
HETATM   22  C   UNL     1      36.727 -12.213   0.508  1.00  0.00     0.011 C 
ENDBRANCH  19  21
ENDBRANCH   1  15
TORSDOF 3
ENDMDL
MODEL 9
REMARK VINA RESULT:      -6.3      5.485      7.017
REMARK  3 active torsions:
REMARK  status: ('A' for Active; 'I' for Inactive)
REMARK    1  A    between atoms: C_2  and  C_3 
REMARK    2  A    between atoms: C_7  and  N_8 
REMARK       I    between atoms: N_8  and  C_9 
REMARK    3  A    between atoms: C_9  and  C_10 
ROOT
HETATM    1  N   UNL     1      41.620 -13.998   1.052  1.00  0.00    -0.311 N 
HETATM    2  C   UNL     1      40.444 -14.732   1.082  1.00  0.00     0.234 C 
HETATM    3  O   UNL     1      39.629 -14.761   0.159  1.00  0.00    -0.272 OA
HETATM    4  H   UNL     1      42.253 -14.018   1.845  1.00  0.00     0.170 HD
ENDROOT
BRANCH   2   5
HETATM    5  C   UNL     1      40.186 -15.502   2.368  1.00  0.00     0.138 C 
HETATM    6  C   UNL     1      41.295 -16.404   2.777  1.00  0.00    -0.008 A 
HETATM    7  C   UNL     1      41.956 -15.851   3.864  1.00  0.00     0.076 A 
HETATM    8  C   UNL     1      41.725 -17.594   2.214  1.00  0.00     0.030 A 
HETATM    9  C   UNL     1      43.066 -16.446   4.427  1.00  0.00     0.039 A 
HETATM   10  O   UNL     1      41.432 -14.654   4.274  1.00  0.00    -0.349 OA
HETATM   11  C   UNL     1      43.510 -17.651   3.876  1.00  0.00     0.022 A 
HETATM   12  C   UNL     1      42.841 -18.216   2.778  1.00  0.00     0.011 A 
HETATM   13 BR   UNL     1      43.470 -19.841   2.043  1.00  0.00    -0.051 Br
HETATM   14  C   UNL     1      40.155 -14.574   3.586  1.00  0.00     0.194 C 
ENDBRANCH   2   5
BRANCH   1  15
HETATM   15  C   UNL     1      41.993 -13.261  -0.052  1.00  0.00     0.126 A 
HETATM   16  N   UNL     1      42.161 -13.776  -1.312  1.00  0.00    -0.262 N 
HETATM   17  N   UNL     1      42.536 -12.859  -2.222  1.00  0.00    -0.178 NA
HETATM   18  H   UNL     1      42.034 -14.745  -1.594  1.00  0.00     0.191 HD
HETATM   19  C   UNL     1      42.614 -11.722  -1.520  1.00  0.00     0.058 A 
HETATM   20  C   UNL     1      42.278 -11.922  -0.157  1.00  0.00     0.079 A 
BRANCH  19  21
HETATM   21  C   UNL     1      43.021 -10.451  -2.185  1.00  0.00     0.056 C 
HETATM   22  C   UNL     1      43.924  -9.602  -1.302  1.00  0.00     0.011 C 
ENDBRANCH  19  21
ENDBRANCH   1  15
TORSDOF 3
ENDMDL
MODEL 10
REMARK VINA RESULT:      -6.3      5.931      8.157
REMARK  3 active torsions:
REMARK  status: ('A' for Active; 'I' for Inactive)
REMARK    1  A    between atoms: C_2  and  C_3 
REMARK    2  A    between atoms: C_7  and  N_8 
REMARK       I    between atoms: N_8  and  C_9 
REMARK    3  A    between atoms: C_9  and  C_10 
ROOT
HETATM    1  N   UNL     1      42.122 -16.638   1.306  1.00  0.00    -0.311 N 
HETATM    2  C   UNL     1      40.775 -16.335   1.428  1.00  0.00     0.234 C 
HETATM    3  O   UNL     1      39.989 -16.974   2.128  1.00  0.00    -0.272 OA
HETATM    4  H   UNL     1      42.721 -16.069   0.714  1.00  0.00     0.170 HD
ENDROOT
BRANCH   2   5
HETATM    5  C   UNL     1      40.292 -15.152   0.603  1.00  0.00     0.138 C 
HETATM    6  C   UNL     1      40.334 -13.848   1.315  1.00  0.00    -0.008 A 
HETATM    7  C   UNL     1      41.383 -13.089   0.817  1.00  0.00     0.076 A 
HETATM    8  C   UNL     1      39.545 -13.378   2.352  1.00  0.00     0.030 A 
HETATM    9  C   UNL     1      41.696 -11.847   1.329  1.00  0.00     0.039 A 
HETATM   10  O   UNL     1      42.089 -13.714  -0.176  1.00  0.00    -0.349 OA
HETATM   11  C   UNL     1      40.907 -11.354   2.371  1.00  0.00     0.022 A 
HETATM   12  C   UNL     1      39.841 -12.116   2.875  1.00  0.00     0.011 A 
HETATM   13 BR   UNL     1      38.797 -11.431   4.295  1.00  0.00    -0.051 Br
HETATM   14  C   UNL     1      41.251 -14.839  -0.551  1.00  0.00     0.194 C 
ENDBRANCH   2   5
BRANCH   1  15
HETATM   15  C   UNL     1      42.705 -17.674   2.004  1.00  0.00     0.126 A 
HETATM   16  N   UNL     1      42.708 -17.789   3.371  1.00  0.00    -0.262 N 
HETATM   17  N   UNL     1      43.347 -18.885   3.817  1.00  0.00    -0.178 NA
HETATM   18  H   UNL     1      42.290 -17.142   4.035  1.00  0.00     0.191 HD
HETATM   19  C   UNL     1      43.769 -19.488   2.700  1.00  0.00     0.058 A 
HETATM   20  C   UNL     1      43.387 -18.771   1.538  1.00  0.00     0.079 A 
BRANCH  19  21
HETATM   21  C   UNL     1      44.547 -20.759   2.776  1.00  0.00     0.056 C 
HETATM   22  C   UNL     1      44.086 -21.780   1.746  1.00  0.00     0.011 C 
ENDBRANCH  19  21
ENDBRANCH   1  15
TORSDOF 3
ENDMDL
