MODEL 1
REMARK VINA RESULT:      -8.9      0.000      0.000
REMARK  13 active torsions:
REMARK  status: ('A' for Active; 'I' for Inactive)
REMARK    1  A    between atoms: C_2  and  O_3 
REMARK    2  A    between atoms: O_3  and  C_4 
REMARK    3  A    between atoms: C_5  and  O_6 
REMARK    4  A    between atoms: C_9  and  C_10 
REMARK    5  A    between atoms: N_11  and  C_12 
REMARK    6  A    between atoms: C_12  and  C_13 
REMARK    7  A    between atoms: C_13  and  N_14 
REMARK    8  A    between atoms: C_20  and  O_21 
REMARK    9  A    between atoms: C_22  and  C_23 
REMARK   10  A    between atoms: C_23  and  C_24 
REMARK   11  A    between atoms: C_28  and  O_29 
REMARK   12  A    between atoms: O_29  and  C_30 
REMARK   13  A    between atoms: C_30  and  C_31 
ROOT
HETATM    1  C   UNL     1      40.061 -12.575  -1.280  1.00  0.00     0.161 A 
HETATM    2  N   UNL     1      41.243 -11.877  -1.775  1.00  0.00    -0.332 N 
HETATM    3  C   UNL     1      42.247 -11.878  -0.821  1.00  0.00     0.278 A 
HETATM    4  O   UNL     1      43.345 -11.360  -0.911  1.00  0.00    -0.265 OA
HETATM    5  C   UNL     1      41.740 -12.581   0.374  1.00  0.00     0.146 A 
HETATM    6  C   UNL     1      40.474 -12.929   0.116  1.00  0.00     0.059 A 
ENDROOT
BRANCH   6   7
HETATM    7  C   UNL     1      39.585 -13.626   1.077  1.00  0.00     0.194 C 
HETATM    8  O   UNL     1      38.462 -13.217   1.337  1.00  0.00    -0.287 OA
BRANCH   7   9
HETATM    9  C   UNL     1      40.146 -14.805   1.792  1.00  0.00     0.021 A 
HETATM   10  C   UNL     1      40.370 -14.768   3.179  1.00  0.00    -0.045 A 
HETATM   11  C   UNL     1      39.929 -13.618   4.039  1.00  0.00     0.049 C 
HETATM   12  C   UNL     1      41.016 -15.861   3.780  1.00  0.00     0.044 A 
HETATM   13  C   UNL     1      41.443 -16.953   3.023  1.00  0.00     0.069 A 
HETATM   14  C   UNL     1      41.142 -17.018   1.665  1.00  0.00     0.038 A 
HETATM   15  C   UNL     1      40.485 -15.951   1.052  1.00  0.00     0.019 A 
BRANCH  13  16
HETATM   16  O   UNL     1      42.104 -17.930   3.712  1.00  0.00    -0.347 OA
BRANCH  16  17
HETATM   17  C   UNL     1      43.502 -18.017   3.432  1.00  0.00     0.214 C 
BRANCH  17  18
HETATM   18  C   UNL     1      43.838 -19.460   3.152  1.00  0.00    -0.034 A 
HETATM   19  C   UNL     1      43.391 -20.072   1.973  1.00  0.00     0.009 A 
HETATM   20  C   UNL     1      43.683 -21.413   1.717  1.00  0.00     0.001 A 
HETATM   21  C   UNL     1      44.417 -22.156   2.638  1.00  0.00     0.000 A 
HETATM   22  C   UNL     1      44.860 -21.561   3.818  1.00  0.00     0.001 A 
HETATM   23  C   UNL     1      44.573 -20.219   4.074  1.00  0.00     0.009 A 
ENDBRANCH  17  18
ENDBRANCH  16  17
ENDBRANCH  13  16
ENDBRANCH   7   9
ENDBRANCH   6   7
BRANCH   1  24
HETATM   24  C   UNL     1      39.740 -13.769  -2.158  1.00  0.00    -0.028 A 
HETATM   25  C   UNL     1      40.685 -14.775  -2.425  1.00  0.00     0.012 A 
HETATM   26  C   UNL     1      40.368 -15.848  -3.261  1.00  0.00     0.040 A 
HETATM   27  C   UNL     1      39.099 -15.936  -3.835  1.00  0.00     0.099 A 
HETATM   28  C   UNL     1      38.130 -14.970  -3.554  1.00  0.00     0.102 A 
HETATM   29  C   UNL     1      38.464 -13.887  -2.730  1.00  0.00     0.049 A 
BRANCH  27  30
HETATM   30  O   UNL     1      38.843 -16.960  -4.700  1.00  0.00    -0.358 OA
HETATM   31  H   UNL     1      37.929 -16.894  -5.028  1.00  0.00     0.218 HD
ENDBRANCH  27  30
BRANCH  28  32
HETATM   32  O   UNL     1      36.846 -14.922  -4.025  1.00  0.00    -0.349 OA
BRANCH  32  33
HETATM   33  C   UNL     1      36.352 -13.631  -4.398  1.00  0.00     0.171 C 
HETATM   34  C   UNL     1      35.274 -13.827  -5.450  1.00  0.00     0.034 C 
ENDBRANCH  32  33
ENDBRANCH  28  32
ENDBRANCH   1  24
BRANCH   5  35
HETATM   35  O   UNL     1      42.459 -12.725   1.518  1.00  0.00    -0.355 OA
HETATM   36  H   UNL     1      43.002 -13.531   1.425  1.00  0.00     0.218 HD
ENDBRANCH   5  35
BRANCH   2  37
HETATM   37  C   UNL     1      41.157 -10.797  -2.759  1.00  0.00     0.155 C 
BRANCH  37  38
HETATM   38  C   UNL     1      41.306 -11.250  -4.218  1.00  0.00     0.254 C 
BRANCH  38  39
HETATM   39  N   UNL     1      40.043 -10.995  -5.015  1.00  0.00    -0.077 N 
HETATM   40  H   UNL     1      39.734 -11.914  -5.362  1.00  0.00     0.279 HD
HETATM   41  C   UNL     1      38.942 -10.462  -4.140  1.00  0.00     0.269 C 
HETATM   42  C   UNL     1      40.258 -10.125  -6.225  1.00  0.00     0.269 C 
ENDBRANCH  38  39
ENDBRANCH  37  38
ENDBRANCH   2  37
TORSDOF 13
ENDMDL
MODEL 2
REMARK VINA RESULT:      -8.9      4.526      8.000
REMARK  13 active torsions:
REMARK  status: ('A' for Active; 'I' for Inactive)
REMARK    1  A    between atoms: C_2  and  O_3 
REMARK    2  A    between atoms: O_3  and  C_4 
REMARK    3  A    between atoms: C_5  and  O_6 
REMARK    4  A    between atoms: C_9  and  C_10 
REMARK    5  A    between atoms: N_11  and  C_12 
REMARK    6  A    between atoms: C_12  and  C_13 
REMARK    7  A    between atoms: C_13  and  N_14 
REMARK    8  A    between atoms: C_20  and  O_21 
REMARK    9  A    between atoms: C_22  and  C_23 
REMARK   10  A    between atoms: C_23  and  C_24 
REMARK   11  A    between atoms: C_28  and  O_29 
REMARK   12  A    between atoms: O_29  and  C_30 
REMARK   13  A    between atoms: C_30  and  C_31 
ROOT
HETATM    1  C   UNL     1      41.103 -12.297   4.555  1.00  0.00     0.161 A 
HETATM    2  N   UNL     1      40.082 -11.574   5.306  1.00  0.00    -0.332 N 
HETATM    3  C   UNL     1      38.961 -11.356   4.523  1.00  0.00     0.278 A 
HETATM    4  O   UNL     1      37.947 -10.762   4.842  1.00  0.00    -0.265 OA
HETATM    5  C   UNL     1      39.219 -11.928   3.187  1.00  0.00     0.146 A 
HETATM    6  C   UNL     1      40.465 -12.418   3.205  1.00  0.00     0.059 A 
ENDROOT
BRANCH   6   7
HETATM    7  C   UNL     1      41.133 -13.050   2.041  1.00  0.00     0.194 C 
HETATM    8  O   UNL     1      41.302 -12.455   0.987  1.00  0.00    -0.287 OA
BRANCH   7   9
HETATM    9  C   UNL     1      41.518 -14.482   2.173  1.00  0.00     0.021 A 
HETATM   10  C   UNL     1      40.546 -15.497   2.123  1.00  0.00    -0.045 A 
HETATM   11  C   UNL     1      39.107 -15.223   1.790  1.00  0.00     0.049 C 
HETATM   12  C   UNL     1      40.948 -16.819   2.376  1.00  0.00     0.044 A 
HETATM   13  C   UNL     1      42.274 -17.124   2.688  1.00  0.00     0.069 A 
HETATM   14  C   UNL     1      43.244 -16.125   2.652  1.00  0.00     0.038 A 
HETATM   15  C   UNL     1      42.868 -14.808   2.384  1.00  0.00     0.019 A 
BRANCH  13  16
HETATM   16  O   UNL     1      42.532 -18.436   2.964  1.00  0.00    -0.347 OA
BRANCH  16  17
HETATM   17  C   UNL     1      43.767 -18.926   2.440  1.00  0.00     0.214 C 
BRANCH  17  18
HETATM   18  C   UNL     1      44.135 -20.179   3.195  1.00  0.00    -0.034 A 
HETATM   19  C   UNL     1      44.395 -20.123   4.571  1.00  0.00     0.009 A 
HETATM   20  C   UNL     1      44.755 -21.276   5.271  1.00  0.00     0.001 A 
HETATM   21  C   UNL     1      44.863 -22.493   4.603  1.00  0.00     0.000 A 
HETATM   22  C   UNL     1      44.615 -22.560   3.233  1.00  0.00     0.001 A 
HETATM   23  C   UNL     1      44.252 -21.408   2.531  1.00  0.00     0.009 A 
ENDBRANCH  17  18
ENDBRANCH  16  17
ENDBRANCH  13  16
ENDBRANCH   7   9
ENDBRANCH   6   7
BRANCH   1  24
HETATM   24  C   UNL     1      41.414 -13.624   5.220  1.00  0.00    -0.028 A 
HETATM   25  C   UNL     1      40.432 -14.612   5.411  1.00  0.00     0.012 A 
HETATM   26  C   UNL     1      40.744 -15.812   6.053  1.00  0.00     0.040 A 
HETATM   27  C   UNL     1      42.043 -16.048   6.504  1.00  0.00     0.099 A 
HETATM   28  C   UNL     1      43.046 -15.099   6.291  1.00  0.00     0.102 A 
HETATM   29  C   UNL     1      42.719 -13.889   5.664  1.00  0.00     0.049 A 
BRANCH  27  30
HETATM   30  O   UNL     1      42.299 -17.202   7.186  1.00  0.00    -0.358 OA
HETATM   31  H   UNL     1      42.510 -16.996   8.114  1.00  0.00     0.218 HD
ENDBRANCH  27  30
BRANCH  28  32
HETATM   32  O   UNL     1      44.361 -15.185   6.660  1.00  0.00    -0.349 OA
BRANCH  32  33
HETATM   33  C   UNL     1      45.096 -13.957   6.689  1.00  0.00     0.171 C 
HETATM   34  C   UNL     1      44.928 -13.341   8.067  1.00  0.00     0.034 C 
ENDBRANCH  32  33
ENDBRANCH  28  32
ENDBRANCH   1  24
BRANCH   5  35
HETATM   35  O   UNL     1      38.337 -11.850   2.156  1.00  0.00    -0.355 OA
HETATM   36  H   UNL     1      37.696 -12.579   2.262  1.00  0.00     0.218 HD
ENDBRANCH   5  35
BRANCH   2  37
HETATM   37  C   UNL     1      40.418 -10.652   6.392  1.00  0.00     0.155 C 
BRANCH  37  38
HETATM   38  C   UNL     1      39.848 -11.043   7.762  1.00  0.00     0.254 C 
BRANCH  38  39
HETATM   39  N   UNL     1      40.944 -11.252   8.786  1.00  0.00    -0.077 N 
HETATM   40  H   UNL     1      41.060 -12.270   8.877  1.00  0.00     0.279 HD
HETATM   41  C   UNL     1      42.257 -10.700   8.302  1.00  0.00     0.269 C 
HETATM   42  C   UNL     1      40.598 -10.731  10.155  1.00  0.00     0.269 C 
ENDBRANCH  38  39
ENDBRANCH  37  38
ENDBRANCH   2  37
TORSDOF 13
ENDMDL
MODEL 3
REMARK VINA RESULT:      -8.4      1.374      2.178
REMARK  13 active torsions:
REMARK  status: ('A' for Active; 'I' for Inactive)
REMARK    1  A    between atoms: C_2  and  O_3 
REMARK    2  A    between atoms: O_3  and  C_4 
REMARK    3  A    between atoms: C_5  and  O_6 
REMARK    4  A    between atoms: C_9  and  C_10 
REMARK    5  A    between atoms: N_11  and  C_12 
REMARK    6  A    between atoms: C_12  and  C_13 
REMARK    7  A    between atoms: C_13  and  N_14 
REMARK    8  A    between atoms: C_20  and  O_21 
REMARK    9  A    between atoms: C_22  and  C_23 
REMARK   10  A    between atoms: C_23  and  C_24 
REMARK   11  A    between atoms: C_28  and  O_29 
REMARK   12  A    between atoms: O_29  and  C_30 
REMARK   13  A    between atoms: C_30  and  C_31 
ROOT
HETATM    1  C   UNL     1      39.726 -13.025  -0.689  1.00  0.00     0.161 A 
HETATM    2  N   UNL     1      40.715 -12.012  -1.044  1.00  0.00    -0.332 N 
HETATM    3  C   UNL     1      41.792 -12.053  -0.175  1.00  0.00     0.278 A 
HETATM    4  O   UNL     1      42.770 -11.328  -0.182  1.00  0.00    -0.265 OA
HETATM    5  C   UNL     1      41.534 -13.113   0.820  1.00  0.00     0.146 A 
HETATM    6  C   UNL     1      40.328 -13.625   0.544  1.00  0.00     0.059 A 
ENDROOT
BRANCH   6   7
HETATM    7  C   UNL     1      39.672 -14.695   1.334  1.00  0.00     0.194 C 
HETATM    8  O   UNL     1      38.457 -14.824   1.369  1.00  0.00    -0.287 OA
BRANCH   7   9
HETATM    9  C   UNL     1      40.551 -15.562   2.166  1.00  0.00     0.021 A 
HETATM   10  C   UNL     1      41.317 -16.585   1.580  1.00  0.00    -0.045 A 
HETATM   11  C   UNL     1      41.416 -16.770   0.092  1.00  0.00     0.049 C 
HETATM   12  C   UNL     1      42.031 -17.451   2.424  1.00  0.00     0.044 A 
HETATM   13  C   UNL     1      41.973 -17.318   3.812  1.00  0.00     0.069 A 
HETATM   14  C   UNL     1      41.279 -16.251   4.380  1.00  0.00     0.038 A 
HETATM   15  C   UNL     1      40.578 -15.369   3.557  1.00  0.00     0.019 A 
BRANCH  13  16
HETATM   16  O   UNL     1      42.668 -18.251   4.527  1.00  0.00    -0.347 OA
BRANCH  16  17
HETATM   17  C   UNL     1      44.019 -18.443   4.104  1.00  0.00     0.214 C 
BRANCH  17  18
HETATM   18  C   UNL     1      44.251 -19.923   3.926  1.00  0.00    -0.034 A 
HETATM   19  C   UNL     1      44.634 -20.713   5.019  1.00  0.00     0.009 A 
HETATM   20  C   UNL     1      44.869 -22.079   4.856  1.00  0.00     0.001 A 
HETATM   21  C   UNL     1      44.728 -22.667   3.601  1.00  0.00     0.000 A 
HETATM   22  C   UNL     1      44.355 -21.891   2.506  1.00  0.00     0.001 A 
HETATM   23  C   UNL     1      44.117 -20.524   2.667  1.00  0.00     0.009 A 
ENDBRANCH  17  18
ENDBRANCH  16  17
ENDBRANCH  13  16
ENDBRANCH   7   9
ENDBRANCH   6   7
BRANCH   1  24
HETATM   24  C   UNL     1      39.533 -14.004  -1.831  1.00  0.00    -0.028 A 
HETATM   25  C   UNL     1      40.594 -14.769  -2.346  1.00  0.00     0.012 A 
HETATM   26  C   UNL     1      40.390 -15.642  -3.417  1.00  0.00     0.040 A 
HETATM   27  C   UNL     1      39.121 -15.770  -3.983  1.00  0.00     0.099 A 
HETATM   28  C   UNL     1      38.042 -15.051  -3.463  1.00  0.00     0.102 A 
HETATM   29  C   UNL     1      38.261 -14.163  -2.401  1.00  0.00     0.049 A 
BRANCH  27  30
HETATM   30  O   UNL     1      38.969 -16.580  -5.070  1.00  0.00    -0.358 OA
HETATM   31  H   UNL     1      39.468 -17.405  -4.939  1.00  0.00     0.218 HD
ENDBRANCH  27  30
BRANCH  28  32
HETATM   32  O   UNL     1      36.744 -15.075  -3.896  1.00  0.00    -0.349 OA
BRANCH  32  33
HETATM   33  C   UNL     1      36.410 -14.179  -4.961  1.00  0.00     0.171 C 
HETATM   34  C   UNL     1      35.206 -13.361  -4.526  1.00  0.00     0.034 C 
ENDBRANCH  32  33
ENDBRANCH  28  32
ENDBRANCH   1  24
BRANCH   5  35
HETATM   35  O   UNL     1      42.376 -13.393   1.850  1.00  0.00    -0.355 OA
HETATM   36  H   UNL     1      42.016 -12.962   2.649  1.00  0.00     0.218 HD
ENDBRANCH   5  35
BRANCH   2  37
HETATM   37  C   UNL     1      40.347 -10.760  -1.708  1.00  0.00     0.155 C 
BRANCH  37  38
HETATM   38  C   UNL     1      39.522  -9.797  -0.842  1.00  0.00     0.254 C 
BRANCH  38  39
HETATM   39  N   UNL     1      38.081  -9.723  -1.305  1.00  0.00    -0.077 N 
HETATM   40  H   UNL     1      37.865  -8.721  -1.402  1.00  0.00     0.279 HD
HETATM   41  C   UNL     1      37.911 -10.344  -2.664  1.00  0.00     0.269 C 
HETATM   42  C   UNL     1      37.099 -10.285  -0.313  1.00  0.00     0.269 C 
ENDBRANCH  38  39
ENDBRANCH  37  38
ENDBRANCH   2  37
TORSDOF 13
ENDMDL
MODEL 4
REMARK VINA RESULT:      -8.3      2.685      4.659
REMARK  13 active torsions:
REMARK  status: ('A' for Active; 'I' for Inactive)
REMARK    1  A    between atoms: C_2  and  O_3 
REMARK    2  A    between atoms: O_3  and  C_4 
REMARK    3  A    between atoms: C_5  and  O_6 
REMARK    4  A    between atoms: C_9  and  C_10 
REMARK    5  A    between atoms: N_11  and  C_12 
REMARK    6  A    between atoms: C_12  and  C_13 
REMARK    7  A    between atoms: C_13  and  N_14 
REMARK    8  A    between atoms: C_20  and  O_21 
REMARK    9  A    between atoms: C_22  and  C_23 
REMARK   10  A    between atoms: C_23  and  C_24 
REMARK   11  A    between atoms: C_28  and  O_29 
REMARK   12  A    between atoms: O_29  and  C_30 
REMARK   13  A    between atoms: C_30  and  C_31 
ROOT
HETATM    1  C   UNL     1      40.258 -12.433  -0.103  1.00  0.00     0.161 A 
HETATM    2  N   UNL     1      40.800 -12.517  -1.455  1.00  0.00    -0.332 N 
HETATM    3  C   UNL     1      41.987 -11.809  -1.551  1.00  0.00     0.278 A 
HETATM    4  O   UNL     1      42.675 -11.661  -2.545  1.00  0.00    -0.265 OA
HETATM    5  C   UNL     1      42.265 -11.204  -0.233  1.00  0.00     0.146 A 
HETATM    6  C   UNL     1      41.243 -11.527   0.569  1.00  0.00     0.059 A 
ENDROOT
BRANCH   6   7
HETATM    7  C   UNL     1      41.113 -11.083   1.978  1.00  0.00     0.194 C 
HETATM    8  O   UNL     1      40.927  -9.911   2.275  1.00  0.00    -0.287 OA
BRANCH   7   9
HETATM    9  C   UNL     1      41.306 -12.111   3.037  1.00  0.00     0.021 A 
HETATM   10  C   UNL     1      40.324 -12.330   4.018  1.00  0.00    -0.045 A 
HETATM   11  C   UNL     1      38.979 -11.662   3.979  1.00  0.00     0.049 C 
HETATM   12  C   UNL     1      40.612 -13.223   5.063  1.00  0.00     0.044 A 
HETATM   13  C   UNL     1      41.846 -13.870   5.142  1.00  0.00     0.069 A 
HETATM   14  C   UNL     1      42.780 -13.712   4.121  1.00  0.00     0.038 A 
HETATM   15  C   UNL     1      42.506 -12.842   3.064  1.00  0.00     0.019 A 
BRANCH  13  16
HETATM   16  O   UNL     1      42.027 -14.674   6.231  1.00  0.00    -0.347 OA
BRANCH  16  17
HETATM   17  C   UNL     1      41.495 -15.993   6.094  1.00  0.00     0.214 C 
BRANCH  17  18
HETATM   18  C   UNL     1      42.650 -16.957   5.987  1.00  0.00    -0.034 A 
HETATM   19  C   UNL     1      42.499 -18.162   5.287  1.00  0.00     0.009 A 
HETATM   20  C   UNL     1      43.558 -19.067   5.200  1.00  0.00     0.001 A 
HETATM   21  C   UNL     1      44.774 -18.780   5.816  1.00  0.00     0.000 A 
HETATM   22  C   UNL     1      44.933 -17.589   6.522  1.00  0.00     0.001 A 
HETATM   23  C   UNL     1      43.876 -16.681   6.607  1.00  0.00     0.009 A 
ENDBRANCH  17  18
ENDBRANCH  16  17
ENDBRANCH  13  16
ENDBRANCH   7   9
ENDBRANCH   6   7
BRANCH   1  24
HETATM   24  C   UNL     1      40.155 -13.814   0.517  1.00  0.00    -0.028 A 
HETATM   25  C   UNL     1      39.043 -14.208   1.280  1.00  0.00     0.012 A 
HETATM   26  C   UNL     1      38.991 -15.477   1.861  1.00  0.00     0.040 A 
HETATM   27  C   UNL     1      40.045 -16.374   1.680  1.00  0.00     0.099 A 
HETATM   28  C   UNL     1      41.143 -16.020   0.892  1.00  0.00     0.102 A 
HETATM   29  C   UNL     1      41.195 -14.737   0.330  1.00  0.00     0.049 A 
BRANCH  27  30
HETATM   30  O   UNL     1      39.994 -17.580   2.315  1.00  0.00    -0.358 OA
HETATM   31  H   UNL     1      39.139 -17.677   2.770  1.00  0.00     0.218 HD
ENDBRANCH  27  30
BRANCH  28  32
HETATM   32  O   UNL     1      42.242 -16.784   0.611  1.00  0.00    -0.349 OA
BRANCH  32  33
HETATM   33  C   UNL     1      43.326 -16.710   1.544  1.00  0.00     0.171 C 
HETATM   34  C   UNL     1      43.917 -18.102   1.689  1.00  0.00     0.034 C 
ENDBRANCH  32  33
ENDBRANCH  28  32
ENDBRANCH   1  24
BRANCH   5  35
HETATM   35  O   UNL     1      43.336 -10.403   0.012  1.00  0.00    -0.355 OA
HETATM   36  H   UNL     1      44.068 -10.976   0.310  1.00  0.00     0.218 HD
ENDBRANCH   5  35
BRANCH   2  37
HETATM   37  C   UNL     1      39.946 -12.693  -2.630  1.00  0.00     0.155 C 
BRANCH  37  38
HETATM   38  C   UNL     1      40.169 -14.006  -3.391  1.00  0.00     0.254 C 
BRANCH  38  39
HETATM   39  N   UNL     1      39.171 -15.069  -2.980  1.00  0.00    -0.077 N 
HETATM   40  H   UNL     1      39.566 -15.524  -2.145  1.00  0.00     0.279 HD
HETATM   41  C   UNL     1      37.860 -14.457  -2.569  1.00  0.00     0.269 C 
HETATM   42  C   UNL     1      38.978 -16.148  -4.011  1.00  0.00     0.269 C 
ENDBRANCH  38  39
ENDBRANCH  37  38
ENDBRANCH   2  37
TORSDOF 13
ENDMDL
MODEL 5
REMARK VINA RESULT:      -8.1      2.982      5.474
REMARK  13 active torsions:
REMARK  status: ('A' for Active; 'I' for Inactive)
REMARK    1  A    between atoms: C_2  and  O_3 
REMARK    2  A    between atoms: O_3  and  C_4 
REMARK    3  A    between atoms: C_5  and  O_6 
REMARK    4  A    between atoms: C_9  and  C_10 
REMARK    5  A    between atoms: N_11  and  C_12 
REMARK    6  A    between atoms: C_12  and  C_13 
REMARK    7  A    between atoms: C_13  and  N_14 
REMARK    8  A    between atoms: C_20  and  O_21 
REMARK    9  A    between atoms: C_22  and  C_23 
REMARK   10  A    between atoms: C_23  and  C_24 
REMARK   11  A    between atoms: C_28  and  O_29 
REMARK   12  A    between atoms: O_29  and  C_30 
REMARK   13  A    between atoms: C_30  and  C_31 
ROOT
HETATM    1  C   UNL     1      41.668 -13.128   1.072  1.00  0.00     0.161 A 
HETATM    2  N   UNL     1      40.783 -11.970   1.017  1.00  0.00    -0.332 N 
HETATM    3  C   UNL     1      39.594 -12.292   0.383  1.00  0.00     0.278 A 
HETATM    4  O   UNL     1      38.659 -11.547   0.154  1.00  0.00    -0.265 OA
HETATM    5  C   UNL     1      39.666 -13.708  -0.028  1.00  0.00     0.146 A 
HETATM    6  C   UNL     1      40.875 -14.158   0.328  1.00  0.00     0.059 A 
ENDROOT
BRANCH   6   7
HETATM    7  C   UNL     1      41.369 -15.531   0.060  1.00  0.00     0.194 C 
HETATM    8  O   UNL     1      41.338 -16.027  -1.057  1.00  0.00    -0.287 OA
BRANCH   7   9
HETATM    9  C   UNL     1      41.829 -16.328   1.231  1.00  0.00     0.021 A 
HETATM   10  C   UNL     1      40.927 -16.718   2.236  1.00  0.00    -0.045 A 
HETATM   11  C   UNL     1      39.446 -16.492   2.127  1.00  0.00     0.049 C 
HETATM   12  C   UNL     1      41.437 -17.361   3.376  1.00  0.00     0.044 A 
HETATM   13  C   UNL     1      42.805 -17.595   3.524  1.00  0.00     0.069 A 
HETATM   14  C   UNL     1      43.680 -17.281   2.485  1.00  0.00     0.038 A 
HETATM   15  C   UNL     1      43.190 -16.659   1.336  1.00  0.00     0.019 A 
BRANCH  13  16
HETATM   16  O   UNL     1      43.184 -18.180   4.698  1.00  0.00    -0.347 OA
BRANCH  16  17
HETATM   17  C   UNL     1      44.539 -18.634   4.729  1.00  0.00     0.214 C 
BRANCH  17  18
HETATM   18  C   UNL     1      44.553 -20.098   4.369  1.00  0.00    -0.034 A 
HETATM   19  C   UNL     1      44.687 -21.069   5.371  1.00  0.00     0.009 A 
HETATM   20  C   UNL     1      44.721 -22.425   5.042  1.00  0.00     0.001 A 
HETATM   21  C   UNL     1      44.626 -22.824   3.711  1.00  0.00     0.000 A 
HETATM   22  C   UNL     1      44.501 -21.867   2.705  1.00  0.00     0.001 A 
HETATM   23  C   UNL     1      44.464 -20.510   3.032  1.00  0.00     0.009 A 
ENDBRANCH  17  18
ENDBRANCH  16  17
ENDBRANCH  13  16
ENDBRANCH   7   9
ENDBRANCH   6   7
BRANCH   1  24
HETATM   24  C   UNL     1      41.975 -13.496   2.511  1.00  0.00    -0.028 A 
HETATM   25  C   UNL     1      43.289 -13.717   2.961  1.00  0.00     0.012 A 
HETATM   26  C   UNL     1      43.536 -14.082   4.286  1.00  0.00     0.040 A 
HETATM   27  C   UNL     1      42.477 -14.223   5.183  1.00  0.00     0.099 A 
HETATM   28  C   UNL     1      41.166 -13.970   4.770  1.00  0.00     0.102 A 
HETATM   29  C   UNL     1      40.926 -13.624   3.433  1.00  0.00     0.049 A 
BRANCH  27  30
HETATM   30  O   UNL     1      42.746 -14.646   6.452  1.00  0.00    -0.358 OA
HETATM   31  H   UNL     1      41.926 -14.950   6.879  1.00  0.00     0.218 HD
ENDBRANCH  27  30
BRANCH  28  32
HETATM   32  O   UNL     1      40.028 -14.053   5.526  1.00  0.00    -0.349 OA
BRANCH  32  33
HETATM   33  C   UNL     1      39.710 -12.908   6.324  1.00  0.00     0.171 C 
HETATM   34  C   UNL     1      39.133 -11.842   5.409  1.00  0.00     0.034 C 
ENDBRANCH  32  33
ENDBRANCH  28  32
ENDBRANCH   1  24
BRANCH   5  35
HETATM   35  O   UNL     1      38.678 -14.338  -0.717  1.00  0.00    -0.355 OA
HETATM   36  H   UNL     1      38.266 -13.679  -1.308  1.00  0.00     0.218 HD
ENDBRANCH   5  35
BRANCH   2  37
HETATM   37  C   UNL     1      41.292 -10.598   0.983  1.00  0.00     0.155 C 
BRANCH  37  38
HETATM   38  C   UNL     1      41.638 -10.081  -0.420  1.00  0.00     0.254 C 
BRANCH  38  39
HETATM   39  N   UNL     1      42.976 -10.609  -0.897  1.00  0.00    -0.077 N 
HETATM   40  H   UNL     1      43.381 -11.122  -0.101  1.00  0.00     0.279 HD
HETATM   41  C   UNL     1      42.806 -11.597  -2.018  1.00  0.00     0.269 C 
HETATM   42  C   UNL     1      43.958  -9.526  -1.259  1.00  0.00     0.269 C 
ENDBRANCH  38  39
ENDBRANCH  37  38
ENDBRANCH   2  37
TORSDOF 13
ENDMDL
MODEL 6
REMARK VINA RESULT:      -8.0      3.148      5.923
REMARK  13 active torsions:
REMARK  status: ('A' for Active; 'I' for Inactive)
REMARK    1  A    between atoms: C_2  and  O_3 
REMARK    2  A    between atoms: O_3  and  C_4 
REMARK    3  A    between atoms: C_5  and  O_6 
REMARK    4  A    between atoms: C_9  and  C_10 
REMARK    5  A    between atoms: N_11  and  C_12 
REMARK    6  A    between atoms: C_12  and  C_13 
REMARK    7  A    between atoms: C_13  and  N_14 
REMARK    8  A    between atoms: C_20  and  O_21 
REMARK    9  A    between atoms: C_22  and  C_23 
REMARK   10  A    between atoms: C_23  and  C_24 
REMARK   11  A    between atoms: C_28  and  O_29 
REMARK   12  A    between atoms: O_29  and  C_30 
REMARK   13  A    between atoms: C_30  and  C_31 
ROOT
HETATM    1  C   UNL     1      39.859 -11.842   1.291  1.00  0.00     0.161 A 
HETATM    2  N   UNL     1      39.606 -10.430   1.019  1.00  0.00    -0.332 N 
HETATM    3  C   UNL     1      38.313 -10.246   0.556  1.00  0.00     0.278 A 
HETATM    4  O   UNL     1      37.798  -9.196   0.217  1.00  0.00    -0.265 OA
HETATM    5  C   UNL     1      37.660 -11.568   0.489  1.00  0.00     0.146 A 
HETATM    6  C   UNL     1      38.571 -12.475   0.864  1.00  0.00     0.059 A 
ENDROOT
BRANCH   6   7
HETATM    7  C   UNL     1      38.330 -13.938   0.899  1.00  0.00     0.194 C 
HETATM    8  O   UNL     1      37.203 -14.410   0.934  1.00  0.00    -0.287 OA
BRANCH   7   9
HETATM    9  C   UNL     1      39.525 -14.822   0.982  1.00  0.00     0.021 A 
HETATM   10  C   UNL     1      40.363 -15.008  -0.131  1.00  0.00    -0.045 A 
HETATM   11  C   UNL     1      40.200 -14.229  -1.405  1.00  0.00     0.049 C 
HETATM   12  C   UNL     1      41.403 -15.947  -0.034  1.00  0.00     0.044 A 
HETATM   13  C   UNL     1      41.596 -16.694   1.129  1.00  0.00     0.069 A 
HETATM   14  C   UNL     1      40.815 -16.442   2.255  1.00  0.00     0.038 A 
HETATM   15  C   UNL     1      39.788 -15.499   2.185  1.00  0.00     0.019 A 
BRANCH  13  16
HETATM   16  O   UNL     1      42.607 -17.611   1.084  1.00  0.00    -0.347 OA
BRANCH  16  17
HETATM   17  C   UNL     1      43.510 -17.560   2.190  1.00  0.00     0.214 C 
BRANCH  17  18
HETATM   18  C   UNL     1      43.840 -18.975   2.594  1.00  0.00    -0.034 A 
HETATM   19  C   UNL     1      44.371 -19.240   3.864  1.00  0.00     0.009 A 
HETATM   20  C   UNL     1      44.696 -20.545   4.237  1.00  0.00     0.001 A 
HETATM   21  C   UNL     1      44.500 -21.596   3.343  1.00  0.00     0.000 A 
HETATM   22  C   UNL     1      43.981 -21.344   2.075  1.00  0.00     0.001 A 
HETATM   23  C   UNL     1      43.652 -20.039   1.701  1.00  0.00     0.009 A 
ENDBRANCH  17  18
ENDBRANCH  16  17
ENDBRANCH  13  16
ENDBRANCH   7   9
ENDBRANCH   6   7
BRANCH   1  24
HETATM   24  C   UNL     1      40.203 -12.049   2.753  1.00  0.00    -0.028 A 
HETATM   25  C   UNL     1      39.253 -11.880   3.775  1.00  0.00     0.012 A 
HETATM   26  C   UNL     1      39.609 -12.051   5.115  1.00  0.00     0.040 A 
HETATM   27  C   UNL     1      40.916 -12.402   5.452  1.00  0.00     0.099 A 
HETATM   28  C   UNL     1      41.869 -12.615   4.453  1.00  0.00     0.102 A 
HETATM   29  C   UNL     1      41.508 -12.421   3.113  1.00  0.00     0.049 A 
BRANCH  27  30
HETATM   30  O   UNL     1      41.248 -12.496   6.773  1.00  0.00    -0.358 OA
HETATM   31  H   UNL     1      41.743 -13.318   6.931  1.00  0.00     0.218 HD
ENDBRANCH  27  30
BRANCH  28  32
HETATM   32  O   UNL     1      43.179 -12.971   4.619  1.00  0.00    -0.349 OA
BRANCH  32  33
HETATM   33  C   UNL     1      43.572 -14.232   4.067  1.00  0.00     0.171 C 
HETATM   34  C   UNL     1      43.180 -15.320   5.052  1.00  0.00     0.034 C 
ENDBRANCH  32  33
ENDBRANCH  28  32
ENDBRANCH   1  24
BRANCH   5  35
HETATM   35  O   UNL     1      36.393 -11.754   0.034  1.00  0.00    -0.355 OA
HETATM   36  H   UNL     1      36.002 -10.872  -0.117  1.00  0.00     0.218 HD
ENDBRANCH   5  35
BRANCH   2  37
HETATM   37  C   UNL     1      40.672  -9.507   0.627  1.00  0.00     0.155 C 
BRANCH  37  38
HETATM   38  C   UNL     1      41.819 -10.153  -0.160  1.00  0.00     0.254 C 
BRANCH  38  39
HETATM   39  N   UNL     1      43.119  -9.394   0.019  1.00  0.00    -0.077 N 
HETATM   40  H   UNL     1      43.606  -9.845   0.805  1.00  0.00     0.279 HD
HETATM   41  C   UNL     1      44.005  -9.535  -1.188  1.00  0.00     0.269 C 
HETATM   42  C   UNL     1      42.927  -7.951   0.399  1.00  0.00     0.269 C 
ENDBRANCH  38  39
ENDBRANCH  37  38
ENDBRANCH   2  37
TORSDOF 13
ENDMDL
MODEL 7
REMARK VINA RESULT:      -8.0      3.132      4.680
REMARK  13 active torsions:
REMARK  status: ('A' for Active; 'I' for Inactive)
REMARK    1  A    between atoms: C_2  and  O_3 
REMARK    2  A    between atoms: O_3  and  C_4 
REMARK    3  A    between atoms: C_5  and  O_6 
REMARK    4  A    between atoms: C_9  and  C_10 
REMARK    5  A    between atoms: N_11  and  C_12 
REMARK    6  A    between atoms: C_12  and  C_13 
REMARK    7  A    between atoms: C_13  and  N_14 
REMARK    8  A    between atoms: C_20  and  O_21 
REMARK    9  A    between atoms: C_22  and  C_23 
REMARK   10  A    between atoms: C_23  and  C_24 
REMARK   11  A    between atoms: C_28  and  O_29 
REMARK   12  A    between atoms: O_29  and  C_30 
REMARK   13  A    between atoms: C_30  and  C_31 
ROOT
HETATM    1  C   UNL     1      39.433 -11.831   3.566  1.00  0.00     0.161 A 
HETATM    2  N   UNL     1      39.021 -10.590   2.919  1.00  0.00    -0.332 N 
HETATM    3  C   UNL     1      39.905  -9.566   3.216  1.00  0.00     0.278 A 
HETATM    4  O   UNL     1      39.833  -8.406   2.854  1.00  0.00    -0.265 OA
HETATM    5  C   UNL     1      40.949 -10.109   4.108  1.00  0.00     0.146 A 
HETATM    6  C   UNL     1      40.638 -11.391   4.339  1.00  0.00     0.059 A 
ENDROOT
BRANCH   6   7
HETATM    7  C   UNL     1      41.415 -12.294   5.223  1.00  0.00     0.194 C 
HETATM    8  O   UNL     1      41.675 -12.003   6.382  1.00  0.00    -0.287 OA
BRANCH   7   9
HETATM    9  C   UNL     1      41.951 -13.543   4.616  1.00  0.00     0.021 A 
HETATM   10  C   UNL     1      41.440 -14.800   4.984  1.00  0.00    -0.045 A 
HETATM   11  C   UNL     1      40.244 -14.956   5.880  1.00  0.00     0.049 C 
HETATM   12  C   UNL     1      42.065 -15.950   4.474  1.00  0.00     0.044 A 
HETATM   13  C   UNL     1      43.177 -15.857   3.637  1.00  0.00     0.069 A 
HETATM   14  C   UNL     1      43.624 -14.608   3.211  1.00  0.00     0.038 A 
HETATM   15  C   UNL     1      43.004 -13.453   3.691  1.00  0.00     0.019 A 
BRANCH  13  16
HETATM   16  O   UNL     1      43.728 -17.044   3.248  1.00  0.00    -0.347 OA
BRANCH  16  17
HETATM   17  C   UNL     1      43.827 -18.024   4.282  1.00  0.00     0.214 C 
BRANCH  17  18
HETATM   18  C   UNL     1      43.999 -19.376   3.635  1.00  0.00    -0.034 A 
HETATM   19  C   UNL     1      43.484 -19.615   2.354  1.00  0.00     0.009 A 
HETATM   20  C   UNL     1      43.623 -20.869   1.758  1.00  0.00     0.001 A 
HETATM   21  C   UNL     1      44.272 -21.897   2.438  1.00  0.00     0.000 A 
HETATM   22  C   UNL     1      44.781 -21.675   3.716  1.00  0.00     0.001 A 
HETATM   23  C   UNL     1      44.645 -20.419   4.313  1.00  0.00     0.009 A 
ENDBRANCH  17  18
ENDBRANCH  16  17
ENDBRANCH  13  16
ENDBRANCH   7   9
ENDBRANCH   6   7
BRANCH   1  24
HETATM   24  C   UNL     1      39.713 -12.905   2.532  1.00  0.00    -0.028 A 
HETATM   25  C   UNL     1      39.107 -14.172   2.588  1.00  0.00     0.012 A 
HETATM   26  C   UNL     1      39.407 -15.149   1.636  1.00  0.00     0.040 A 
HETATM   27  C   UNL     1      40.309 -14.870   0.608  1.00  0.00     0.099 A 
HETATM   28  C   UNL     1      40.895 -13.605   0.508  1.00  0.00     0.102 A 
HETATM   29  C   UNL     1      40.603 -12.639   1.480  1.00  0.00     0.049 A 
BRANCH  27  30
HETATM   30  O   UNL     1      40.632 -15.867  -0.266  1.00  0.00    -0.358 OA
HETATM   31  H   UNL     1      40.606 -15.527  -1.177  1.00  0.00     0.218 HD
ENDBRANCH  27  30
BRANCH  28  32
HETATM   32  O   UNL     1      41.783 -13.176  -0.440  1.00  0.00    -0.349 OA
BRANCH  32  33
HETATM   33  C   UNL     1      41.569 -11.861  -0.964  1.00  0.00     0.171 C 
HETATM   34  C   UNL     1      42.927 -11.250  -1.266  1.00  0.00     0.034 C 
ENDBRANCH  32  33
ENDBRANCH  28  32
ENDBRANCH   1  24
BRANCH   5  35
HETATM   35  O   UNL     1      41.955  -9.357   4.628  1.00  0.00    -0.355 OA
HETATM   36  H   UNL     1      41.571  -8.799   5.331  1.00  0.00     0.218 HD
ENDBRANCH   5  35
BRANCH   2  37
HETATM   37  C   UNL     1      37.620 -10.295   2.618  1.00  0.00     0.155 C 
BRANCH  37  38
HETATM   38  C   UNL     1      37.282 -10.261   1.121  1.00  0.00     0.254 C 
BRANCH  38  39
HETATM   39  N   UNL     1      36.659 -11.563   0.658  1.00  0.00    -0.077 N 
HETATM   40  H   UNL     1      36.651 -12.183   1.480  1.00  0.00     0.279 HD
HETATM   41  C   UNL     1      35.227 -11.366   0.241  1.00  0.00     0.269 C 
HETATM   42  C   UNL     1      37.454 -12.267  -0.408  1.00  0.00     0.269 C 
ENDBRANCH  38  39
ENDBRANCH  37  38
ENDBRANCH   2  37
TORSDOF 13
ENDMDL
MODEL 8
REMARK VINA RESULT:      -7.9      2.368      4.379
REMARK  13 active torsions:
REMARK  status: ('A' for Active; 'I' for Inactive)
REMARK    1  A    between atoms: C_2  and  O_3 
REMARK    2  A    between atoms: O_3  and  C_4 
REMARK    3  A    between atoms: C_5  and  O_6 
REMARK    4  A    between atoms: C_9  and  C_10 
REMARK    5  A    between atoms: N_11  and  C_12 
REMARK    6  A    between atoms: C_12  and  C_13 
REMARK    7  A    between atoms: C_13  and  N_14 
REMARK    8  A    between atoms: C_20  and  O_21 
REMARK    9  A    between atoms: C_22  and  C_23 
REMARK   10  A    between atoms: C_23  and  C_24 
REMARK   11  A    between atoms: C_28  and  O_29 
REMARK   12  A    between atoms: O_29  and  C_30 
REMARK   13  A    between atoms: C_30  and  C_31 
ROOT
HETATM    1  C   UNL     1      39.487 -12.443   1.035  1.00  0.00     0.161 A 
HETATM    2  N   UNL     1      38.316 -11.665   0.644  1.00  0.00    -0.332 N 
HETATM    3  C   UNL     1      37.672 -11.156   1.760  1.00  0.00     0.278 A 
HETATM    4  O   UNL     1      36.654 -10.488   1.779  1.00  0.00    -0.265 OA
HETATM    5  C   UNL     1      38.408 -11.609   2.958  1.00  0.00     0.146 A 
HETATM    6  C   UNL     1      39.412 -12.384   2.530  1.00  0.00     0.059 A 
ENDROOT
BRANCH   6   7
HETATM    7  C   UNL     1      40.374 -13.075   3.422  1.00  0.00     0.194 C 
HETATM    8  O   UNL     1      40.842 -12.537   4.415  1.00  0.00    -0.287 OA
BRANCH   7   9
HETATM    9  C   UNL     1      40.826 -14.434   3.014  1.00  0.00     0.021 A 
HETATM   10  C   UNL     1      42.191 -14.716   2.834  1.00  0.00    -0.045 A 
HETATM   11  C   UNL     1      43.273 -13.733   3.180  1.00  0.00     0.049 C 
HETATM   12  C   UNL     1      42.551 -15.976   2.329  1.00  0.00     0.044 A 
HETATM   13  C   UNL     1      41.583 -16.925   1.995  1.00  0.00     0.069 A 
HETATM   14  C   UNL     1      40.239 -16.667   2.255  1.00  0.00     0.038 A 
HETATM   15  C   UNL     1      39.862 -15.427   2.774  1.00  0.00     0.019 A 
BRANCH  13  16
HETATM   16  O   UNL     1      42.054 -18.092   1.465  1.00  0.00    -0.347 OA
BRANCH  16  17
HETATM   17  C   UNL     1      43.477 -18.207   1.445  1.00  0.00     0.214 C 
BRANCH  17  18
HETATM   18  C   UNL     1      43.864 -19.417   2.259  1.00  0.00    -0.034 A 
HETATM   19  C   UNL     1      44.314 -19.265   3.578  1.00  0.00     0.009 A 
HETATM   20  C   UNL     1      44.691 -20.379   4.330  1.00  0.00     0.001 A 
HETATM   21  C   UNL     1      44.627 -21.653   3.771  1.00  0.00     0.000 A 
HETATM   22  C   UNL     1      44.188 -21.816   2.458  1.00  0.00     0.001 A 
HETATM   23  C   UNL     1      43.808 -20.703   1.705  1.00  0.00     0.009 A 
ENDBRANCH  17  18
ENDBRANCH  16  17
ENDBRANCH  13  16
ENDBRANCH   7   9
ENDBRANCH   6   7
BRANCH   1  24
HETATM   24  C   UNL     1      40.748 -11.839   0.449  1.00  0.00    -0.028 A 
HETATM   25  C   UNL     1      41.294 -10.636   0.930  1.00  0.00     0.012 A 
HETATM   26  C   UNL     1      42.441 -10.090   0.349  1.00  0.00     0.040 A 
HETATM   27  C   UNL     1      43.065 -10.743  -0.714  1.00  0.00     0.099 A 
HETATM   28  C   UNL     1      42.565 -11.960  -1.185  1.00  0.00     0.102 A 
HETATM   29  C   UNL     1      41.402 -12.489  -0.609  1.00  0.00     0.049 A 
BRANCH  27  30
HETATM   30  O   UNL     1      44.144 -10.151  -1.303  1.00  0.00    -0.358 OA
HETATM   31  H   UNL     1      44.926 -10.249  -0.732  1.00  0.00     0.218 HD
ENDBRANCH  27  30
BRANCH  28  32
HETATM   32  O   UNL     1      43.066 -12.723  -2.204  1.00  0.00    -0.349 OA
BRANCH  32  33
HETATM   33  C   UNL     1      42.202 -12.934  -3.327  1.00  0.00     0.171 C 
HETATM   34  C   UNL     1      42.180 -11.656  -4.148  1.00  0.00     0.034 C 
ENDBRANCH  32  33
ENDBRANCH  28  32
ENDBRANCH   1  24
BRANCH   5  35
HETATM   35  O   UNL     1      38.018 -11.323   4.228  1.00  0.00    -0.355 OA
HETATM   36  H   UNL     1      37.897 -12.171   4.696  1.00  0.00     0.218 HD
ENDBRANCH   5  35
BRANCH   2  37
HETATM   37  C   UNL     1      37.565 -11.945  -0.580  1.00  0.00     0.155 C 
BRANCH  37  38
HETATM   38  C   UNL     1      37.808 -13.340  -1.173  1.00  0.00     0.254 C 
BRANCH  38  39
HETATM   39  N   UNL     1      38.592 -13.270  -2.467  1.00  0.00    -0.077 N 
HETATM   40  H   UNL     1      39.571 -13.099  -2.198  1.00  0.00     0.279 HD
HETATM   41  C   UNL     1      38.559 -14.584  -3.198  1.00  0.00     0.269 C 
HETATM   42  C   UNL     1      38.183 -12.130  -3.361  1.00  0.00     0.269 C 
ENDBRANCH  38  39
ENDBRANCH  37  38
ENDBRANCH   2  37
TORSDOF 13
ENDMDL
MODEL 9
REMARK VINA RESULT:      -7.8      4.404      8.350
REMARK  13 active torsions:
REMARK  status: ('A' for Active; 'I' for Inactive)
REMARK    1  A    between atoms: C_2  and  O_3 
REMARK    2  A    between atoms: O_3  and  C_4 
REMARK    3  A    between atoms: C_5  and  O_6 
REMARK    4  A    between atoms: C_9  and  C_10 
REMARK    5  A    between atoms: N_11  and  C_12 
REMARK    6  A    between atoms: C_12  and  C_13 
REMARK    7  A    between atoms: C_13  and  N_14 
REMARK    8  A    between atoms: C_20  and  O_21 
REMARK    9  A    between atoms: C_22  and  C_23 
REMARK   10  A    between atoms: C_23  and  C_24 
REMARK   11  A    between atoms: C_28  and  O_29 
REMARK   12  A    between atoms: O_29  and  C_30 
REMARK   13  A    between atoms: C_30  and  C_31 
ROOT
HETATM    1  C   UNL     1      40.935 -13.391   2.610  1.00  0.00     0.161 A 
HETATM    2  N   UNL     1      41.839 -13.467   1.467  1.00  0.00    -0.332 N 
HETATM    3  C   UNL     1      42.049 -12.209   0.925  1.00  0.00     0.278 A 
HETATM    4  O   UNL     1      42.728 -11.933  -0.047  1.00  0.00    -0.265 OA
HETATM    5  C   UNL     1      41.256 -11.238   1.704  1.00  0.00     0.146 A 
HETATM    6  C   UNL     1      40.586 -11.934   2.632  1.00  0.00     0.059 A 
ENDROOT
BRANCH   6   7
HETATM    7  C   UNL     1      39.638 -11.337   3.603  1.00  0.00     0.194 C 
HETATM    8  O   UNL     1      38.455 -11.175   3.341  1.00  0.00    -0.287 OA
BRANCH   7   9
HETATM    9  C   UNL     1      40.201 -10.855   4.894  1.00  0.00     0.021 A 
HETATM   10  C   UNL     1      39.863 -11.480   6.107  1.00  0.00    -0.045 A 
HETATM   11  C   UNL     1      39.050 -12.742   6.167  1.00  0.00     0.049 C 
HETATM   12  C   UNL     1      40.324 -10.907   7.304  1.00  0.00     0.044 A 
HETATM   13  C   UNL     1      41.084  -9.737   7.299  1.00  0.00     0.069 A 
HETATM   14  C   UNL     1      41.484  -9.172   6.090  1.00  0.00     0.038 A 
HETATM   15  C   UNL     1      41.052  -9.737   4.889  1.00  0.00     0.019 A 
BRANCH  13  16
HETATM   16  O   UNL     1      41.429  -9.249   8.527  1.00  0.00    -0.347 OA
BRANCH  16  17
HETATM   17  C   UNL     1      41.404 -10.212   9.582  1.00  0.00     0.214 C 
BRANCH  17  18
HETATM   18  C   UNL     1      42.828 -10.586   9.913  1.00  0.00    -0.034 A 
HETATM   19  C   UNL     1      43.590 -11.334   9.005  1.00  0.00     0.009 A 
HETATM   20  C   UNL     1      44.901 -11.699   9.314  1.00  0.00     0.001 A 
HETATM   21  C   UNL     1      45.461 -11.325  10.533  1.00  0.00     0.000 A 
HETATM   22  C   UNL     1      44.711 -10.588  11.448  1.00  0.00     0.001 A 
HETATM   23  C   UNL     1      43.400 -10.219  11.139  1.00  0.00     0.009 A 
ENDBRANCH  17  18
ENDBRANCH  16  17
ENDBRANCH  13  16
ENDBRANCH   7   9
ENDBRANCH   6   7
BRANCH   1  24
HETATM   24  C   UNL     1      41.624 -13.887   3.867  1.00  0.00    -0.028 A 
HETATM   25  C   UNL     1      42.690 -13.188   4.459  1.00  0.00     0.012 A 
HETATM   26  C   UNL     1      43.323 -13.687   5.601  1.00  0.00     0.040 A 
HETATM   27  C   UNL     1      42.892 -14.884   6.173  1.00  0.00     0.099 A 
HETATM   28  C   UNL     1      41.808 -15.577   5.626  1.00  0.00     0.102 A 
HETATM   29  C   UNL     1      41.194 -15.079   4.469  1.00  0.00     0.049 A 
BRANCH  27  30
HETATM   30  O   UNL     1      43.573 -15.378   7.247  1.00  0.00    -0.358 OA
HETATM   31  H   UNL     1      43.029 -16.041   7.706  1.00  0.00     0.218 HD
ENDBRANCH  27  30
BRANCH  28  32
HETATM   32  O   UNL     1      41.263 -16.749   6.074  1.00  0.00    -0.349 OA
BRANCH  32  33
HETATM   33  C   UNL     1      41.289 -17.853   5.162  1.00  0.00     0.171 C 
HETATM   34  C   UNL     1      42.685 -18.450   5.187  1.00  0.00     0.034 C 
ENDBRANCH  32  33
ENDBRANCH  28  32
ENDBRANCH   1  24
BRANCH   5  35
HETATM   35  O   UNL     1      41.200  -9.912   1.412  1.00  0.00    -0.355 OA
HETATM   36  H   UNL     1      40.959  -9.441   2.233  1.00  0.00     0.218 HD
ENDBRANCH   5  35
BRANCH   2  37
HETATM   37  C   UNL     1      41.936 -14.661   0.626  1.00  0.00     0.155 C 
BRANCH  37  38
HETATM   38  C   UNL     1      40.596 -15.356   0.348  1.00  0.00     0.254 C 
BRANCH  38  39
HETATM   39  N   UNL     1      39.963 -14.859  -0.936  1.00  0.00    -0.077 N 
HETATM   40  H   UNL     1      39.448 -15.659  -1.328  1.00  0.00     0.279 HD
HETATM   41  C   UNL     1      38.955 -13.776  -0.666  1.00  0.00     0.269 C 
HETATM   42  C   UNL     1      40.964 -14.436  -1.978  1.00  0.00     0.269 C 
ENDBRANCH  38  39
ENDBRANCH  37  38
ENDBRANCH   2  37
TORSDOF 13
ENDMDL
MODEL 10
REMARK VINA RESULT:      -7.8      2.636      5.810
REMARK  13 active torsions:
REMARK  status: ('A' for Active; 'I' for Inactive)
REMARK    1  A    between atoms: C_2  and  O_3 
REMARK    2  A    between atoms: O_3  and  C_4 
REMARK    3  A    between atoms: C_5  and  O_6 
REMARK    4  A    between atoms: C_9  and  C_10 
REMARK    5  A    between atoms: N_11  and  C_12 
REMARK    6  A    between atoms: C_12  and  C_13 
REMARK    7  A    between atoms: C_13  and  N_14 
REMARK    8  A    between atoms: C_20  and  O_21 
REMARK    9  A    between atoms: C_22  and  C_23 
REMARK   10  A    between atoms: C_23  and  C_24 
REMARK   11  A    between atoms: C_28  and  O_29 
REMARK   12  A    between atoms: O_29  and  C_30 
REMARK   13  A    between atoms: C_30  and  C_31 
ROOT
HETATM    1  C   UNL     1      40.424 -12.576   1.150  1.00  0.00     0.161 A 
HETATM    2  N   UNL     1      40.370 -11.662   0.014  1.00  0.00    -0.332 N 
HETATM    3  C   UNL     1      39.510 -12.142  -0.960  1.00  0.00     0.278 A 
HETATM    4  O   UNL     1      39.262 -11.631  -2.037  1.00  0.00    -0.265 OA
HETATM    5  C   UNL     1      38.966 -13.433  -0.493  1.00  0.00     0.146 A 
HETATM    6  C   UNL     1      39.536 -13.692   0.691  1.00  0.00     0.059 A 
ENDROOT
BRANCH   6   7
HETATM    7  C   UNL     1      39.290 -14.919   1.488  1.00  0.00     0.194 C 
HETATM    8  O   UNL     1      38.163 -15.344   1.695  1.00  0.00    -0.287 OA
BRANCH   7   9
HETATM    9  C   UNL     1      40.473 -15.573   2.111  1.00  0.00     0.021 A 
HETATM   10  C   UNL     1      41.402 -16.281   1.327  1.00  0.00    -0.045 A 
HETATM   11  C   UNL     1      41.347 -16.296  -0.174  1.00  0.00     0.049 C 
HETATM   12  C   UNL     1      42.429 -16.981   1.979  1.00  0.00     0.044 A 
HETATM   13  C   UNL     1      42.523 -16.996   3.372  1.00  0.00     0.069 A 
HETATM   14  C   UNL     1      41.650 -16.224   4.135  1.00  0.00     0.038 A 
HETATM   15  C   UNL     1      40.633 -15.505   3.505  1.00  0.00     0.019 A 
BRANCH  13  16
HETATM   16  O   UNL     1      43.533 -17.754   3.891  1.00  0.00    -0.347 OA
BRANCH  16  17
HETATM   17  C   UNL     1      44.342 -18.418   2.918  1.00  0.00     0.214 C 
BRANCH  17  18
HETATM   18  C   UNL     1      44.433 -19.875   3.297  1.00  0.00    -0.034 A 
HETATM   19  C   UNL     1      44.770 -20.244   4.607  1.00  0.00     0.009 A 
HETATM   20  C   UNL     1      44.874 -21.590   4.958  1.00  0.00     0.001 A 
HETATM   21  C   UNL     1      44.649 -22.581   4.005  1.00  0.00     0.000 A 
HETATM   22  C   UNL     1      44.320 -22.227   2.697  1.00  0.00     0.001 A 
HETATM   23  C   UNL     1      44.212 -20.880   2.345  1.00  0.00     0.009 A 
ENDBRANCH  17  18
ENDBRANCH  16  17
ENDBRANCH  13  16
ENDBRANCH   7   9
ENDBRANCH   6   7
BRANCH   1  24
HETATM   24  C   UNL     1      39.953 -11.883   2.414  1.00  0.00    -0.028 A 
HETATM   25  C   UNL     1      38.608 -11.527   2.615  1.00  0.00     0.012 A 
HETATM   26  C   UNL     1      38.212 -10.864   3.778  1.00  0.00     0.040 A 
HETATM   27  C   UNL     1      39.151 -10.555   4.763  1.00  0.00     0.099 A 
HETATM   28  C   UNL     1      40.487 -10.934   4.605  1.00  0.00     0.102 A 
HETATM   29  C   UNL     1      40.879 -11.581   3.425  1.00  0.00     0.049 A 
BRANCH  27  30
HETATM   30  O   UNL     1      38.744  -9.848   5.856  1.00  0.00    -0.358 OA
HETATM   31  H   UNL     1      39.209 -10.169   6.648  1.00  0.00     0.218 HD
ENDBRANCH  27  30
BRANCH  28  32
HETATM   32  O   UNL     1      41.518 -10.717   5.477  1.00  0.00    -0.349 OA
BRANCH  32  33
HETATM   33  C   UNL     1      41.583 -11.583   6.615  1.00  0.00     0.171 C 
HETATM   34  C   UNL     1      41.843 -10.726   7.843  1.00  0.00     0.034 C 
ENDBRANCH  32  33
ENDBRANCH  28  32
ENDBRANCH   1  24
BRANCH   5  35
HETATM   35  O   UNL     1      38.119 -14.199  -1.229  1.00  0.00    -0.355 OA
HETATM   36  H   UNL     1      37.928 -15.006  -0.713  1.00  0.00     0.218 HD
ENDBRANCH   5  35
BRANCH   2  37
HETATM   37  C   UNL     1      41.497 -10.803  -0.352  1.00  0.00     0.155 C 
BRANCH  37  38
HETATM   38  C   UNL     1      42.553 -11.479  -1.238  1.00  0.00     0.254 C 
BRANCH  38  39
HETATM   39  N   UNL     1      43.321 -10.468  -2.064  1.00  0.00    -0.077 N 
HETATM   40  H   UNL     1      44.104 -10.983  -2.489  1.00  0.00     0.279 HD
HETATM   41  C   UNL     1      42.482  -9.935  -3.193  1.00  0.00     0.269 C 
HETATM   42  C   UNL     1      43.923  -9.355  -1.250  1.00  0.00     0.269 C 
ENDBRANCH  38  39
ENDBRANCH  37  38
ENDBRANCH   2  37
TORSDOF 13
ENDMDL
