MODEL 1
REMARK VINA RESULT:      -9.5      0.000      0.000
REMARK  6 active torsions:
REMARK  status: ('A' for Active; 'I' for Inactive)
REMARK    1  A    between atoms: O_2  and  C_3 
REMARK    2  A    between atoms: C_6  and  N_7 
REMARK    3  A    between atoms: C_16  and  C_17 
REMARK    4  A    between atoms: C_17  and  C_18 
REMARK    5  A    between atoms: C_26  and  C_27 
REMARK    6  A    between atoms: C_26  and  C_31 
ROOT
HETATM    1  N   UNL     1      41.139 -14.494   2.193  1.00  0.00    -0.249 N 
HETATM    2  C   UNL     1      40.216 -13.677   2.864  1.00  0.00     0.335 C 
HETATM    3  O   UNL     1      39.520 -12.805   2.352  1.00  0.00    -0.246 OA
HETATM    4  N   UNL     1      40.144 -13.855   4.219  1.00  0.00    -0.274 N 
HETATM    5  C   UNL     1      41.033 -14.556   4.959  1.00  0.00     0.262 C 
HETATM    6  O   UNL     1      41.144 -14.438   6.166  1.00  0.00    -0.267 OA
HETATM    7  C   UNL     1      41.878 -15.507   4.236  1.00  0.00     0.101 C 
HETATM    8  C   UNL     1      41.896 -15.430   2.899  1.00  0.00     0.132 C 
HETATM    9  N   UNL     1      42.648 -16.347   2.191  1.00  0.00    -0.331 N 
HETATM   10  C   UNL     1      43.443 -17.225   2.766  1.00  0.00     0.084 C 
HETATM   11  N   UNL     1      43.516 -17.338   4.074  1.00  0.00    -0.351 N 
HETATM   12  H   UNL     1      44.172 -18.013   4.479  1.00  0.00     0.162 HD
HETATM   13  C   UNL     1      42.634 -16.536   5.045  1.00  0.00     0.264 C 
HETATM   14  H   UNL     1      39.562 -13.181   4.707  1.00  0.00     0.173 HD
HETATM   15  H   UNL     1      42.617 -16.334   1.174  1.00  0.00     0.168 HD
ENDROOT
BRANCH   1  16
HETATM   16  C   UNL     1      41.262 -14.312   0.772  1.00  0.00     0.045 A 
HETATM   17  C   UNL     1      40.623 -15.184  -0.121  1.00  0.00     0.033 A 
HETATM   18  C   UNL     1      40.678 -14.949  -1.498  1.00  0.00     0.039 A 
HETATM   19  C   UNL     1      41.374 -13.852  -2.007  1.00  0.00     0.068 A 
HETATM   20  C   UNL     1      42.046 -13.005  -1.129  1.00  0.00     0.039 A 
HETATM   21  C   UNL     1      41.997 -13.239   0.251  1.00  0.00     0.033 A 
BRANCH  19  22
HETATM   22  O   UNL     1      41.321 -13.725  -3.366  1.00  0.00    -0.356 OA
HETATM   23  C   UNL     1      41.252 -12.403  -3.891  1.00  0.00     0.210 C 
ENDBRANCH  19  22
ENDBRANCH   1  16
BRANCH  13  24
HETATM   24  C   UNL     1      41.699 -17.537   5.730  1.00  0.00     0.426 C 
HETATM   25  F   UNL     1      40.691 -17.851   4.870  1.00  0.00    -0.168 F 
HETATM   26  F   UNL     1      42.351 -18.693   5.989  1.00  0.00    -0.168 F 
HETATM   27  F   UNL     1      41.130 -17.106   6.861  1.00  0.00    -0.168 F 
ENDBRANCH  13  24
BRANCH  13  28
HETATM   28  C   UNL     1      43.555 -15.994   6.145  1.00  0.00     0.426 C 
HETATM   29  F   UNL     1      44.078 -14.802   5.767  1.00  0.00    -0.168 F 
HETATM   30  F   UNL     1      43.009 -15.861   7.358  1.00  0.00    -0.168 F 
HETATM   31  F   UNL     1      44.614 -16.842   6.276  1.00  0.00    -0.168 F 
ENDBRANCH  13  28
BRANCH  10  32
HETATM   32  C   UNL     1      44.295 -18.097   1.903  1.00  0.00     0.114 C 
BRANCH  32  33
HETATM   33  C   UNL     1      44.287 -19.530   2.375  1.00  0.00    -0.051 A 
HETATM   34  C   UNL     1      44.829 -19.866   3.625  1.00  0.00     0.007 A 
HETATM   35  C   UNL     1      44.861 -21.195   4.046  1.00  0.00     0.001 A 
HETATM   36  C   UNL     1      44.355 -22.200   3.224  1.00  0.00     0.000 A 
HETATM   37  C   UNL     1      43.814 -21.878   1.983  1.00  0.00     0.001 A 
HETATM   38  C   UNL     1      43.778 -20.549   1.557  1.00  0.00     0.007 A 
ENDBRANCH  32  33
ENDBRANCH  10  32
TORSDOF 6
ENDMDL
MODEL 2
REMARK VINA RESULT:      -9.4      3.257      5.635
REMARK  6 active torsions:
REMARK  status: ('A' for Active; 'I' for Inactive)
REMARK    1  A    between atoms: O_2  and  C_3 
REMARK    2  A    between atoms: C_6  and  N_7 
REMARK    3  A    between atoms: C_16  and  C_17 
REMARK    4  A    between atoms: C_17  and  C_18 
REMARK    5  A    between atoms: C_26  and  C_27 
REMARK    6  A    between atoms: C_26  and  C_31 
ROOT
HETATM    1  N   UNL     1      41.426 -16.344   2.959  1.00  0.00    -0.249 N 
HETATM    2  C   UNL     1      40.338 -16.405   2.074  1.00  0.00     0.335 C 
HETATM    3  O   UNL     1      40.140 -17.280   1.236  1.00  0.00    -0.246 OA
HETATM    4  N   UNL     1      39.464 -15.355   2.137  1.00  0.00    -0.274 N 
HETATM    5  C   UNL     1      39.693 -14.192   2.789  1.00  0.00     0.262 C 
HETATM    6  O   UNL     1      39.071 -13.167   2.573  1.00  0.00    -0.267 OA
HETATM    7  C   UNL     1      40.740 -14.211   3.811  1.00  0.00     0.101 C 
HETATM    8  C   UNL     1      41.555 -15.274   3.846  1.00  0.00     0.132 C 
HETATM    9  N   UNL     1      42.520 -15.339   4.831  1.00  0.00    -0.331 N 
HETATM   10  C   UNL     1      42.760 -14.354   5.671  1.00  0.00     0.084 C 
HETATM   11  N   UNL     1      42.034 -13.258   5.676  1.00  0.00    -0.351 N 
HETATM   12  H   UNL     1      42.277 -12.504   6.326  1.00  0.00     0.162 HD
HETATM   13  C   UNL     1      40.800 -13.054   4.781  1.00  0.00     0.264 C 
HETATM   14  H   UNL     1      38.750 -15.350   1.415  1.00  0.00     0.173 HD
HETATM   15  H   UNL     1      43.101 -16.171   4.902  1.00  0.00     0.168 HD
ENDROOT
BRANCH   1  16
HETATM   16  C   UNL     1      42.381 -17.417   2.898  1.00  0.00     0.045 A 
HETATM   17  C   UNL     1      42.480 -18.351   3.940  1.00  0.00     0.033 A 
HETATM   18  C   UNL     1      43.350 -19.439   3.833  1.00  0.00     0.039 A 
HETATM   19  C   UNL     1      44.141 -19.611   2.696  1.00  0.00     0.068 A 
HETATM   20  C   UNL     1      44.079 -18.665   1.675  1.00  0.00     0.039 A 
HETATM   21  C   UNL     1      43.210 -17.571   1.779  1.00  0.00     0.033 A 
BRANCH  19  22
HETATM   22  O   UNL     1      44.923 -20.731   2.710  1.00  0.00    -0.356 OA
HETATM   23  C   UNL     1      44.423 -21.878   2.029  1.00  0.00     0.210 C 
ENDBRANCH  19  22
ENDBRANCH   1  16
BRANCH  13  24
HETATM   24  C   UNL     1      39.580 -13.008   5.706  1.00  0.00     0.426 C 
HETATM   25  F   UNL     1      39.141 -14.280   5.912  1.00  0.00    -0.168 F 
HETATM   26  F   UNL     1      39.925 -12.526   6.921  1.00  0.00    -0.168 F 
HETATM   27  F   UNL     1      38.540 -12.303   5.247  1.00  0.00    -0.168 F 
ENDBRANCH  13  24
BRANCH  13  28
HETATM   28  C   UNL     1      40.919 -11.654   4.165  1.00  0.00     0.426 C 
HETATM   29  F   UNL     1      41.630 -11.713   3.014  1.00  0.00    -0.168 F 
HETATM   30  F   UNL     1      39.768 -11.015   3.930  1.00  0.00    -0.168 F 
HETATM   31  F   UNL     1      41.644 -10.871   5.014  1.00  0.00    -0.168 F 
ENDBRANCH  13  28
BRANCH  10  32
HETATM   32  C   UNL     1      43.901 -14.486   6.626  1.00  0.00     0.114 C 
BRANCH  32  33
HETATM   33  C   UNL     1      44.152 -15.925   7.002  1.00  0.00    -0.051 A 
HETATM   34  C   UNL     1      45.088 -16.690   6.289  1.00  0.00     0.007 A 
HETATM   35  C   UNL     1      45.292 -18.032   6.608  1.00  0.00     0.001 A 
HETATM   36  C   UNL     1      44.564 -18.624   7.638  1.00  0.00     0.000 A 
HETATM   37  C   UNL     1      43.634 -17.874   8.353  1.00  0.00     0.001 A 
HETATM   38  C   UNL     1      43.427 -16.529   8.039  1.00  0.00     0.007 A 
ENDBRANCH  32  33
ENDBRANCH  10  32
TORSDOF 6
ENDMDL
MODEL 3
REMARK VINA RESULT:      -9.3      3.931      6.646
REMARK  6 active torsions:
REMARK  status: ('A' for Active; 'I' for Inactive)
REMARK    1  A    between atoms: O_2  and  C_3 
REMARK    2  A    between atoms: C_6  and  N_7 
REMARK    3  A    between atoms: C_16  and  C_17 
REMARK    4  A    between atoms: C_17  and  C_18 
REMARK    5  A    between atoms: C_26  and  C_27 
REMARK    6  A    between atoms: C_26  and  C_31 
ROOT
HETATM    1  N   UNL     1      40.489 -13.882   4.079  1.00  0.00    -0.249 N 
HETATM    2  C   UNL     1      39.965 -12.748   4.720  1.00  0.00     0.335 C 
HETATM    3  O   UNL     1      40.093 -12.470   5.909  1.00  0.00    -0.246 OA
HETATM    4  N   UNL     1      39.205 -11.923   3.937  1.00  0.00    -0.274 N 
HETATM    5  C   UNL     1      38.738 -12.234   2.706  1.00  0.00     0.262 C 
HETATM    6  O   UNL     1      37.816 -11.645   2.170  1.00  0.00    -0.267 OA
HETATM    7  C   UNL     1      39.411 -13.330   2.010  1.00  0.00     0.101 C 
HETATM    8  C   UNL     1      40.244 -14.100   2.722  1.00  0.00     0.132 C 
HETATM    9  N   UNL     1      40.929 -15.111   2.078  1.00  0.00    -0.331 N 
HETATM   10  C   UNL     1      40.719 -15.436   0.819  1.00  0.00     0.084 C 
HETATM   11  N   UNL     1      39.887 -14.757   0.060  1.00  0.00    -0.351 N 
HETATM   12  H   UNL     1      39.730 -15.064  -0.905  1.00  0.00     0.162 HD
HETATM   13  C   UNL     1      39.154 -13.488   0.529  1.00  0.00     0.264 C 
HETATM   14  H   UNL     1      38.736 -11.174   4.437  1.00  0.00     0.173 HD
HETATM   15  H   UNL     1      41.610 -15.660   2.598  1.00  0.00     0.168 HD
ENDROOT
BRANCH   1  16
HETATM   16  C   UNL     1      41.268 -14.786   4.880  1.00  0.00     0.045 A 
HETATM   17  C   UNL     1      42.665 -14.675   4.936  1.00  0.00     0.033 A 
HETATM   18  C   UNL     1      43.406 -15.503   5.783  1.00  0.00     0.039 A 
HETATM   19  C   UNL     1      42.772 -16.458   6.580  1.00  0.00     0.068 A 
HETATM   20  C   UNL     1      41.389 -16.603   6.499  1.00  0.00     0.039 A 
HETATM   21  C   UNL     1      40.643 -15.777   5.649  1.00  0.00     0.033 A 
BRANCH  19  22
HETATM   22  O   UNL     1      43.611 -17.178   7.382  1.00  0.00    -0.356 OA
HETATM   23  C   UNL     1      44.716 -17.820   6.753  1.00  0.00     0.210 C 
ENDBRANCH  19  22
ENDBRANCH   1  16
BRANCH  13  24
HETATM   24  C   UNL     1      39.718 -12.321  -0.286  1.00  0.00     0.426 C 
HETATM   25  F   UNL     1      40.911 -11.949   0.253  1.00  0.00    -0.168 F 
HETATM   26  F   UNL     1      39.980 -12.711  -1.554  1.00  0.00    -0.168 F 
HETATM   27  F   UNL     1      38.948 -11.228  -0.327  1.00  0.00    -0.168 F 
ENDBRANCH  13  24
BRANCH  13  28
HETATM   28  C   UNL     1      37.687 -13.634   0.104  1.00  0.00     0.426 C 
HETATM   29  F   UNL     1      37.019 -14.400   1.000  1.00  0.00    -0.168 F 
HETATM   30  F   UNL     1      37.012 -12.495  -0.079  1.00  0.00    -0.168 F 
HETATM   31  F   UNL     1      37.647 -14.317  -1.075  1.00  0.00    -0.168 F 
ENDBRANCH  13  28
BRANCH  10  32
HETATM   32  C   UNL     1      41.435 -16.617   0.252  1.00  0.00     0.114 C 
BRANCH  32  33
HETATM   33  C   UNL     1      42.290 -17.304   1.288  1.00  0.00    -0.051 A 
HETATM   34  C   UNL     1      43.648 -17.549   1.036  1.00  0.00     0.007 A 
HETATM   35  C   UNL     1      44.430 -18.221   1.974  1.00  0.00     0.001 A 
HETATM   36  C   UNL     1      43.865 -18.657   3.171  1.00  0.00     0.000 A 
HETATM   37  C   UNL     1      42.519 -18.418   3.432  1.00  0.00     0.001 A 
HETATM   38  C   UNL     1      41.731 -17.744   2.497  1.00  0.00     0.007 A 
ENDBRANCH  32  33
ENDBRANCH  10  32
TORSDOF 6
ENDMDL
MODEL 4
REMARK VINA RESULT:      -8.9      1.958      2.667
REMARK  6 active torsions:
REMARK  status: ('A' for Active; 'I' for Inactive)
REMARK    1  A    between atoms: O_2  and  C_3 
REMARK    2  A    between atoms: C_6  and  N_7 
REMARK    3  A    between atoms: C_16  and  C_17 
REMARK    4  A    between atoms: C_17  and  C_18 
REMARK    5  A    between atoms: C_26  and  C_27 
REMARK    6  A    between atoms: C_26  and  C_31 
ROOT
HETATM    1  N   UNL     1      40.692 -13.180   1.039  1.00  0.00    -0.249 N 
HETATM    2  C   UNL     1      40.524 -11.811   1.305  1.00  0.00     0.335 C 
HETATM    3  O   UNL     1      40.214 -10.951   0.486  1.00  0.00    -0.246 OA
HETATM    4  N   UNL     1      40.789 -11.421   2.590  1.00  0.00    -0.274 N 
HETATM    5  C   UNL     1      41.410 -12.183   3.520  1.00  0.00     0.262 C 
HETATM    6  O   UNL     1      41.921 -11.727   4.527  1.00  0.00    -0.267 OA
HETATM    7  C   UNL     1      41.432 -13.624   3.275  1.00  0.00     0.101 C 
HETATM    8  C   UNL     1      41.080 -14.054   2.056  1.00  0.00     0.132 C 
HETATM    9  N   UNL     1      41.046 -15.412   1.813  1.00  0.00    -0.331 N 
HETATM   10  C   UNL     1      41.456 -16.310   2.685  1.00  0.00     0.084 C 
HETATM   11  N   UNL     1      41.856 -15.971   3.891  1.00  0.00    -0.351 N 
HETATM   12  H   UNL     1      42.196 -16.700   4.525  1.00  0.00     0.162 HD
HETATM   13  C   UNL     1      41.807 -14.530   4.426  1.00  0.00     0.264 C 
HETATM   14  H   UNL     1      40.780 -10.418   2.741  1.00  0.00     0.173 HD
HETATM   15  H   UNL     1      40.721 -15.747   0.910  1.00  0.00     0.168 HD
ENDROOT
BRANCH   1  16
HETATM   16  C   UNL     1      40.451 -13.619  -0.308  1.00  0.00     0.045 A 
HETATM   17  C   UNL     1      41.518 -13.877  -1.181  1.00  0.00     0.033 A 
HETATM   18  C   UNL     1      41.277 -14.385  -2.460  1.00  0.00     0.039 A 
HETATM   19  C   UNL     1      39.975 -14.635  -2.895  1.00  0.00     0.068 A 
HETATM   20  C   UNL     1      38.907 -14.342  -2.049  1.00  0.00     0.039 A 
HETATM   21  C   UNL     1      39.144 -13.830  -0.767  1.00  0.00     0.033 A 
BRANCH  19  22
HETATM   22  O   UNL     1      39.885 -15.158  -4.153  1.00  0.00    -0.356 OA
HETATM   23  C   UNL     1      38.961 -16.225  -4.347  1.00  0.00     0.210 C 
ENDBRANCH  19  22
ENDBRANCH   1  16
BRANCH  13  24
HETATM   24  C   UNL     1      40.763 -14.506   5.547  1.00  0.00     0.426 C 
HETATM   25  F   UNL     1      39.524 -14.605   4.992  1.00  0.00    -0.168 F 
HETATM   26  F   UNL     1      40.906 -15.584   6.350  1.00  0.00    -0.168 F 
HETATM   27  F   UNL     1      40.766 -13.405   6.307  1.00  0.00    -0.168 F 
ENDBRANCH  13  24
BRANCH  13  28
HETATM   28  C   UNL     1      43.158 -14.254   5.098  1.00  0.00     0.426 C 
HETATM   29  F   UNL     1      44.025 -13.731   4.197  1.00  0.00    -0.168 F 
HETATM   30  F   UNL     1      43.128 -13.466   6.177  1.00  0.00    -0.168 F 
HETATM   31  F   UNL     1      43.695 -15.445   5.487  1.00  0.00    -0.168 F 
ENDBRANCH  13  28
BRANCH  10  32
HETATM   32  C   UNL     1      41.479 -17.748   2.279  1.00  0.00     0.114 C 
BRANCH  32  33
HETATM   33  C   UNL     1      42.626 -18.491   2.918  1.00  0.00    -0.051 A 
HETATM   34  C   UNL     1      43.513 -19.237   2.128  1.00  0.00     0.007 A 
HETATM   35  C   UNL     1      44.549 -19.959   2.719  1.00  0.00     0.001 A 
HETATM   36  C   UNL     1      44.708 -19.945   4.103  1.00  0.00     0.000 A 
HETATM   37  C   UNL     1      43.835 -19.207   4.897  1.00  0.00     0.001 A 
HETATM   38  C   UNL     1      42.796 -18.481   4.310  1.00  0.00     0.007 A 
ENDBRANCH  32  33
ENDBRANCH  10  32
TORSDOF 6
ENDMDL
MODEL 5
REMARK VINA RESULT:      -8.6      3.572      6.780
REMARK  6 active torsions:
REMARK  status: ('A' for Active; 'I' for Inactive)
REMARK    1  A    between atoms: O_2  and  C_3 
REMARK    2  A    between atoms: C_6  and  N_7 
REMARK    3  A    between atoms: C_16  and  C_17 
REMARK    4  A    between atoms: C_17  and  C_18 
REMARK    5  A    between atoms: C_26  and  C_27 
REMARK    6  A    between atoms: C_26  and  C_31 
ROOT
HETATM    1  N   UNL     1      41.034 -11.708   5.458  1.00  0.00    -0.249 N 
HETATM    2  C   UNL     1      40.997 -10.626   4.565  1.00  0.00     0.335 C 
HETATM    3  O   UNL     1      40.877  -9.443   4.871  1.00  0.00    -0.246 OA
HETATM    4  N   UNL     1      41.048 -10.952   3.237  1.00  0.00    -0.274 N 
HETATM    5  C   UNL     1      40.892 -12.199   2.737  1.00  0.00     0.262 C 
HETATM    6  O   UNL     1      40.618 -12.426   1.572  1.00  0.00    -0.267 OA
HETATM    7  C   UNL     1      41.086 -13.307   3.673  1.00  0.00     0.101 C 
HETATM    8  C   UNL     1      41.142 -13.014   4.979  1.00  0.00     0.132 C 
HETATM    9  N   UNL     1      41.373 -14.036   5.879  1.00  0.00    -0.331 N 
HETATM   10  C   UNL     1      41.424 -15.305   5.532  1.00  0.00     0.084 C 
HETATM   11  N   UNL     1      41.335 -15.681   4.275  1.00  0.00    -0.351 N 
HETATM   12  H   UNL     1      41.349 -16.682   4.054  1.00  0.00     0.162 HD
HETATM   13  C   UNL     1      41.252 -14.695   3.098  1.00  0.00     0.264 C 
HETATM   14  H   UNL     1      40.902 -10.175   2.601  1.00  0.00     0.173 HD
HETATM   15  H   UNL     1      41.479 -13.813   6.866  1.00  0.00     0.168 HD
ENDROOT
BRANCH   1  16
HETATM   16  C   UNL     1      40.952 -11.403   6.860  1.00  0.00     0.045 A 
HETATM   17  C   UNL     1      42.094 -11.029   7.582  1.00  0.00     0.033 A 
HETATM   18  C   UNL     1      41.990 -10.651   8.924  1.00  0.00     0.039 A 
HETATM   19  C   UNL     1      40.752 -10.648   9.570  1.00  0.00     0.068 A 
HETATM   20  C   UNL     1      39.619 -11.058   8.871  1.00  0.00     0.039 A 
HETATM   21  C   UNL     1      39.720 -11.440   7.527  1.00  0.00     0.033 A 
BRANCH  19  22
HETATM   22  O   UNL     1      40.789 -10.229  10.869  1.00  0.00    -0.356 OA
HETATM   23  C   UNL     1      41.772 -10.821  11.713  1.00  0.00     0.210 C 
ENDBRANCH  19  22
ENDBRANCH   1  16
BRANCH  13  24
HETATM   24  C   UNL     1      42.552 -14.841   2.301  1.00  0.00     0.426 C 
HETATM   25  F   UNL     1      43.501 -14.044   2.864  1.00  0.00    -0.168 F 
HETATM   26  F   UNL     1      43.021 -16.106   2.386  1.00  0.00    -0.168 F 
HETATM   27  F   UNL     1      42.471 -14.502   1.009  1.00  0.00    -0.168 F 
ENDBRANCH  13  24
BRANCH  13  28
HETATM   28  C   UNL     1      40.131 -15.189   2.176  1.00  0.00     0.426 C 
HETATM   29  F   UNL     1      38.935 -14.720   2.607  1.00  0.00    -0.168 F 
HETATM   30  F   UNL     1      40.266 -14.901   0.878  1.00  0.00    -0.168 F 
HETATM   31  F   UNL     1      40.058 -16.547   2.278  1.00  0.00    -0.168 F 
ENDBRANCH  13  28
BRANCH  10  32
HETATM   32  C   UNL     1      41.569 -16.337   6.601  1.00  0.00     0.114 C 
BRANCH  32  33
HETATM   33  C   UNL     1      42.742 -17.250   6.342  1.00  0.00    -0.051 A 
HETATM   34  C   UNL     1      44.001 -16.957   6.886  1.00  0.00     0.007 A 
HETATM   35  C   UNL     1      45.096 -17.776   6.614  1.00  0.00     0.001 A 
HETATM   36  C   UNL     1      44.946 -18.893   5.795  1.00  0.00     0.000 A 
HETATM   37  C   UNL     1      43.701 -19.195   5.251  1.00  0.00     0.001 A 
HETATM   38  C   UNL     1      42.600 -18.379   5.521  1.00  0.00     0.007 A 
ENDBRANCH  32  33
ENDBRANCH  10  32
TORSDOF 6
ENDMDL
MODEL 6
REMARK VINA RESULT:      -8.5      3.978      7.709
REMARK  6 active torsions:
REMARK  status: ('A' for Active; 'I' for Inactive)
REMARK    1  A    between atoms: O_2  and  C_3 
REMARK    2  A    between atoms: C_6  and  N_7 
REMARK    3  A    between atoms: C_16  and  C_17 
REMARK    4  A    between atoms: C_17  and  C_18 
REMARK    5  A    between atoms: C_26  and  C_27 
REMARK    6  A    between atoms: C_26  and  C_31 
ROOT
HETATM    1  N   UNL     1      40.548 -12.014   5.964  1.00  0.00    -0.249 N 
HETATM    2  C   UNL     1      39.592 -11.522   5.060  1.00  0.00     0.335 C 
HETATM    3  O   UNL     1      38.808 -10.602   5.271  1.00  0.00    -0.246 OA
HETATM    4  N   UNL     1      39.514 -12.182   3.864  1.00  0.00    -0.274 N 
HETATM    5  C   UNL     1      40.095 -13.374   3.596  1.00  0.00     0.262 C 
HETATM    6  O   UNL     1      39.760 -14.091   2.670  1.00  0.00    -0.267 OA
HETATM    7  C   UNL     1      41.190 -13.781   4.477  1.00  0.00     0.101 C 
HETATM    8  C   UNL     1      41.362 -13.092   5.613  1.00  0.00     0.132 C 
HETATM    9  N   UNL     1      42.417 -13.424   6.439  1.00  0.00    -0.331 N 
HETATM   10  C   UNL     1      43.199 -14.462   6.227  1.00  0.00     0.084 C 
HETATM   11  N   UNL     1      43.071 -15.217   5.158  1.00  0.00    -0.351 N 
HETATM   12  H   UNL     1      43.681 -16.033   5.049  1.00  0.00     0.162 HD
HETATM   13  C   UNL     1      42.075 -14.919   4.023  1.00  0.00     0.264 C 
HETATM   14  H   UNL     1      38.744 -11.896   3.268  1.00  0.00     0.173 HD
HETATM   15  H   UNL     1      42.591 -12.866   7.271  1.00  0.00     0.168 HD
ENDROOT
BRANCH   1  16
HETATM   16  C   UNL     1      40.635 -11.362   7.242  1.00  0.00     0.045 A 
HETATM   17  C   UNL     1      39.686 -11.615   8.244  1.00  0.00     0.033 A 
HETATM   18  C   UNL     1      39.828 -11.043   9.511  1.00  0.00     0.039 A 
HETATM   19  C   UNL     1      40.907 -10.206   9.800  1.00  0.00     0.068 A 
HETATM   20  C   UNL     1      41.830  -9.917   8.798  1.00  0.00     0.039 A 
HETATM   21  C   UNL     1      41.691 -10.485   7.525  1.00  0.00     0.033 A 
BRANCH  19  22
HETATM   22  O   UNL     1      40.939  -9.740  11.083  1.00  0.00    -0.356 OA
HETATM   23  C   UNL     1      42.194  -9.282  11.575  1.00  0.00     0.210 C 
ENDBRANCH  19  22
ENDBRANCH   1  16
BRANCH  13  24
HETATM   24  C   UNL     1      42.903 -14.553   2.788  1.00  0.00     0.426 C 
HETATM   25  F   UNL     1      43.268 -13.245   2.878  1.00  0.00    -0.168 F 
HETATM   26  F   UNL     1      44.052 -15.265   2.759  1.00  0.00    -0.168 F 
HETATM   27  F   UNL     1      42.277 -14.706   1.615  1.00  0.00    -0.168 F 
ENDBRANCH  13  24
BRANCH  13  28
HETATM   28  C   UNL     1      41.370 -16.238   3.688  1.00  0.00     0.426 C 
HETATM   29  F   UNL     1      40.378 -16.474   4.580  1.00  0.00    -0.168 F 
HETATM   30  F   UNL     1      40.873 -16.341   2.451  1.00  0.00    -0.168 F 
HETATM   31  F   UNL     1      42.264 -17.256   3.845  1.00  0.00    -0.168 F 
ENDBRANCH  13  28
BRANCH  10  32
HETATM   32  C   UNL     1      44.242 -14.796   7.243  1.00  0.00     0.114 C 
BRANCH  32  33
HETATM   33  C   UNL     1      44.904 -13.557   7.792  1.00  0.00    -0.051 A 
HETATM   34  C   UNL     1      46.125 -13.112   7.261  1.00  0.00     0.007 A 
HETATM   35  C   UNL     1      46.760 -11.992   7.795  1.00  0.00     0.001 A 
HETATM   36  C   UNL     1      46.186 -11.306   8.864  1.00  0.00     0.000 A 
HETATM   37  C   UNL     1      44.975 -11.738   9.398  1.00  0.00     0.001 A 
HETATM   38  C   UNL     1      44.333 -12.859   8.866  1.00  0.00     0.007 A 
ENDBRANCH  32  33
ENDBRANCH  10  32
TORSDOF 6
ENDMDL
MODEL 7
REMARK VINA RESULT:      -8.4      3.786      6.549
REMARK  6 active torsions:
REMARK  status: ('A' for Active; 'I' for Inactive)
REMARK    1  A    between atoms: O_2  and  C_3 
REMARK    2  A    between atoms: C_6  and  N_7 
REMARK    3  A    between atoms: C_16  and  C_17 
REMARK    4  A    between atoms: C_17  and  C_18 
REMARK    5  A    between atoms: C_26  and  C_27 
REMARK    6  A    between atoms: C_26  and  C_31 
ROOT
HETATM    1  N   UNL     1      41.532 -13.516   3.634  1.00  0.00    -0.249 N 
HETATM    2  C   UNL     1      41.542 -12.139   3.908  1.00  0.00     0.335 C 
HETATM    3  O   UNL     1      41.773 -11.623   4.998  1.00  0.00    -0.246 OA
HETATM    4  N   UNL     1      41.209 -11.324   2.860  1.00  0.00    -0.274 N 
HETATM    5  C   UNL     1      40.657 -11.741   1.697  1.00  0.00     0.262 C 
HETATM    6  O   UNL     1      40.077 -10.998   0.926  1.00  0.00    -0.267 OA
HETATM    7  C   UNL     1      40.799 -13.162   1.379  1.00  0.00     0.101 C 
HETATM    8  C   UNL     1      41.221 -13.978   2.354  1.00  0.00     0.132 C 
HETATM    9  N   UNL     1      41.410 -15.315   2.066  1.00  0.00    -0.331 N 
HETATM   10  C   UNL     1      41.084 -15.857   0.911  1.00  0.00     0.084 C 
HETATM   11  N   UNL     1      40.624 -15.134  -0.086  1.00  0.00    -0.351 N 
HETATM   12  H   UNL     1      40.353 -15.601  -0.956  1.00  0.00     0.162 HD
HETATM   13  C   UNL     1      40.503 -13.601  -0.037  1.00  0.00     0.264 C 
HETATM   14  H   UNL     1      41.105 -10.343   3.099  1.00  0.00     0.173 HD
HETATM   15  H   UNL     1      41.789 -15.929   2.783  1.00  0.00     0.168 HD
ENDROOT
BRANCH   1  16
HETATM   16  C   UNL     1      41.848 -14.402   4.721  1.00  0.00     0.045 A 
HETATM   17  C   UNL     1      40.832 -15.068   5.422  1.00  0.00     0.033 A 
HETATM   18  C   UNL     1      41.153 -15.993   6.420  1.00  0.00     0.039 A 
HETATM   19  C   UNL     1      42.484 -16.262   6.743  1.00  0.00     0.068 A 
HETATM   20  C   UNL     1      43.497 -15.573   6.079  1.00  0.00     0.039 A 
HETATM   21  C   UNL     1      43.180 -14.643   5.080  1.00  0.00     0.033 A 
BRANCH  19  22
HETATM   22  O   UNL     1      42.655 -17.206   7.714  1.00  0.00    -0.356 OA
HETATM   23  C   UNL     1      43.800 -18.046   7.606  1.00  0.00     0.210 C 
ENDBRANCH  19  22
ENDBRANCH   1  16
BRANCH  13  24
HETATM   24  C   UNL     1      41.514 -13.041  -1.042  1.00  0.00     0.426 C 
HETATM   25  F   UNL     1      40.915 -12.050  -1.758  1.00  0.00    -0.168 F 
HETATM   26  F   UNL     1      42.554 -12.466  -0.397  1.00  0.00    -0.168 F 
HETATM   27  F   UNL     1      41.994 -13.926  -1.922  1.00  0.00    -0.168 F 
ENDBRANCH  13  24
BRANCH  13  28
HETATM   28  C   UNL     1      39.116 -13.242  -0.584  1.00  0.00     0.426 C 
HETATM   29  F   UNL     1      39.085 -11.939  -0.953  1.00  0.00    -0.168 F 
HETATM   30  F   UNL     1      38.674 -13.990  -1.601  1.00  0.00    -0.168 F 
HETATM   31  F   UNL     1      38.209 -13.366   0.426  1.00  0.00    -0.168 F 
ENDBRANCH  13  28
BRANCH  10  32
HETATM   32  C   UNL     1      41.228 -17.334   0.743  1.00  0.00     0.114 C 
BRANCH  32  33
HETATM   33  C   UNL     1      42.188 -17.920   1.748  1.00  0.00    -0.051 A 
HETATM   34  C   UNL     1      41.818 -18.035   3.097  1.00  0.00     0.007 A 
HETATM   35  C   UNL     1      42.719 -18.538   4.035  1.00  0.00     0.001 A 
HETATM   36  C   UNL     1      43.996 -18.929   3.638  1.00  0.00     0.000 A 
HETATM   37  C   UNL     1      44.374 -18.820   2.302  1.00  0.00     0.001 A 
HETATM   38  C   UNL     1      43.475 -18.318   1.358  1.00  0.00     0.007 A 
ENDBRANCH  32  33
ENDBRANCH  10  32
TORSDOF 6
ENDMDL
MODEL 8
REMARK VINA RESULT:      -8.3      3.671      6.193
REMARK  6 active torsions:
REMARK  status: ('A' for Active; 'I' for Inactive)
REMARK    1  A    between atoms: O_2  and  C_3 
REMARK    2  A    between atoms: C_6  and  N_7 
REMARK    3  A    between atoms: C_16  and  C_17 
REMARK    4  A    between atoms: C_17  and  C_18 
REMARK    5  A    between atoms: C_26  and  C_27 
REMARK    6  A    between atoms: C_26  and  C_31 
ROOT
HETATM    1  N   UNL     1      41.348 -15.360   0.648  1.00  0.00    -0.249 N 
HETATM    2  C   UNL     1      41.002 -15.239  -0.707  1.00  0.00     0.335 C 
HETATM    3  O   UNL     1      41.266 -16.048  -1.593  1.00  0.00    -0.246 OA
HETATM    4  N   UNL     1      40.360 -14.082  -1.054  1.00  0.00    -0.274 N 
HETATM    5  C   UNL     1      40.257 -12.986  -0.268  1.00  0.00     0.262 C 
HETATM    6  O   UNL     1      39.981 -11.878  -0.693  1.00  0.00    -0.267 OA
HETATM    7  C   UNL     1      40.481 -13.186   1.164  1.00  0.00     0.101 C 
HETATM    8  C   UNL     1      41.016 -14.351   1.553  1.00  0.00     0.132 C 
HETATM    9  N   UNL     1      41.193 -14.583   2.902  1.00  0.00    -0.331 N 
HETATM   10  C   UNL     1      40.971 -13.672   3.826  1.00  0.00     0.084 C 
HETATM   11  N   UNL     1      40.486 -12.487   3.526  1.00  0.00    -0.351 N 
HETATM   12  H   UNL     1      40.359 -11.797   4.273  1.00  0.00     0.162 HD
HETATM   13  C   UNL     1      40.053 -12.083   2.106  1.00  0.00     0.264 C 
HETATM   14  H   UNL     1      40.221 -13.953  -2.051  1.00  0.00     0.173 HD
HETATM   15  H   UNL     1      41.540 -15.489   3.208  1.00  0.00     0.168 HD
ENDROOT
BRANCH   1  16
HETATM   16  C   UNL     1      42.050 -16.551   1.041  1.00  0.00     0.045 A 
HETATM   17  C   UNL     1      43.450 -16.565   1.125  1.00  0.00     0.033 A 
HETATM   18  C   UNL     1      44.119 -17.700   1.590  1.00  0.00     0.039 A 
HETATM   19  C   UNL     1      43.409 -18.841   1.969  1.00  0.00     0.068 A 
HETATM   20  C   UNL     1      42.021 -18.850   1.848  1.00  0.00     0.039 A 
HETATM   21  C   UNL     1      41.347 -17.715   1.380  1.00  0.00     0.033 A 
BRANCH  19  22
HETATM   22  O   UNL     1      44.184 -19.866   2.432  1.00  0.00    -0.356 OA
HETATM   23  C   UNL     1      43.878 -21.173   1.958  1.00  0.00     0.210 C 
ENDBRANCH  19  22
ENDBRANCH   1  16
BRANCH  13  24
HETATM   24  C   UNL     1      38.532 -11.904   2.136  1.00  0.00     0.426 C 
HETATM   25  F   UNL     1      37.946 -13.115   1.925  1.00  0.00    -0.168 F 
HETATM   26  F   UNL     1      38.128 -11.496   3.361  1.00  0.00    -0.168 F 
HETATM   27  F   UNL     1      38.037 -11.063   1.221  1.00  0.00    -0.168 F 
ENDBRANCH  13  24
BRANCH  13  28
HETATM   28  C   UNL     1      40.640 -10.692   1.836  1.00  0.00     0.426 C 
HETATM   29  F   UNL     1      41.867 -10.807   1.276  1.00  0.00    -0.168 F 
HETATM   30  F   UNL     1      39.895  -9.876   1.083  1.00  0.00    -0.168 F 
HETATM   31  F   UNL     1      40.831 -10.067   3.033  1.00  0.00    -0.168 F 
ENDBRANCH  13  28
BRANCH  10  32
HETATM   32  C   UNL     1      41.300 -13.993   5.247  1.00  0.00     0.114 C 
BRANCH  32  33
HETATM   33  C   UNL     1      41.863 -15.385   5.390  1.00  0.00    -0.051 A 
HETATM   34  C   UNL     1      43.251 -15.583   5.459  1.00  0.00     0.007 A 
HETATM   35  C   UNL     1      43.776 -16.871   5.549  1.00  0.00     0.001 A 
HETATM   36  C   UNL     1      42.924 -17.973   5.569  1.00  0.00     0.000 A 
HETATM   37  C   UNL     1      41.545 -17.789   5.502  1.00  0.00     0.001 A 
HETATM   38  C   UNL     1      41.014 -16.500   5.413  1.00  0.00     0.007 A 
ENDBRANCH  32  33
ENDBRANCH  10  32
TORSDOF 6
ENDMDL
MODEL 9
REMARK VINA RESULT:      -8.2      3.008      5.871
REMARK  6 active torsions:
REMARK  status: ('A' for Active; 'I' for Inactive)
REMARK    1  A    between atoms: O_2  and  C_3 
REMARK    2  A    between atoms: C_6  and  N_7 
REMARK    3  A    between atoms: C_16  and  C_17 
REMARK    4  A    between atoms: C_17  and  C_18 
REMARK    5  A    between atoms: C_26  and  C_27 
REMARK    6  A    between atoms: C_26  and  C_31 
ROOT
HETATM    1  N   UNL     1      41.172 -12.962   3.201  1.00  0.00    -0.249 N 
HETATM    2  C   UNL     1      41.474 -12.255   2.027  1.00  0.00     0.335 C 
HETATM    3  O   UNL     1      41.320 -11.050   1.852  1.00  0.00    -0.246 OA
HETATM    4  N   UNL     1      41.929 -13.012   0.981  1.00  0.00    -0.274 N 
HETATM    5  C   UNL     1      41.879 -14.362   0.920  1.00  0.00     0.262 C 
HETATM    6  O   UNL     1      41.979 -14.991  -0.118  1.00  0.00    -0.267 OA
HETATM    7  C   UNL     1      41.710 -15.067   2.191  1.00  0.00     0.101 C 
HETATM    8  C   UNL     1      41.362 -14.343   3.263  1.00  0.00     0.132 C 
HETATM    9  N   UNL     1      41.244 -14.977   4.484  1.00  0.00    -0.331 N 
HETATM   10  C   UNL     1      41.341 -16.282   4.631  1.00  0.00     0.084 C 
HETATM   11  N   UNL     1      41.638 -17.071   3.622  1.00  0.00    -0.351 N 
HETATM   12  H   UNL     1      41.673 -18.083   3.775  1.00  0.00     0.162 HD
HETATM   13  C   UNL     1      41.983 -16.554   2.214  1.00  0.00     0.264 C 
HETATM   14  H   UNL     1      42.031 -12.510   0.105  1.00  0.00     0.173 HD
HETATM   15  H   UNL     1      41.042 -14.424   5.313  1.00  0.00     0.168 HD
ENDROOT
BRANCH   1  16
HETATM   16  C   UNL     1      40.662 -12.201   4.310  1.00  0.00     0.045 A 
HETATM   17  C   UNL     1      39.281 -12.054   4.506  1.00  0.00     0.033 A 
HETATM   18  C   UNL     1      38.795 -11.386   5.633  1.00  0.00     0.039 A 
HETATM   19  C   UNL     1      39.672 -10.847   6.576  1.00  0.00     0.068 A 
HETATM   20  C   UNL     1      41.045 -10.952   6.367  1.00  0.00     0.039 A 
HETATM   21  C   UNL     1      41.536 -11.619   5.237  1.00  0.00     0.033 A 
BRANCH  19  22
HETATM   22  O   UNL     1      39.063 -10.248   7.642  1.00  0.00    -0.356 OA
HETATM   23  C   UNL     1      39.136 -10.924   8.893  1.00  0.00     0.210 C 
ENDBRANCH  19  22
ENDBRANCH   1  16
BRANCH  13  24
HETATM   24  C   UNL     1      43.460 -16.877   1.969  1.00  0.00     0.426 C 
HETATM   25  F   UNL     1      44.208 -15.797   2.326  1.00  0.00    -0.168 F 
HETATM   26  F   UNL     1      43.860 -17.894   2.765  1.00  0.00    -0.168 F 
HETATM   27  F   UNL     1      43.777 -17.174   0.704  1.00  0.00    -0.168 F 
ENDBRANCH  13  24
BRANCH  13  28
HETATM   28  C   UNL     1      41.190 -17.407   1.216  1.00  0.00     0.426 C 
HETATM   29  F   UNL     1      39.868 -17.355   1.509  1.00  0.00    -0.168 F 
HETATM   30  F   UNL     1      41.359 -17.110  -0.076  1.00  0.00    -0.168 F 
HETATM   31  F   UNL     1      41.557 -18.710   1.378  1.00  0.00    -0.168 F 
ENDBRANCH  13  28
BRANCH  10  32
HETATM   32  C   UNL     1      41.087 -16.874   5.978  1.00  0.00     0.114 C 
BRANCH  32  33
HETATM   33  C   UNL     1      42.326 -17.521   6.547  1.00  0.00    -0.051 A 
HETATM   34  C   UNL     1      42.950 -18.577   5.865  1.00  0.00     0.007 A 
HETATM   35  C   UNL     1      44.070 -19.204   6.409  1.00  0.00     0.001 A 
HETATM   36  C   UNL     1      44.576 -18.787   7.638  1.00  0.00     0.000 A 
HETATM   37  C   UNL     1      43.965 -17.740   8.323  1.00  0.00     0.001 A 
HETATM   38  C   UNL     1      42.844 -17.107   7.782  1.00  0.00     0.007 A 
ENDBRANCH  32  33
ENDBRANCH  10  32
TORSDOF 6
ENDMDL
MODEL 10
REMARK VINA RESULT:      -8.1      3.366      6.947
REMARK  6 active torsions:
REMARK  status: ('A' for Active; 'I' for Inactive)
REMARK    1  A    between atoms: O_2  and  C_3 
REMARK    2  A    between atoms: C_6  and  N_7 
REMARK    3  A    between atoms: C_16  and  C_17 
REMARK    4  A    between atoms: C_17  and  C_18 
REMARK    5  A    between atoms: C_26  and  C_27 
REMARK    6  A    between atoms: C_26  and  C_31 
ROOT
HETATM    1  N   UNL     1      42.832 -15.242   5.298  1.00  0.00    -0.249 N 
HETATM    2  C   UNL     1      43.682 -14.622   6.227  1.00  0.00     0.335 C 
HETATM    3  O   UNL     1      44.626 -15.152   6.807  1.00  0.00    -0.246 OA
HETATM    4  N   UNL     1      43.375 -13.325   6.536  1.00  0.00    -0.274 N 
HETATM    5  C   UNL     1      42.219 -12.701   6.211  1.00  0.00     0.262 C 
HETATM    6  O   UNL     1      41.828 -11.685   6.756  1.00  0.00    -0.267 OA
HETATM    7  C   UNL     1      41.435 -13.302   5.132  1.00  0.00     0.101 C 
HETATM    8  C   UNL     1      41.770 -14.536   4.732  1.00  0.00     0.132 C 
HETATM    9  N   UNL     1      41.077 -15.106   3.683  1.00  0.00    -0.331 N 
HETATM   10  C   UNL     1      40.021 -14.547   3.128  1.00  0.00     0.084 C 
HETATM   11  N   UNL     1      39.600 -13.356   3.490  1.00  0.00    -0.351 N 
HETATM   12  H   UNL     1      38.756 -12.973   3.054  1.00  0.00     0.162 HD
HETATM   13  C   UNL     1      40.331 -12.473   4.516  1.00  0.00     0.264 C 
HETATM   14  H   UNL     1      43.921 -12.926   7.293  1.00  0.00     0.173 HD
HETATM   15  H   UNL     1      41.366 -16.016   3.333  1.00  0.00     0.168 HD
ENDROOT
BRANCH   1  16
HETATM   16  C   UNL     1      43.108 -16.615   4.974  1.00  0.00     0.045 A 
HETATM   17  C   UNL     1      43.705 -16.960   3.752  1.00  0.00     0.033 A 
HETATM   18  C   UNL     1      44.047 -18.287   3.482  1.00  0.00     0.039 A 
HETATM   19  C   UNL     1      43.794 -19.293   4.417  1.00  0.00     0.068 A 
HETATM   20  C   UNL     1      43.164 -18.966   5.615  1.00  0.00     0.039 A 
HETATM   21  C   UNL     1      42.816 -17.637   5.888  1.00  0.00     0.033 A 
BRANCH  19  22
HETATM   22  O   UNL     1      44.206 -20.539   4.038  1.00  0.00    -0.356 OA
HETATM   23  C   UNL     1      44.719 -20.677   2.717  1.00  0.00     0.210 C 
ENDBRANCH  19  22
ENDBRANCH   1  16
BRANCH  13  24
HETATM   24  C   UNL     1      40.873 -11.259   3.754  1.00  0.00     0.426 C 
HETATM   25  F   UNL     1      41.791 -11.689   2.845  1.00  0.00    -0.168 F 
HETATM   26  F   UNL     1      39.887 -10.666   3.045  1.00  0.00    -0.168 F 
HETATM   27  F   UNL     1      41.473 -10.332   4.510  1.00  0.00    -0.168 F 
ENDBRANCH  13  24
BRANCH  13  28
HETATM   28  C   UNL     1      39.269 -11.930   5.480  1.00  0.00     0.426 C 
HETATM   29  F   UNL     1      39.008 -12.844   6.445  1.00  0.00    -0.168 F 
HETATM   30  F   UNL     1      39.544 -10.756   6.058  1.00  0.00    -0.168 F 
HETATM   31  F   UNL     1      38.104 -11.771   4.790  1.00  0.00    -0.168 F 
ENDBRANCH  13  28
BRANCH  10  32
HETATM   32  C   UNL     1      39.280 -15.301   2.074  1.00  0.00     0.114 C 
BRANCH  32  33
HETATM   33  C   UNL     1      39.439 -14.666   0.715  1.00  0.00    -0.051 A 
HETATM   34  C   UNL     1      40.664 -14.748   0.035  1.00  0.00     0.007 A 
HETATM   35  C   UNL     1      40.827 -14.126  -1.202  1.00  0.00     0.001 A 
HETATM   36  C   UNL     1      39.773 -13.415  -1.772  1.00  0.00     0.000 A 
HETATM   37  C   UNL     1      38.553 -13.328  -1.107  1.00  0.00     0.001 A 
HETATM   38  C   UNL     1      38.383 -13.950   0.132  1.00  0.00     0.007 A 
ENDBRANCH  32  33
ENDBRANCH  10  32
TORSDOF 6
ENDMDL
