MODEL 1
REMARK VINA RESULT:      -7.8      0.000      0.000
REMARK  6 active torsions:
REMARK  status: ('A' for Active; 'I' for Inactive)
REMARK    1  A    between atoms: C_3  and  N_4 
REMARK    2  A    between atoms: N_4  and  C_5 
REMARK    3  A    between atoms: C_5  and  C_6 
REMARK    4  A    between atoms: N_8  and  C_10 
REMARK    5  A    between atoms: C_10  and  C_11 
REMARK    6  A    between atoms: C_16  and  O_17 
ROOT
HETATM    1  C   UNL     1      42.112 -17.058   6.374  1.00  0.00     0.031 C 
HETATM    2  C   UNL     1      42.366 -18.380   5.654  1.00  0.00     0.241 C 
HETATM    3  N   UNL     1      43.753 -18.792   6.101  1.00  0.00    -0.067 N 
HETATM    4  H   UNL     1      43.702 -19.768   6.430  1.00  0.00     0.280 HD
HETATM    5  C   UNL     1      44.130 -17.931   7.292  1.00  0.00     0.235 C 
HETATM    6  C   UNL     1      42.820 -17.283   7.707  1.00  0.00     0.035 C 
ENDROOT
BRANCH   3   7
HETATM    7  C   UNL     1      44.782 -18.807   4.992  1.00  0.00     0.274 C 
BRANCH   7   8
HETATM    8  C   UNL     1      44.521 -19.850   3.941  1.00  0.00    -0.013 A 
HETATM    9  C   UNL     1      44.011 -19.544   2.667  1.00  0.00     0.019 A 
HETATM   10 BR   UNL     1      43.581 -17.764   2.167  1.00  0.00    -0.051 Br
HETATM   11  C   UNL     1      43.786 -20.555   1.725  1.00  0.00     0.022 A 
HETATM   12  C   UNL     1      44.058 -21.886   2.043  1.00  0.00     0.038 A 
HETATM   13  C   UNL     1      44.553 -22.193   3.301  1.00  0.00     0.066 A 
HETATM   14  C   UNL     1      44.788 -21.196   4.243  1.00  0.00     0.046 A 
BRANCH  13  15
HETATM   15  O   UNL     1      44.826 -23.473   3.673  1.00  0.00    -0.361 OA
HETATM   16  H   UNL     1      44.238 -23.732   4.405  1.00  0.00     0.217 HD
ENDBRANCH  13  15
ENDBRANCH   7   8
ENDBRANCH   3   7
BRANCH   1  17
HETATM   17  C   UNL     1      40.621 -16.725   6.502  1.00  0.00     0.127 C 
BRANCH  17  18
HETATM   18  N   UNL     1      40.358 -15.365   6.023  1.00  0.00    -0.376 N 
HETATM   19  H   UNL     1      40.444 -14.639   6.728  1.00  0.00     0.161 HD
BRANCH  18  20
HETATM   20  C   UNL     1      40.675 -15.001   4.722  1.00  0.00     0.100 A 
HETATM   21  C   UNL     1      41.573 -13.983   4.377  1.00  0.00     0.048 A 
HETATM   22  C   UNL     1      41.847 -13.706   3.037  1.00  0.00     0.005 A 
HETATM   23  C   UNL     1      41.235 -14.455   2.043  1.00  0.00     0.017 A 
HETATM   24  C   UNL     1      40.371 -15.469   2.414  1.00  0.00     0.089 A 
HETATM   25  N   UNL     1      40.130 -15.709   3.714  1.00  0.00    -0.353 N 
HETATM   26  H   UNL     1      39.510 -16.478   3.947  1.00  0.00     0.166 HD
ENDBRANCH  18  20
ENDBRANCH  17  18
ENDBRANCH   1  17
TORSDOF 6
ENDMDL
MODEL 2
REMARK VINA RESULT:      -7.7      3.602      5.156
REMARK  6 active torsions:
REMARK  status: ('A' for Active; 'I' for Inactive)
REMARK    1  A    between atoms: C_3  and  N_4 
REMARK    2  A    between atoms: N_4  and  C_5 
REMARK    3  A    between atoms: C_5  and  C_6 
REMARK    4  A    between atoms: N_8  and  C_10 
REMARK    5  A    between atoms: C_10  and  C_11 
REMARK    6  A    between atoms: C_16  and  O_17 
ROOT
HETATM    1  C   UNL     1      41.827 -15.474   1.179  1.00  0.00     0.031 C 
HETATM    2  C   UNL     1      42.795 -16.632   0.950  1.00  0.00     0.241 C 
HETATM    3  N   UNL     1      42.464 -17.622   2.048  1.00  0.00    -0.067 N 
HETATM    4  H   UNL     1      42.331 -18.546   1.609  1.00  0.00     0.280 HD
HETATM    5  C   UNL     1      41.137 -17.212   2.656  1.00  0.00     0.235 C 
HETATM    6  C   UNL     1      40.577 -16.200   1.670  1.00  0.00     0.035 C 
ENDROOT
BRANCH   3   7
HETATM    7  C   UNL     1      43.576 -17.824   3.054  1.00  0.00     0.274 C 
BRANCH   7   8
HETATM    8  C   UNL     1      43.961 -19.265   3.246  1.00  0.00    -0.013 A 
HETATM    9  C   UNL     1      44.481 -19.766   4.452  1.00  0.00     0.019 A 
HETATM   10 BR   UNL     1      44.767 -18.643   5.956  1.00  0.00    -0.051 Br
HETATM   11  C   UNL     1      44.825 -21.117   4.577  1.00  0.00     0.022 A 
HETATM   12  C   UNL     1      44.663 -21.987   3.498  1.00  0.00     0.038 A 
HETATM   13  C   UNL     1      44.158 -21.495   2.303  1.00  0.00     0.066 A 
HETATM   14  C   UNL     1      43.805 -20.155   2.170  1.00  0.00     0.046 A 
BRANCH  13  15
HETATM   15  O   UNL     1      43.988 -22.291   1.213  1.00  0.00    -0.361 OA
HETATM   16  H   UNL     1      44.840 -22.398   0.752  1.00  0.00     0.217 HD
ENDBRANCH  13  15
ENDBRANCH   7   8
ENDBRANCH   3   7
BRANCH   1  17
HETATM   17  C   UNL     1      41.607 -14.623  -0.077  1.00  0.00     0.127 C 
BRANCH  17  18
HETATM   18  N   UNL     1      41.483 -15.482  -1.259  1.00  0.00    -0.376 N 
HETATM   19  H   UNL     1      41.876 -16.413  -1.155  1.00  0.00     0.161 HD
BRANCH  18  20
HETATM   20  C   UNL     1      40.389 -15.366  -2.104  1.00  0.00     0.100 A 
HETATM   21  C   UNL     1      40.230 -16.075  -3.302  1.00  0.00     0.048 A 
HETATM   22  C   UNL     1      39.080 -15.909  -4.075  1.00  0.00     0.005 A 
HETATM   23  C   UNL     1      38.083 -15.047  -3.644  1.00  0.00     0.017 A 
HETATM   24  C   UNL     1      38.257 -14.379  -2.445  1.00  0.00     0.089 A 
HETATM   25  N   UNL     1      39.377 -14.561  -1.727  1.00  0.00    -0.353 N 
HETATM   26  H   UNL     1      39.457 -14.073  -0.841  1.00  0.00     0.166 HD
ENDBRANCH  18  20
ENDBRANCH  17  18
ENDBRANCH   1  17
TORSDOF 6
ENDMDL
MODEL 3
REMARK VINA RESULT:      -7.2      3.874      5.137
REMARK  6 active torsions:
REMARK  status: ('A' for Active; 'I' for Inactive)
REMARK    1  A    between atoms: C_3  and  N_4 
REMARK    2  A    between atoms: N_4  and  C_5 
REMARK    3  A    between atoms: C_5  and  C_6 
REMARK    4  A    between atoms: N_8  and  C_10 
REMARK    5  A    between atoms: C_10  and  C_11 
REMARK    6  A    between atoms: C_16  and  O_17 
ROOT
HETATM    1  C   UNL     1      43.016 -14.520   6.138  1.00  0.00     0.031 C 
HETATM    2  C   UNL     1      43.562 -15.578   5.183  1.00  0.00     0.241 C 
HETATM    3  N   UNL     1      42.367 -15.982   4.345  1.00  0.00    -0.067 N 
HETATM    4  H   UNL     1      42.643 -15.928   3.353  1.00  0.00     0.280 HD
HETATM    5  C   UNL     1      41.275 -14.953   4.569  1.00  0.00     0.235 C 
HETATM    6  C   UNL     1      41.989 -13.805   5.264  1.00  0.00     0.035 C 
ENDROOT
BRANCH   3   7
HETATM    7  C   UNL     1      41.925 -17.415   4.549  1.00  0.00     0.274 C 
BRANCH   7   8
HETATM    8  C   UNL     1      42.763 -18.417   3.804  1.00  0.00    -0.013 A 
HETATM    9  C   UNL     1      42.680 -18.603   2.413  1.00  0.00     0.019 A 
HETATM   10 BR   UNL     1      41.467 -17.607   1.345  1.00  0.00    -0.051 Br
HETATM   11  C   UNL     1      43.483 -19.551   1.769  1.00  0.00     0.022 A 
HETATM   12  C   UNL     1      44.376 -20.333   2.504  1.00  0.00     0.038 A 
HETATM   13  C   UNL     1      44.455 -20.158   3.877  1.00  0.00     0.066 A 
HETATM   14  C   UNL     1      43.667 -19.213   4.527  1.00  0.00     0.046 A 
BRANCH  13  15
HETATM   15  O   UNL     1      45.297 -20.898   4.648  1.00  0.00    -0.361 OA
HETATM   16  H   UNL     1      44.780 -21.526   5.185  1.00  0.00     0.217 HD
ENDBRANCH  13  15
ENDBRANCH   7   8
ENDBRANCH   3   7
BRANCH   1  17
HETATM   17  C   UNL     1      44.107 -13.603   6.701  1.00  0.00     0.127 C 
BRANCH  17  18
HETATM   18  N   UNL     1      44.324 -13.881   8.124  1.00  0.00    -0.376 N 
HETATM   19  H   UNL     1      44.745 -14.784   8.324  1.00  0.00     0.161 HD
BRANCH  18  20
HETATM   20  C   UNL     1      44.623 -12.854   9.007  1.00  0.00     0.100 A 
HETATM   21  C   UNL     1      45.618 -11.889   8.798  1.00  0.00     0.048 A 
HETATM   22  C   UNL     1      45.829 -10.876   9.734  1.00  0.00     0.005 A 
HETATM   23  C   UNL     1      45.037 -10.817  10.871  1.00  0.00     0.017 A 
HETATM   24  C   UNL     1      44.047 -11.769  11.039  1.00  0.00     0.089 A 
HETATM   25  N   UNL     1      43.872 -12.731  10.118  1.00  0.00    -0.353 N 
HETATM   26  H   UNL     1      43.119 -13.396  10.264  1.00  0.00     0.166 HD
ENDBRANCH  18  20
ENDBRANCH  17  18
ENDBRANCH   1  17
TORSDOF 6
ENDMDL
MODEL 4
REMARK VINA RESULT:      -7.2      4.111      7.806
REMARK  6 active torsions:
REMARK  status: ('A' for Active; 'I' for Inactive)
REMARK    1  A    between atoms: C_3  and  N_4 
REMARK    2  A    between atoms: N_4  and  C_5 
REMARK    3  A    between atoms: C_5  and  C_6 
REMARK    4  A    between atoms: N_8  and  C_10 
REMARK    5  A    between atoms: C_10  and  C_11 
REMARK    6  A    between atoms: C_16  and  O_17 
ROOT
HETATM    1  C   UNL     1      42.750 -16.860   1.004  1.00  0.00     0.031 C 
HETATM    2  C   UNL     1      42.683 -15.573   1.822  1.00  0.00     0.241 C 
HETATM    3  N   UNL     1      41.215 -15.201   1.820  1.00  0.00    -0.067 N 
HETATM    4  H   UNL     1      40.931 -15.028   2.796  1.00  0.00     0.280 HD
HETATM    5  C   UNL     1      40.433 -16.404   1.328  1.00  0.00     0.235 C 
HETATM    6  C   UNL     1      41.438 -17.543   1.382  1.00  0.00     0.035 C 
ENDROOT
BRANCH   3   7
HETATM    7  C   UNL     1      40.904 -13.913   1.089  1.00  0.00     0.274 C 
BRANCH   7   8
HETATM    8  C   UNL     1      40.452 -14.119  -0.330  1.00  0.00    -0.013 A 
HETATM    9  C   UNL     1      39.104 -14.050  -0.724  1.00  0.00     0.019 A 
HETATM   10 BR   UNL     1      37.718 -13.709   0.527  1.00  0.00    -0.051 Br
HETATM   11  C   UNL     1      38.738 -14.250  -2.060  1.00  0.00     0.022 A 
HETATM   12  C   UNL     1      39.709 -14.529  -3.022  1.00  0.00     0.038 A 
HETATM   13  C   UNL     1      41.039 -14.607  -2.637  1.00  0.00     0.066 A 
HETATM   14  C   UNL     1      41.416 -14.402  -1.313  1.00  0.00     0.046 A 
BRANCH  13  15
HETATM   15  O   UNL     1      42.029 -14.888  -3.526  1.00  0.00    -0.361 OA
HETATM   16  H   UNL     1      42.732 -15.397  -3.082  1.00  0.00     0.217 HD
ENDBRANCH  13  15
ENDBRANCH   7   8
ENDBRANCH   3   7
BRANCH   1  17
HETATM   17  C   UNL     1      44.001 -17.694   1.304  1.00  0.00     0.127 C 
BRANCH  17  18
HETATM   18  N   UNL     1      43.905 -18.296   2.638  1.00  0.00    -0.376 N 
HETATM   19  H   UNL     1      43.253 -17.838   3.268  1.00  0.00     0.161 HD
BRANCH  18  20
HETATM   20  C   UNL     1      44.069 -19.663   2.808  1.00  0.00     0.100 A 
HETATM   21  C   UNL     1      43.784 -20.626   1.831  1.00  0.00     0.048 A 
HETATM   22  C   UNL     1      44.005 -21.980   2.087  1.00  0.00     0.005 A 
HETATM   23  C   UNL     1      44.524 -22.370   3.312  1.00  0.00     0.017 A 
HETATM   24  C   UNL     1      44.817 -21.395   4.249  1.00  0.00     0.089 A 
HETATM   25  N   UNL     1      44.591 -20.101   3.969  1.00  0.00    -0.353 N 
HETATM   26  H   UNL     1      44.843 -19.413   4.672  1.00  0.00     0.166 HD
ENDBRANCH  18  20
ENDBRANCH  17  18
ENDBRANCH   1  17
TORSDOF 6
ENDMDL
MODEL 5
REMARK VINA RESULT:      -6.9      3.526      5.498
REMARK  6 active torsions:
REMARK  status: ('A' for Active; 'I' for Inactive)
REMARK    1  A    between atoms: C_3  and  N_4 
REMARK    2  A    between atoms: N_4  and  C_5 
REMARK    3  A    between atoms: C_5  and  C_6 
REMARK    4  A    between atoms: N_8  and  C_10 
REMARK    5  A    between atoms: C_10  and  C_11 
REMARK    6  A    between atoms: C_16  and  O_17 
ROOT
HETATM    1  C   UNL     1      41.964 -15.168   1.928  1.00  0.00     0.031 C 
HETATM    2  C   UNL     1      40.816 -15.566   2.852  1.00  0.00     0.241 C 
HETATM    3  N   UNL     1      41.479 -15.813   4.191  1.00  0.00    -0.067 N 
HETATM    4  H   UNL     1      40.960 -15.277   4.904  1.00  0.00     0.280 HD
HETATM    5  C   UNL     1      42.882 -15.240   4.126  1.00  0.00     0.235 C 
HETATM    6  C   UNL     1      42.871 -14.382   2.871  1.00  0.00     0.035 C 
ENDROOT
BRANCH   3   7
HETATM    7  C   UNL     1      41.413 -17.250   4.659  1.00  0.00     0.274 C 
BRANCH   7   8
HETATM    8  C   UNL     1      42.566 -17.654   5.535  1.00  0.00    -0.013 A 
HETATM    9  C   UNL     1      43.681 -18.364   5.057  1.00  0.00     0.019 A 
HETATM   10 BR   UNL     1      43.816 -18.901   3.241  1.00  0.00    -0.051 Br
HETATM   11  C   UNL     1      44.728 -18.715   5.916  1.00  0.00     0.022 A 
HETATM   12  C   UNL     1      44.675 -18.370   7.268  1.00  0.00     0.038 A 
HETATM   13  C   UNL     1      43.574 -17.677   7.746  1.00  0.00     0.066 A 
HETATM   14  C   UNL     1      42.530 -17.316   6.898  1.00  0.00     0.046 A 
BRANCH  13  15
HETATM   15  O   UNL     1      43.459 -17.324   9.054  1.00  0.00    -0.361 OA
HETATM   16  H   UNL     1      43.704 -16.387   9.162  1.00  0.00     0.217 HD
ENDBRANCH  13  15
ENDBRANCH   7   8
ENDBRANCH   3   7
BRANCH   1  17
HETATM   17  C   UNL     1      41.496 -14.375   0.702  1.00  0.00     0.127 C 
BRANCH  17  18
HETATM   18  N   UNL     1      41.670 -15.171  -0.518  1.00  0.00    -0.376 N 
HETATM   19  H   UNL     1      42.154 -16.054  -0.387  1.00  0.00     0.161 HD
BRANCH  18  20
HETATM   20  C   UNL     1      40.718 -15.134  -1.526  1.00  0.00     0.100 A 
HETATM   21  C   UNL     1      40.795 -15.864  -2.719  1.00  0.00     0.048 A 
HETATM   22  C   UNL     1      39.774 -15.780  -3.666  1.00  0.00     0.005 A 
HETATM   23  C   UNL     1      38.669 -14.980  -3.415  1.00  0.00     0.017 A 
HETATM   24  C   UNL     1      38.610 -14.289  -2.218  1.00  0.00     0.089 A 
HETATM   25  N   UNL     1      39.612 -14.392  -1.329  1.00  0.00    -0.353 N 
HETATM   26  H   UNL     1      39.520 -13.890  -0.451  1.00  0.00     0.166 HD
ENDBRANCH  18  20
ENDBRANCH  17  18
ENDBRANCH   1  17
TORSDOF 6
ENDMDL
MODEL 6
REMARK VINA RESULT:      -6.7      4.130      7.851
REMARK  6 active torsions:
REMARK  status: ('A' for Active; 'I' for Inactive)
REMARK    1  A    between atoms: C_3  and  N_4 
REMARK    2  A    between atoms: N_4  and  C_5 
REMARK    3  A    between atoms: C_5  and  C_6 
REMARK    4  A    between atoms: N_8  and  C_10 
REMARK    5  A    between atoms: C_10  and  C_11 
REMARK    6  A    between atoms: C_16  and  O_17 
ROOT
HETATM    1  C   UNL     1      41.872 -16.858   2.855  1.00  0.00     0.031 C 
HETATM    2  C   UNL     1      42.527 -15.821   1.946  1.00  0.00     0.241 C 
HETATM    3  N   UNL     1      41.386 -14.925   1.512  1.00  0.00    -0.067 N 
HETATM    4  H   UNL     1      41.668 -13.948   1.685  1.00  0.00     0.280 HD
HETATM    5  C   UNL     1      40.200 -15.220   2.410  1.00  0.00     0.235 C 
HETATM    6  C   UNL     1      40.793 -16.032   3.550  1.00  0.00     0.035 C 
ENDROOT
BRANCH   3   7
HETATM    7  C   UNL     1      41.078 -14.987   0.032  1.00  0.00     0.274 C 
BRANCH   7   8
HETATM    8  C   UNL     1      41.625 -13.823  -0.747  1.00  0.00    -0.013 A 
HETATM    9  C   UNL     1      41.661 -13.790  -2.152  1.00  0.00     0.019 A 
HETATM   10 BR   UNL     1      41.035 -15.244  -3.199  1.00  0.00    -0.051 Br
HETATM   11  C   UNL     1      42.182 -12.680  -2.828  1.00  0.00     0.022 A 
HETATM   12  C   UNL     1      42.681 -11.591  -2.113  1.00  0.00     0.038 A 
HETATM   13  C   UNL     1      42.655 -11.623  -0.727  1.00  0.00     0.066 A 
HETATM   14  C   UNL     1      42.133 -12.718  -0.044  1.00  0.00     0.046 A 
BRANCH  13  15
HETATM   15  O   UNL     1      43.138 -10.597   0.025  1.00  0.00    -0.361 OA
HETATM   16  H   UNL     1      44.110 -10.568  -0.048  1.00  0.00     0.217 HD
ENDBRANCH  13  15
ENDBRANCH   7   8
ENDBRANCH   3   7
BRANCH   1  17
HETATM   17  C   UNL     1      42.866 -17.525   3.812  1.00  0.00     0.127 C 
BRANCH  17  18
HETATM   18  N   UNL     1      43.967 -18.137   3.061  1.00  0.00    -0.376 N 
HETATM   19  H   UNL     1      44.844 -17.627   3.096  1.00  0.00     0.161 HD
BRANCH  18  20
HETATM   20  C   UNL     1      44.060 -19.516   2.943  1.00  0.00     0.100 A 
HETATM   21  C   UNL     1      43.569 -20.257   1.860  1.00  0.00     0.048 A 
HETATM   22  C   UNL     1      43.732 -21.643   1.820  1.00  0.00     0.005 A 
HETATM   23  C   UNL     1      44.398 -22.286   2.853  1.00  0.00     0.017 A 
HETATM   24  C   UNL     1      44.892 -21.525   3.897  1.00  0.00     0.089 A 
HETATM   25  N   UNL     1      44.717 -20.193   3.905  1.00  0.00    -0.353 N 
HETATM   26  H   UNL     1      45.116 -19.666   4.675  1.00  0.00     0.166 HD
ENDBRANCH  18  20
ENDBRANCH  17  18
ENDBRANCH   1  17
TORSDOF 6
ENDMDL
MODEL 7
REMARK VINA RESULT:      -6.7      2.307      3.231
REMARK  6 active torsions:
REMARK  status: ('A' for Active; 'I' for Inactive)
REMARK    1  A    between atoms: C_3  and  N_4 
REMARK    2  A    between atoms: N_4  and  C_5 
REMARK    3  A    between atoms: C_5  and  C_6 
REMARK    4  A    between atoms: N_8  and  C_10 
REMARK    5  A    between atoms: C_10  and  C_11 
REMARK    6  A    between atoms: C_16  and  O_17 
ROOT
HETATM    1  C   UNL     1      41.747 -15.536   4.180  1.00  0.00     0.031 C 
HETATM    2  C   UNL     1      42.152 -16.113   2.825  1.00  0.00     0.241 C 
HETATM    3  N   UNL     1      42.434 -17.574   3.107  1.00  0.00    -0.067 N 
HETATM    4  H   UNL     1      41.908 -18.135   2.419  1.00  0.00     0.280 HD
HETATM    5  C   UNL     1      41.875 -17.897   4.479  1.00  0.00     0.235 C 
HETATM    6  C   UNL     1      40.991 -16.705   4.807  1.00  0.00     0.035 C 
ENDROOT
BRANCH   3   7
HETATM    7  C   UNL     1      43.880 -17.974   2.912  1.00  0.00     0.274 C 
BRANCH   7   8
HETATM    8  C   UNL     1      44.129 -19.445   3.092  1.00  0.00    -0.013 A 
HETATM    9  C   UNL     1      44.620 -19.999   4.288  1.00  0.00     0.019 A 
HETATM   10 BR   UNL     1      45.037 -18.915   5.790  1.00  0.00    -0.051 Br
HETATM   11  C   UNL     1      44.835 -21.377   4.402  1.00  0.00     0.022 A 
HETATM   12  C   UNL     1      44.571 -22.223   3.324  1.00  0.00     0.038 A 
HETATM   13  C   UNL     1      44.095 -21.680   2.140  1.00  0.00     0.066 A 
HETATM   14  C   UNL     1      43.870 -20.312   2.017  1.00  0.00     0.046 A 
BRANCH  13  15
HETATM   15  O   UNL     1      43.831 -22.451   1.051  1.00  0.00    -0.361 OA
HETATM   16  H   UNL     1      44.540 -22.337   0.391  1.00  0.00     0.217 HD
ENDBRANCH  13  15
ENDBRANCH   7   8
ENDBRANCH   3   7
BRANCH   1  17
HETATM   17  C   UNL     1      40.924 -14.249   4.059  1.00  0.00     0.127 C 
BRANCH  17  18
HETATM   18  N   UNL     1      39.556 -14.556   3.630  1.00  0.00    -0.376 N 
HETATM   19  H   UNL     1      38.908 -14.766   4.383  1.00  0.00     0.161 HD
BRANCH  18  20
HETATM   20  C   UNL     1      39.017 -13.951   2.504  1.00  0.00     0.100 A 
HETATM   21  C   UNL     1      38.433 -14.640   1.432  1.00  0.00     0.048 A 
HETATM   22  C   UNL     1      37.894 -13.940   0.352  1.00  0.00     0.005 A 
HETATM   23  C   UNL     1      37.924 -12.554   0.349  1.00  0.00     0.017 A 
HETATM   24  C   UNL     1      38.485 -11.901   1.432  1.00  0.00     0.089 A 
HETATM   25  N   UNL     1      38.996 -12.605   2.455  1.00  0.00    -0.353 N 
HETATM   26  H   UNL     1      39.376 -12.090   3.242  1.00  0.00     0.166 HD
ENDBRANCH  18  20
ENDBRANCH  17  18
ENDBRANCH   1  17
TORSDOF 6
ENDMDL
MODEL 8
REMARK VINA RESULT:      -6.6      2.828      4.244
REMARK  6 active torsions:
REMARK  status: ('A' for Active; 'I' for Inactive)
REMARK    1  A    between atoms: C_3  and  N_4 
REMARK    2  A    between atoms: N_4  and  C_5 
REMARK    3  A    between atoms: C_5  and  C_6 
REMARK    4  A    between atoms: N_8  and  C_10 
REMARK    5  A    between atoms: C_10  and  C_11 
REMARK    6  A    between atoms: C_16  and  O_17 
ROOT
HETATM    1  C   UNL     1      41.105 -14.111   4.301  1.00  0.00     0.031 C 
HETATM    2  C   UNL     1      41.417 -15.355   5.129  1.00  0.00     0.241 C 
HETATM    3  N   UNL     1      42.594 -14.948   5.991  1.00  0.00    -0.067 N 
HETATM    4  H   UNL     1      42.369 -15.191   6.968  1.00  0.00     0.280 HD
HETATM    5  C   UNL     1      42.723 -13.439   5.916  1.00  0.00     0.235 C 
HETATM    6  C   UNL     1      41.414 -12.989   5.288  1.00  0.00     0.035 C 
ENDROOT
BRANCH   3   7
HETATM    7  C   UNL     1      43.872 -15.699   5.687  1.00  0.00     0.274 C 
BRANCH   7   8
HETATM    8  C   UNL     1      43.886 -17.106   6.217  1.00  0.00    -0.013 A 
HETATM    9  C   UNL     1      43.761 -18.238   5.393  1.00  0.00     0.019 A 
HETATM   10 BR   UNL     1      43.538 -18.082   3.514  1.00  0.00    -0.051 Br
HETATM   11  C   UNL     1      43.780 -19.526   5.939  1.00  0.00     0.022 A 
HETATM   12  C   UNL     1      43.916 -19.705   7.317  1.00  0.00     0.038 A 
HETATM   13  C   UNL     1      44.031 -18.591   8.134  1.00  0.00     0.066 A 
HETATM   14  C   UNL     1      44.021 -17.305   7.602  1.00  0.00     0.046 A 
BRANCH  13  15
HETATM   15  O   UNL     1      44.153 -18.701   9.485  1.00  0.00    -0.361 OA
HETATM   16  H   UNL     1      44.540 -19.567   9.708  1.00  0.00     0.217 HD
ENDBRANCH  13  15
ENDBRANCH   7   8
ENDBRANCH   3   7
BRANCH   1  17
HETATM   17  C   UNL     1      39.670 -14.096   3.763  1.00  0.00     0.127 C 
BRANCH  17  18
HETATM   18  N   UNL     1      39.437 -15.257   2.897  1.00  0.00    -0.376 N 
HETATM   19  H   UNL     1      38.509 -15.663   2.966  1.00  0.00     0.161 HD
BRANCH  18  20
HETATM   20  C   UNL     1      40.060 -15.351   1.661  1.00  0.00     0.100 A 
HETATM   21  C   UNL     1      40.908 -16.397   1.275  1.00  0.00     0.048 A 
HETATM   22  C   UNL     1      41.470 -16.418  -0.001  1.00  0.00     0.005 A 
HETATM   23  C   UNL     1      41.173 -15.402  -0.898  1.00  0.00     0.017 A 
HETATM   24  C   UNL     1      40.313 -14.395  -0.497  1.00  0.00     0.089 A 
HETATM   25  N   UNL     1      39.791 -14.406   0.740  1.00  0.00    -0.353 N 
HETATM   26  H   UNL     1      39.145 -13.664   0.988  1.00  0.00     0.166 HD
ENDBRANCH  18  20
ENDBRANCH  17  18
ENDBRANCH   1  17
TORSDOF 6
ENDMDL
MODEL 9
REMARK VINA RESULT:      -6.6      3.395      5.239
REMARK  6 active torsions:
REMARK  status: ('A' for Active; 'I' for Inactive)
REMARK    1  A    between atoms: C_3  and  N_4 
REMARK    2  A    between atoms: N_4  and  C_5 
REMARK    3  A    between atoms: C_5  and  C_6 
REMARK    4  A    between atoms: N_8  and  C_10 
REMARK    5  A    between atoms: C_10  and  C_11 
REMARK    6  A    between atoms: C_16  and  O_17 
ROOT
HETATM    1  C   UNL     1      41.994 -15.900   2.069  1.00  0.00     0.031 C 
HETATM    2  C   UNL     1      40.751 -16.484   2.737  1.00  0.00     0.241 C 
HETATM    3  N   UNL     1      41.044 -16.395   4.221  1.00  0.00    -0.067 N 
HETATM    4  H   UNL     1      40.237 -15.942   4.675  1.00  0.00     0.280 HD
HETATM    5  C   UNL     1      42.241 -15.481   4.402  1.00  0.00     0.235 C 
HETATM    6  C   UNL     1      42.393 -14.802   3.051  1.00  0.00     0.035 C 
ENDROOT
BRANCH   3   7
HETATM    7  C   UNL     1      41.175 -17.737   4.907  1.00  0.00     0.274 C 
BRANCH   7   8
HETATM    8  C   UNL     1      42.446 -17.892   5.695  1.00  0.00    -0.013 A 
HETATM    9  C   UNL     1      43.633 -18.403   5.143  1.00  0.00     0.019 A 
HETATM   10 BR   UNL     1      43.726 -18.974   3.335  1.00  0.00    -0.051 Br
HETATM   11  C   UNL     1      44.789 -18.527   5.922  1.00  0.00     0.022 A 
HETATM   12  C   UNL     1      44.776 -18.148   7.265  1.00  0.00     0.038 A 
HETATM   13  C   UNL     1      43.605 -17.650   7.816  1.00  0.00     0.066 A 
HETATM   14  C   UNL     1      42.452 -17.516   7.049  1.00  0.00     0.046 A 
BRANCH  13  15
HETATM   15  O   UNL     1      43.527 -17.277   9.122  1.00  0.00    -0.361 OA
HETATM   16  H   UNL     1      43.602 -16.307   9.189  1.00  0.00     0.217 HD
ENDBRANCH  13  15
ENDBRANCH   7   8
ENDBRANCH   3   7
BRANCH   1  17
HETATM   17  C   UNL     1      41.727 -15.402   0.645  1.00  0.00     0.127 C 
BRANCH  17  18
HETATM   18  N   UNL     1      41.685 -13.936   0.616  1.00  0.00    -0.376 N 
HETATM   19  H   UNL     1      41.947 -13.484   1.487  1.00  0.00     0.161 HD
BRANCH  18  20
HETATM   20  C   UNL     1      41.978 -13.245  -0.550  1.00  0.00     0.100 A 
HETATM   21  C   UNL     1      42.370 -11.900  -0.601  1.00  0.00     0.048 A 
HETATM   22  C   UNL     1      42.669 -11.296  -1.822  1.00  0.00     0.005 A 
HETATM   23  C   UNL     1      42.591 -12.038  -2.992  1.00  0.00     0.017 A 
HETATM   24  C   UNL     1      42.224 -13.369  -2.908  1.00  0.00     0.089 A 
HETATM   25  N   UNL     1      41.942 -13.919  -1.715  1.00  0.00    -0.353 N 
HETATM   26  H   UNL     1      41.702 -14.905  -1.692  1.00  0.00     0.166 HD
ENDBRANCH  18  20
ENDBRANCH  17  18
ENDBRANCH   1  17
TORSDOF 6
ENDMDL
MODEL 10
REMARK VINA RESULT:      -6.5      2.957      4.407
REMARK  6 active torsions:
REMARK  status: ('A' for Active; 'I' for Inactive)
REMARK    1  A    between atoms: C_3  and  N_4 
REMARK    2  A    between atoms: N_4  and  C_5 
REMARK    3  A    between atoms: C_5  and  C_6 
REMARK    4  A    between atoms: N_8  and  C_10 
REMARK    5  A    between atoms: C_10  and  C_11 
REMARK    6  A    between atoms: C_16  and  O_17 
ROOT
HETATM    1  C   UNL     1      40.187 -14.924   2.646  1.00  0.00     0.031 C 
HETATM    2  C   UNL     1      40.810 -16.300   2.874  1.00  0.00     0.241 C 
HETATM    3  N   UNL     1      41.617 -16.142   4.145  1.00  0.00    -0.067 N 
HETATM    4  H   UNL     1      41.358 -16.911   4.782  1.00  0.00     0.280 HD
HETATM    5  C   UNL     1      41.192 -14.844   4.805  1.00  0.00     0.235 C 
HETATM    6  C   UNL     1      39.916 -14.461   4.075  1.00  0.00     0.035 C 
ENDROOT
BRANCH   3   7
HETATM    7  C   UNL     1      43.111 -16.283   3.951  1.00  0.00     0.274 C 
BRANCH   7   8
HETATM    8  C   UNL     1      43.587 -17.709   3.945  1.00  0.00    -0.013 A 
HETATM    9  C   UNL     1      43.913 -18.404   2.767  1.00  0.00     0.019 A 
HETATM   10 BR   UNL     1      43.754 -17.594   1.057  1.00  0.00    -0.051 Br
HETATM   11  C   UNL     1      44.351 -19.732   2.818  1.00  0.00     0.022 A 
HETATM   12  C   UNL     1      44.463 -20.389   4.043  1.00  0.00     0.038 A 
HETATM   13  C   UNL     1      44.135 -19.711   5.207  1.00  0.00     0.066 A 
HETATM   14  C   UNL     1      43.706 -18.387   5.169  1.00  0.00     0.046 A 
BRANCH  13  15
HETATM   15  O   UNL     1      44.213 -20.302   6.430  1.00  0.00    -0.361 OA
HETATM   16  H   UNL     1      43.321 -20.373   6.815  1.00  0.00     0.217 HD
ENDBRANCH  13  15
ENDBRANCH   7   8
ENDBRANCH   3   7
BRANCH   1  17
HETATM   17  C   UNL     1      38.941 -14.974   1.755  1.00  0.00     0.127 C 
BRANCH  17  18
HETATM   18  N   UNL     1      38.980 -13.896   0.762  1.00  0.00    -0.376 N 
HETATM   19  H   UNL     1      39.357 -13.016   1.101  1.00  0.00     0.161 HD
BRANCH  18  20
HETATM   20  C   UNL     1      39.190 -14.179  -0.579  1.00  0.00     0.100 A 
HETATM   21  C   UNL     1      38.391 -13.704  -1.628  1.00  0.00     0.048 A 
HETATM   22  C   UNL     1      38.697 -14.024  -2.951  1.00  0.00     0.005 A 
HETATM   23  C   UNL     1      39.808 -14.806  -3.229  1.00  0.00     0.017 A 
HETATM   24  C   UNL     1      40.591 -15.242  -2.175  1.00  0.00     0.089 A 
HETATM   25  N   UNL     1      40.268 -14.916  -0.913  1.00  0.00    -0.353 N 
HETATM   26  H   UNL     1      40.881 -15.233  -0.169  1.00  0.00     0.166 HD
ENDBRANCH  18  20
ENDBRANCH  17  18
ENDBRANCH   1  17
TORSDOF 6
ENDMDL
