MODEL 1
REMARK VINA RESULT:      -8.8      0.000      0.000
REMARK  4 active torsions:
REMARK  status: ('A' for Active; 'I' for Inactive)
REMARK    1  A    between atoms: C_6  and  C_7 
REMARK    2  A    between atoms: C_7  and  C_8 
REMARK    3  A    between atoms: N_10  and  C_11 
REMARK    4  A    between atoms: C_19  and  C_20 
ROOT
HETATM    1  C   UNL     1      43.161 -15.789   3.671  1.00  0.00     0.149 C 
HETATM    2  N   UNL     1      43.655 -16.841   3.023  1.00  0.00    -0.150 NA
HETATM    3  N   UNL     1      43.578 -17.840   3.944  1.00  0.00    -0.218 N 
HETATM    4  C   UNL     1      43.193 -17.283   5.168  1.00  0.00     0.136 C 
HETATM    5  N   UNL     1      42.871 -16.015   4.981  1.00  0.00    -0.216 NA
ENDROOT
BRANCH   1   6
HETATM    6  C   UNL     1      43.018 -14.455   3.026  1.00  0.00     0.087 C 
BRANCH   6   7
HETATM    7  C   UNL     1      41.552 -14.003   2.824  1.00  0.00    -0.004 C 
HETATM    8  C   UNL     1      40.607 -15.114   2.332  1.00  0.00     0.032 C 
HETATM    9  C   UNL     1      40.887 -15.542   0.899  1.00  0.00     0.234 C 
HETATM   10  N   UNL     1      40.790 -14.336  -0.005  1.00  0.00    -0.075 N 
HETATM   11  C   UNL     1      40.958 -14.717  -1.455  1.00  0.00     0.269 C 
HETATM   12  H   UNL     1      39.831 -13.970   0.078  1.00  0.00     0.279 HD
HETATM   13  C   UNL     1      41.729 -13.224   0.388  1.00  0.00     0.234 C 
HETATM   14  C   UNL     1      41.475 -12.821   1.839  1.00  0.00     0.032 C 
ENDBRANCH   6   7
ENDBRANCH   1   6
BRANCH   3  15
HETATM   15  C   UNL     1      43.885 -19.174   3.552  1.00  0.00     0.062 A 
HETATM   16  C   UNL     1      44.441 -20.105   4.438  1.00  0.00     0.058 A 
HETATM   17  C   UNL     1      44.726 -21.405   4.001  1.00  0.00     0.074 A 
HETATM   18 CL   UNL     1      45.425 -22.517   5.113  1.00  0.00    -0.081 Cl
HETATM   19  C   UNL     1      44.446 -21.787   2.693  1.00  0.00     0.138 A 
HETATM   20  F   UNL     1      44.717 -23.025   2.265  1.00  0.00    -0.204 F 
HETATM   21  C   UNL     1      43.869 -20.882   1.811  1.00  0.00     0.046 A 
HETATM   22  C   UNL     1      43.582 -19.582   2.239  1.00  0.00     0.035 A 
ENDBRANCH   3  15
BRANCH   4  23
HETATM   23  C   UNL     1      43.250 -17.923   6.517  1.00  0.00     0.084 C 
HETATM   24  C   UNL     1      42.735 -16.991   7.623  1.00  0.00     0.244 C 
HETATM   25  N   UNL     1      43.390 -17.495   8.883  1.00  0.00    -0.074 N 
HETATM   26  H   UNL     1      43.742 -16.702   9.441  1.00  0.00     0.277 HD
HETATM   27  H   UNL     1      42.713 -17.984   9.487  1.00  0.00     0.277 HD
HETATM   28  C   UNL     1      44.509 -18.412   8.497  1.00  0.00     0.233 C 
HETATM   29  C   UNL     1      44.671 -18.202   7.000  1.00  0.00     0.041 C 
ENDBRANCH   4  23
TORSDOF 4
ENDMDL
MODEL 2
REMARK VINA RESULT:      -8.7      2.008      2.636
REMARK  4 active torsions:
REMARK  status: ('A' for Active; 'I' for Inactive)
REMARK    1  A    between atoms: C_6  and  C_7 
REMARK    2  A    between atoms: C_7  and  C_8 
REMARK    3  A    between atoms: N_10  and  C_11 
REMARK    4  A    between atoms: C_19  and  C_20 
ROOT
HETATM    1  C   UNL     1      41.066 -16.287   2.965  1.00  0.00     0.149 C 
HETATM    2  N   UNL     1      41.662 -17.458   2.759  1.00  0.00    -0.150 NA
HETATM    3  N   UNL     1      42.566 -17.532   3.774  1.00  0.00    -0.218 N 
HETATM    4  C   UNL     1      42.579 -16.304   4.443  1.00  0.00     0.136 C 
HETATM    5  N   UNL     1      41.598 -15.550   3.978  1.00  0.00    -0.216 NA
ENDROOT
BRANCH   1   6
HETATM    6  C   UNL     1      39.962 -15.795   2.096  1.00  0.00     0.087 C 
BRANCH   6   7
HETATM    7  C   UNL     1      40.011 -14.275   1.810  1.00  0.00    -0.004 C 
HETATM    8  C   UNL     1      38.629 -13.612   1.656  1.00  0.00     0.032 C 
HETATM    9  C   UNL     1      37.906 -14.035   0.385  1.00  0.00     0.234 C 
HETATM   10  N   UNL     1      38.774 -13.714  -0.808  1.00  0.00    -0.075 N 
HETATM   11  C   UNL     1      38.066 -14.017  -2.104  1.00  0.00     0.269 C 
HETATM   12  H   UNL     1      38.930 -12.696  -0.806  1.00  0.00     0.279 HD
HETATM   13  C   UNL     1      40.128 -14.373  -0.748  1.00  0.00     0.234 C 
HETATM   14  C   UNL     1      40.840 -13.981   0.545  1.00  0.00     0.032 C 
ENDBRANCH   6   7
ENDBRANCH   1   6
BRANCH   3  15
HETATM   15  C   UNL     1      43.298 -18.738   3.970  1.00  0.00     0.062 A 
HETATM   16  C   UNL     1      43.624 -19.595   2.913  1.00  0.00     0.058 A 
HETATM   17  C   UNL     1      44.345 -20.771   3.160  1.00  0.00     0.074 A 
HETATM   18 CL   UNL     1      44.713 -21.809   1.837  1.00  0.00    -0.081 Cl
HETATM   19  C   UNL     1      44.754 -21.088   4.451  1.00  0.00     0.138 A 
HETATM   20  F   UNL     1      45.441 -22.210   4.698  1.00  0.00    -0.204 F 
HETATM   21  C   UNL     1      44.462 -20.233   5.506  1.00  0.00     0.046 A 
HETATM   22  C   UNL     1      43.742 -19.058   5.268  1.00  0.00     0.035 A 
ENDBRANCH   3  15
BRANCH   4  23
HETATM   23  C   UNL     1      43.592 -15.814   5.427  1.00  0.00     0.084 C 
HETATM   24  C   UNL     1      43.118 -15.980   6.878  1.00  0.00     0.244 C 
HETATM   25  N   UNL     1      43.900 -14.952   7.655  1.00  0.00    -0.074 N 
HETATM   26  H   UNL     1      43.280 -14.463   8.318  1.00  0.00     0.277 HD
HETATM   27  H   UNL     1      44.631 -15.396   8.230  1.00  0.00     0.277 HD
HETATM   28  C   UNL     1      44.505 -13.988   6.682  1.00  0.00     0.233 C 
HETATM   29  C   UNL     1      43.826 -14.306   5.361  1.00  0.00     0.041 C 
ENDBRANCH   4  23
TORSDOF 4
ENDMDL
MODEL 3
REMARK VINA RESULT:      -8.5      4.177      7.489
REMARK  4 active torsions:
REMARK  status: ('A' for Active; 'I' for Inactive)
REMARK    1  A    between atoms: C_6  and  C_7 
REMARK    2  A    between atoms: C_7  and  C_8 
REMARK    3  A    between atoms: N_10  and  C_11 
REMARK    4  A    between atoms: C_19  and  C_20 
ROOT
HETATM    1  C   UNL     1      41.788 -17.128   3.424  1.00  0.00     0.149 C 
HETATM    2  N   UNL     1      40.963 -16.918   2.402  1.00  0.00    -0.150 NA
HETATM    3  N   UNL     1      40.648 -15.599   2.520  1.00  0.00    -0.218 N 
HETATM    4  C   UNL     1      41.176 -15.126   3.726  1.00  0.00     0.136 C 
HETATM    5  N   UNL     1      41.940 -16.063   4.258  1.00  0.00    -0.216 NA
ENDROOT
BRANCH   1   6
HETATM    6  C   UNL     1      42.421 -18.452   3.674  1.00  0.00     0.087 C 
BRANCH   6   7
HETATM    7  C   UNL     1      43.966 -18.440   3.591  1.00  0.00    -0.004 C 
HETATM    8  C   UNL     1      44.561 -19.497   2.643  1.00  0.00     0.032 C 
HETATM    9  C   UNL     1      44.395 -20.920   3.160  1.00  0.00     0.234 C 
HETATM   10  N   UNL     1      45.032 -21.026   4.526  1.00  0.00    -0.075 N 
HETATM   11  C   UNL     1      44.990 -22.441   5.046  1.00  0.00     0.269 C 
HETATM   12  H   UNL     1      46.031 -20.799   4.414  1.00  0.00     0.279 HD
HETATM   13  C   UNL     1      44.461 -20.051   5.523  1.00  0.00     0.234 C 
HETATM   14  C   UNL     1      44.590 -18.626   4.988  1.00  0.00     0.032 C 
ENDBRANCH   6   7
ENDBRANCH   1   6
BRANCH   3  15
HETATM   15  C   UNL     1      39.889 -14.969   1.493  1.00  0.00     0.062 A 
HETATM   16  C   UNL     1      40.451 -14.596   0.267  1.00  0.00     0.058 A 
HETATM   17  C   UNL     1      39.660 -13.977  -0.709  1.00  0.00     0.074 A 
HETATM   18 CL   UNL     1      40.392 -13.517  -2.198  1.00  0.00    -0.081 Cl
HETATM   19  C   UNL     1      38.309 -13.741  -0.476  1.00  0.00     0.138 A 
HETATM   20  F   UNL     1      37.545 -13.148  -1.401  1.00  0.00    -0.204 F 
HETATM   21  C   UNL     1      37.730 -14.131   0.726  1.00  0.00     0.046 A 
HETATM   22  C   UNL     1      38.514 -14.749   1.705  1.00  0.00     0.035 A 
ENDBRANCH   3  15
BRANCH   4  23
HETATM   23  C   UNL     1      40.855 -13.841   4.418  1.00  0.00     0.084 C 
HETATM   24  C   UNL     1      41.960 -13.417   5.395  1.00  0.00     0.244 C 
HETATM   25  N   UNL     1      41.267 -12.524   6.392  1.00  0.00    -0.074 N 
HETATM   26  H   UNL     1      41.573 -12.756   7.349  1.00  0.00     0.277 HD
HETATM   27  H   UNL     1      41.522 -11.536   6.249  1.00  0.00     0.277 HD
HETATM   28  C   UNL     1      39.789 -12.714   6.245  1.00  0.00     0.233 C 
HETATM   29  C   UNL     1      39.651 -13.936   5.353  1.00  0.00     0.041 C 
ENDBRANCH   4  23
TORSDOF 4
ENDMDL
MODEL 4
REMARK VINA RESULT:      -8.4      2.138      3.338
REMARK  4 active torsions:
REMARK  status: ('A' for Active; 'I' for Inactive)
REMARK    1  A    between atoms: C_6  and  C_7 
REMARK    2  A    between atoms: C_7  and  C_8 
REMARK    3  A    between atoms: N_10  and  C_11 
REMARK    4  A    between atoms: C_19  and  C_20 
ROOT
HETATM    1  C   UNL     1      41.900 -16.205   0.893  1.00  0.00     0.149 C 
HETATM    2  N   UNL     1      42.579 -17.339   1.044  1.00  0.00    -0.150 NA
HETATM    3  N   UNL     1      42.934 -17.319   2.358  1.00  0.00    -0.218 N 
HETATM    4  C   UNL     1      42.588 -16.072   2.888  1.00  0.00     0.136 C 
HETATM    5  N   UNL     1      41.886 -15.402   1.992  1.00  0.00    -0.216 NA
ENDROOT
BRANCH   1   6
HETATM    6  C   UNL     1      41.281 -15.817  -0.404  1.00  0.00     0.087 C 
BRANCH   6   7
HETATM    7  C   UNL     1      41.276 -14.293  -0.672  1.00  0.00    -0.004 C 
HETATM    8  C   UNL     1      39.979 -13.578  -0.249  1.00  0.00     0.032 C 
HETATM    9  C   UNL     1      38.787 -13.943  -1.121  1.00  0.00     0.234 C 
HETATM   10  N   UNL     1      39.112 -13.624  -2.561  1.00  0.00    -0.075 N 
HETATM   11  C   UNL     1      37.928 -13.869  -3.462  1.00  0.00     0.269 C 
HETATM   12  H   UNL     1      39.298 -12.612  -2.614  1.00  0.00     0.279 HD
HETATM   13  C   UNL     1      40.345 -14.332  -3.060  1.00  0.00     0.234 C 
HETATM   14  C   UNL     1      41.534 -13.999  -2.163  1.00  0.00     0.032 C 
ENDBRANCH   6   7
ENDBRANCH   1   6
BRANCH   3  15
HETATM   15  C   UNL     1      43.556 -18.465   2.930  1.00  0.00     0.062 A 
HETATM   16  C   UNL     1      43.753 -19.648   2.209  1.00  0.00     0.058 A 
HETATM   17  C   UNL     1      44.369 -20.748   2.820  1.00  0.00     0.074 A 
HETATM   18 CL   UNL     1      44.579 -22.192   1.906  1.00  0.00    -0.081 Cl
HETATM   19  C   UNL     1      44.803 -20.669   4.139  1.00  0.00     0.138 A 
HETATM   20  F   UNL     1      45.390 -21.715   4.733  1.00  0.00    -0.204 F 
HETATM   21  C   UNL     1      44.639 -19.492   4.859  1.00  0.00     0.046 A 
HETATM   22  C   UNL     1      44.025 -18.390   4.256  1.00  0.00     0.035 A 
ENDBRANCH   3  15
BRANCH   4  23
HETATM   23  C   UNL     1      43.028 -15.482   4.190  1.00  0.00     0.084 C 
HETATM   24  C   UNL     1      41.907 -15.492   5.239  1.00  0.00     0.244 C 
HETATM   25  N   UNL     1      42.273 -14.390   6.200  1.00  0.00    -0.074 N 
HETATM   26  H   UNL     1      41.438 -13.832   6.433  1.00  0.00     0.277 HD
HETATM   27  H   UNL     1      42.614 -14.772   7.094  1.00  0.00     0.277 HD
HETATM   28  C   UNL     1      43.322 -13.537   5.557  1.00  0.00     0.233 C 
HETATM   29  C   UNL     1      43.345 -13.991   4.108  1.00  0.00     0.041 C 
ENDBRANCH   4  23
TORSDOF 4
ENDMDL
MODEL 5
REMARK VINA RESULT:      -8.0      1.839      2.343
REMARK  4 active torsions:
REMARK  status: ('A' for Active; 'I' for Inactive)
REMARK    1  A    between atoms: C_6  and  C_7 
REMARK    2  A    between atoms: C_7  and  C_8 
REMARK    3  A    between atoms: N_10  and  C_11 
REMARK    4  A    between atoms: C_19  and  C_20 
ROOT
HETATM    1  C   UNL     1      41.989 -16.492   1.266  1.00  0.00     0.149 C 
HETATM    2  N   UNL     1      42.578 -17.679   1.139  1.00  0.00    -0.150 NA
HETATM    3  N   UNL     1      42.905 -18.004   2.420  1.00  0.00    -0.218 N 
HETATM    4  C   UNL     1      42.642 -16.899   3.236  1.00  0.00     0.136 C 
HETATM    5  N   UNL     1      42.011 -15.980   2.526  1.00  0.00    -0.216 NA
ENDROOT
BRANCH   1   6
HETATM    6  C   UNL     1      41.428 -15.757   0.099  1.00  0.00     0.087 C 
BRANCH   6   7
HETATM    7  C   UNL     1      40.892 -14.345   0.440  1.00  0.00    -0.004 C 
HETATM    8  C   UNL     1      39.473 -14.061  -0.086  1.00  0.00     0.032 C 
HETATM    9  C   UNL     1      39.414 -13.941  -1.602  1.00  0.00     0.234 C 
HETATM   10  N   UNL     1      40.363 -12.855  -2.049  1.00  0.00    -0.075 N 
HETATM   11  C   UNL     1      40.272 -12.620  -3.537  1.00  0.00     0.269 C 
HETATM   12  H   UNL     1      40.052 -11.978  -1.608  1.00  0.00     0.279 HD
HETATM   13  C   UNL     1      41.785 -13.096  -1.612  1.00  0.00     0.234 C 
HETATM   14  C   UNL     1      41.841 -13.256  -0.095  1.00  0.00     0.032 C 
ENDBRANCH   6   7
ENDBRANCH   1   6
BRANCH   3  15
HETATM   15  C   UNL     1      43.428 -19.298   2.699  1.00  0.00     0.062 A 
HETATM   16  C   UNL     1      43.830 -19.683   3.983  1.00  0.00     0.058 A 
HETATM   17  C   UNL     1      44.340 -20.968   4.204  1.00  0.00     0.074 A 
HETATM   18 CL   UNL     1      44.840 -21.399   5.793  1.00  0.00    -0.081 Cl
HETATM   19  C   UNL     1      44.436 -21.878   3.155  1.00  0.00     0.138 A 
HETATM   20  F   UNL     1      44.923 -23.108   3.355  1.00  0.00    -0.204 F 
HETATM   21  C   UNL     1      44.014 -21.520   1.881  1.00  0.00     0.046 A 
HETATM   22  C   UNL     1      43.505 -20.238   1.652  1.00  0.00     0.035 A 
ENDBRANCH   3  15
BRANCH   4  23
HETATM   23  C   UNL     1      43.096 -16.677   4.643  1.00  0.00     0.084 C 
HETATM   24  C   UNL     1      41.974 -16.924   5.660  1.00  0.00     0.244 C 
HETATM   25  N   UNL     1      42.370 -16.117   6.870  1.00  0.00    -0.074 N 
HETATM   26  H   UNL     1      41.552 -15.614   7.243  1.00  0.00     0.277 HD
HETATM   27  H   UNL     1      42.698 -16.726   7.634  1.00  0.00     0.277 HD
HETATM   28  C   UNL     1      43.445 -15.157   6.463  1.00  0.00     0.233 C 
HETATM   29  C   UNL     1      43.457 -15.224   4.944  1.00  0.00     0.041 C 
ENDBRANCH   4  23
TORSDOF 4
ENDMDL
MODEL 6
REMARK VINA RESULT:      -7.9      2.875      5.439
REMARK  4 active torsions:
REMARK  status: ('A' for Active; 'I' for Inactive)
REMARK    1  A    between atoms: C_6  and  C_7 
REMARK    2  A    between atoms: C_7  and  C_8 
REMARK    3  A    between atoms: N_10  and  C_11 
REMARK    4  A    between atoms: C_19  and  C_20 
ROOT
HETATM    1  C   UNL     1      43.857 -16.281   5.931  1.00  0.00     0.149 C 
HETATM    2  N   UNL     1      44.117 -17.580   6.053  1.00  0.00    -0.150 NA
HETATM    3  N   UNL     1      43.795 -18.079   4.828  1.00  0.00    -0.218 N 
HETATM    4  C   UNL     1      43.190 -17.061   4.083  1.00  0.00     0.136 C 
HETATM    5  N   UNL     1      43.287 -15.924   4.748  1.00  0.00    -0.216 NA
ENDROOT
BRANCH   1   6
HETATM    6  C   UNL     1      44.098 -15.317   7.040  1.00  0.00     0.087 C 
BRANCH   6   7
HETATM    7  C   UNL     1      44.646 -13.945   6.578  1.00  0.00    -0.004 C 
HETATM    8  C   UNL     1      45.559 -13.248   7.603  1.00  0.00     0.032 C 
HETATM    9  C   UNL     1      44.808 -12.763   8.836  1.00  0.00     0.234 C 
HETATM   10  N   UNL     1      43.701 -11.831   8.404  1.00  0.00    -0.075 N 
HETATM   11  C   UNL     1      42.985 -11.237   9.592  1.00  0.00     0.269 C 
HETATM   12  H   UNL     1      44.143 -11.037   7.919  1.00  0.00     0.279 HD
HETATM   13  C   UNL     1      42.736 -12.466   7.436  1.00  0.00     0.234 C 
HETATM   14  C   UNL     1      43.493 -12.988   6.217  1.00  0.00     0.032 C 
ENDBRANCH   6   7
ENDBRANCH   1   6
BRANCH   3  15
HETATM   15  C   UNL     1      44.089 -19.439   4.530  1.00  0.00     0.062 A 
HETATM   16  C   UNL     1      44.071 -19.941   3.223  1.00  0.00     0.058 A 
HETATM   17  C   UNL     1      44.366 -21.289   2.984  1.00  0.00     0.074 A 
HETATM   18 CL   UNL     1      44.317 -21.873   1.366  1.00  0.00    -0.081 Cl
HETATM   19  C   UNL     1      44.695 -22.136   4.038  1.00  0.00     0.138 A 
HETATM   20  F   UNL     1      44.976 -23.426   3.821  1.00  0.00    -0.204 F 
HETATM   21  C   UNL     1      44.744 -21.646   5.337  1.00  0.00     0.046 A 
HETATM   22  C   UNL     1      44.450 -20.301   5.584  1.00  0.00     0.035 A 
ENDBRANCH   3  15
BRANCH   4  23
HETATM   23  C   UNL     1      42.422 -17.200   2.808  1.00  0.00     0.084 C 
HETATM   24  C   UNL     1      42.785 -16.109   1.791  1.00  0.00     0.244 C 
HETATM   25  N   UNL     1      41.582 -16.011   0.889  1.00  0.00    -0.074 N 
HETATM   26  H   UNL     1      41.350 -15.022   0.712  1.00  0.00     0.277 HD
HETATM   27  H   UNL     1      41.774 -16.423  -0.036  1.00  0.00     0.277 HD
HETATM   28  C   UNL     1      40.439 -16.715   1.552  1.00  0.00     0.233 C 
HETATM   29  C   UNL     1      40.922 -16.967   2.971  1.00  0.00     0.041 C 
ENDBRANCH   4  23
TORSDOF 4
ENDMDL
MODEL 7
REMARK VINA RESULT:      -7.9      3.081      4.806
REMARK  4 active torsions:
REMARK  status: ('A' for Active; 'I' for Inactive)
REMARK    1  A    between atoms: C_6  and  C_7 
REMARK    2  A    between atoms: C_7  and  C_8 
REMARK    3  A    between atoms: N_10  and  C_11 
REMARK    4  A    between atoms: C_19  and  C_20 
ROOT
HETATM    1  C   UNL     1      41.933 -16.605   1.466  1.00  0.00     0.149 C 
HETATM    2  N   UNL     1      41.876 -16.159   2.718  1.00  0.00    -0.150 NA
HETATM    3  N   UNL     1      42.515 -17.130   3.425  1.00  0.00    -0.218 N 
HETATM    4  C   UNL     1      42.773 -18.203   2.567  1.00  0.00     0.136 C 
HETATM    5  N   UNL     1      42.468 -17.849   1.331  1.00  0.00    -0.216 NA
ENDROOT
BRANCH   1   6
HETATM    6  C   UNL     1      41.377 -15.832   0.322  1.00  0.00     0.087 C 
BRANCH   6   7
HETATM    7  C   UNL     1      40.839 -14.433   0.705  1.00  0.00    -0.004 C 
HETATM    8  C   UNL     1      39.419 -14.134   0.189  1.00  0.00     0.032 C 
HETATM    9  C   UNL     1      39.359 -13.968  -1.323  1.00  0.00     0.234 C 
HETATM   10  N   UNL     1      40.306 -12.867  -1.736  1.00  0.00    -0.075 N 
HETATM   11  C   UNL     1      40.215 -12.586  -3.215  1.00  0.00     0.269 C 
HETATM   12  H   UNL     1      39.994 -12.004  -1.268  1.00  0.00     0.279 HD
HETATM   13  C   UNL     1      41.729 -13.118  -1.307  1.00  0.00     0.234 C 
HETATM   14  C   UNL     1      41.786 -13.325   0.205  1.00  0.00     0.032 C 
ENDBRANCH   6   7
ENDBRANCH   1   6
BRANCH   3  15
HETATM   15  C   UNL     1      42.784 -16.923   4.808  1.00  0.00     0.062 A 
HETATM   16  C   UNL     1      43.559 -15.851   5.267  1.00  0.00     0.058 A 
HETATM   17  C   UNL     1      43.796 -15.694   6.639  1.00  0.00     0.074 A 
HETATM   18 CL   UNL     1      44.768 -14.374   7.165  1.00  0.00    -0.081 Cl
HETATM   19  C   UNL     1      43.251 -16.588   7.555  1.00  0.00     0.138 A 
HETATM   20  F   UNL     1      43.474 -16.448   8.868  1.00  0.00    -0.204 F 
HETATM   21  C   UNL     1      42.457 -17.640   7.117  1.00  0.00     0.046 A 
HETATM   22  C   UNL     1      42.217 -17.804   5.749  1.00  0.00     0.035 A 
ENDBRANCH   3  15
BRANCH   4  23
HETATM   23  C   UNL     1      43.191 -19.589   2.941  1.00  0.00     0.084 C 
HETATM   24  C   UNL     1      44.595 -19.623   3.562  1.00  0.00     0.244 C 
HETATM   25  N   UNL     1      45.086 -21.027   3.321  1.00  0.00    -0.074 N 
HETATM   26  H   UNL     1      46.065 -21.009   3.000  1.00  0.00     0.277 HD
HETATM   27  H   UNL     1      45.086 -21.578   4.192  1.00  0.00     0.277 HD
HETATM   28  C   UNL     1      44.200 -21.664   2.295  1.00  0.00     0.233 C 
HETATM   29  C   UNL     1      43.374 -20.515   1.741  1.00  0.00     0.041 C 
ENDBRANCH   4  23
TORSDOF 4
ENDMDL
MODEL 8
REMARK VINA RESULT:      -7.8      4.672      9.067
REMARK  4 active torsions:
REMARK  status: ('A' for Active; 'I' for Inactive)
REMARK    1  A    between atoms: C_6  and  C_7 
REMARK    2  A    between atoms: C_7  and  C_8 
REMARK    3  A    between atoms: N_10  and  C_11 
REMARK    4  A    between atoms: C_19  and  C_20 
ROOT
HETATM    1  C   UNL     1      41.049 -16.215   0.644  1.00  0.00     0.149 C 
HETATM    2  N   UNL     1      40.243 -15.418   1.342  1.00  0.00    -0.150 NA
HETATM    3  N   UNL     1      39.982 -14.401   0.476  1.00  0.00    -0.218 N 
HETATM    4  C   UNL     1      40.795 -14.562  -0.651  1.00  0.00     0.136 C 
HETATM    5  N   UNL     1      41.413 -15.727  -0.573  1.00  0.00    -0.216 NA
ENDROOT
BRANCH   1   6
HETATM    6  C   UNL     1      41.571 -17.495   1.195  1.00  0.00     0.087 C 
BRANCH   6   7
HETATM    7  C   UNL     1      43.115 -17.583   1.238  1.00  0.00    -0.004 C 
HETATM    8  C   UNL     1      43.662 -18.941   1.715  1.00  0.00     0.032 C 
HETATM    9  C   UNL     1      43.402 -19.200   3.193  1.00  0.00     0.234 C 
HETATM   10  N   UNL     1      44.007 -18.079   4.005  1.00  0.00    -0.075 N 
HETATM   11  C   UNL     1      43.870 -18.334   5.485  1.00  0.00     0.269 C 
HETATM   12  H   UNL     1      45.019 -18.077   3.814  1.00  0.00     0.279 HD
HETATM   13  C   UNL     1      43.478 -16.720   3.625  1.00  0.00     0.234 C 
HETATM   14  C   UNL     1      43.702 -16.475   2.134  1.00  0.00     0.032 C 
ENDBRANCH   6   7
ENDBRANCH   1   6
BRANCH   3  15
HETATM   15  C   UNL     1      39.015 -13.417   0.828  1.00  0.00     0.062 A 
HETATM   16  C   UNL     1      39.168 -12.583   1.942  1.00  0.00     0.058 A 
HETATM   17  C   UNL     1      38.186 -11.631   2.246  1.00  0.00     0.074 A 
HETATM   18 CL   UNL     1      38.400 -10.636   3.634  1.00  0.00    -0.081 Cl
HETATM   19  C   UNL     1      37.062 -11.495   1.437  1.00  0.00     0.138 A 
HETATM   20  F   UNL     1      36.117 -10.591   1.721  1.00  0.00    -0.204 F 
HETATM   21  C   UNL     1      36.911 -12.296   0.313  1.00  0.00     0.046 A 
HETATM   22  C   UNL     1      37.886 -13.249   0.003  1.00  0.00     0.035 A 
ENDBRANCH   3  15
BRANCH   4  23
HETATM   23  C   UNL     1      41.069 -13.560  -1.726  1.00  0.00     0.084 C 
HETATM   24  C   UNL     1      41.542 -14.221  -3.028  1.00  0.00     0.244 C 
HETATM   25  N   UNL     1      42.317 -13.145  -3.744  1.00  0.00    -0.074 N 
HETATM   26  H   UNL     1      43.189 -13.534  -4.131  1.00  0.00     0.277 HD
HETATM   27  H   UNL     1      41.791 -12.780  -4.551  1.00  0.00     0.277 HD
HETATM   28  C   UNL     1      42.610 -12.049  -2.767  1.00  0.00     0.233 C 
HETATM   29  C   UNL     1      42.246 -12.639  -1.414  1.00  0.00     0.041 C 
ENDBRANCH   4  23
TORSDOF 4
ENDMDL
MODEL 9
REMARK VINA RESULT:      -7.5      4.144      7.684
REMARK  4 active torsions:
REMARK  status: ('A' for Active; 'I' for Inactive)
REMARK    1  A    between atoms: C_6  and  C_7 
REMARK    2  A    between atoms: C_7  and  C_8 
REMARK    3  A    between atoms: N_10  and  C_11 
REMARK    4  A    between atoms: C_19  and  C_20 
ROOT
HETATM    1  C   UNL     1      43.162 -16.084   2.084  1.00  0.00     0.149 C 
HETATM    2  N   UNL     1      42.503 -15.991   0.932  1.00  0.00    -0.150 NA
HETATM    3  N   UNL     1      41.994 -14.729   0.964  1.00  0.00    -0.218 N 
HETATM    4  C   UNL     1      42.238 -14.187   2.231  1.00  0.00     0.136 C 
HETATM    5  N   UNL     1      43.023 -15.008   2.906  1.00  0.00    -0.216 NA
ENDROOT
BRANCH   1   6
HETATM    6  C   UNL     1      43.920 -17.306   2.468  1.00  0.00     0.087 C 
BRANCH   6   7
HETATM    7  C   UNL     1      43.030 -18.480   2.941  1.00  0.00    -0.004 C 
HETATM    8  C   UNL     1      42.040 -18.115   4.063  1.00  0.00     0.032 C 
HETATM    9  C   UNL     1      42.727 -17.832   5.392  1.00  0.00     0.234 C 
HETATM   10  N   UNL     1      43.547 -19.035   5.791  1.00  0.00    -0.075 N 
HETATM   11  C   UNL     1      44.171 -18.852   7.152  1.00  0.00     0.269 C 
HETATM   12  H   UNL     1      42.898 -19.829   5.885  1.00  0.00     0.279 HD
HETATM   13  C   UNL     1      44.575 -19.420   4.757  1.00  0.00     0.234 C 
HETATM   14  C   UNL     1      43.892 -19.666   3.414  1.00  0.00     0.032 C 
ENDBRANCH   6   7
ENDBRANCH   1   6
BRANCH   3  15
HETATM   15  C   UNL     1      41.341 -14.210  -0.190  1.00  0.00     0.062 A 
HETATM   16  C   UNL     1      42.032 -13.528  -1.198  1.00  0.00     0.058 A 
HETATM   17  C   UNL     1      41.342 -13.036  -2.313  1.00  0.00     0.074 A 
HETATM   18 CL   UNL     1      42.223 -12.187  -3.524  1.00  0.00    -0.081 Cl
HETATM   19  C   UNL     1      39.970 -13.234  -2.436  1.00  0.00     0.138 A 
HETATM   20  F   UNL     1      39.301 -12.766  -3.496  1.00  0.00    -0.204 F 
HETATM   21  C   UNL     1      39.275 -13.933  -1.457  1.00  0.00     0.046 A 
HETATM   22  C   UNL     1      39.958 -14.427  -0.341  1.00  0.00     0.035 A 
ENDBRANCH   3  15
BRANCH   4  23
HETATM   23  C   UNL     1      41.631 -12.959   2.829  1.00  0.00     0.084 C 
HETATM   24  C   UNL     1      42.202 -12.647   4.219  1.00  0.00     0.244 C 
HETATM   25  N   UNL     1      41.134 -11.828   4.896  1.00  0.00    -0.074 N 
HETATM   26  H   UNL     1      41.003 -12.150   5.867  1.00  0.00     0.277 HD
HETATM   27  H   UNL     1      41.409 -10.838   4.964  1.00  0.00     0.277 HD
HETATM   28  C   UNL     1      39.866 -11.970   4.113  1.00  0.00     0.233 C 
HETATM   29  C   UNL     1      40.144 -13.107   3.144  1.00  0.00     0.041 C 
ENDBRANCH   4  23
TORSDOF 4
ENDMDL
MODEL 10
REMARK VINA RESULT:      -7.5      4.013      6.678
REMARK  4 active torsions:
REMARK  status: ('A' for Active; 'I' for Inactive)
REMARK    1  A    between atoms: C_6  and  C_7 
REMARK    2  A    between atoms: C_7  and  C_8 
REMARK    3  A    between atoms: N_10  and  C_11 
REMARK    4  A    between atoms: C_19  and  C_20 
ROOT
HETATM    1  C   UNL     1      44.161 -14.277   7.282  1.00  0.00     0.149 C 
HETATM    2  N   UNL     1      44.348 -15.586   7.138  1.00  0.00    -0.150 NA
HETATM    3  N   UNL     1      43.819 -15.845   5.911  1.00  0.00    -0.218 N 
HETATM    4  C   UNL     1      43.181 -14.687   5.454  1.00  0.00     0.136 C 
HETATM    5  N   UNL     1      43.450 -13.692   6.280  1.00  0.00    -0.216 NA
ENDROOT
BRANCH   1   6
HETATM    6  C   UNL     1      44.624 -13.537   8.488  1.00  0.00     0.087 C 
BRANCH   6   7
HETATM    7  C   UNL     1      44.721 -12.005   8.292  1.00  0.00    -0.004 C 
HETATM    8  C   UNL     1      45.792 -11.320   9.161  1.00  0.00     0.032 C 
HETATM    9  C   UNL     1      45.441 -11.314  10.643  1.00  0.00     0.234 C 
HETATM   10  N   UNL     1      44.104 -10.637  10.831  1.00  0.00    -0.075 N 
HETATM   11  C   UNL     1      43.750 -10.510  12.292  1.00  0.00     0.269 C 
HETATM   12  H   UNL     1      44.200  -9.673  10.481  1.00  0.00     0.279 HD
HETATM   13  C   UNL     1      42.995 -11.289  10.046  1.00  0.00     0.234 C 
HETATM   14  C   UNL     1      43.363 -11.331   8.565  1.00  0.00     0.032 C 
ENDBRANCH   6   7
ENDBRANCH   1   6
BRANCH   3  15
HETATM   15  C   UNL     1      43.975 -17.141   5.343  1.00  0.00     0.062 A 
HETATM   16  C   UNL     1      43.603 -17.431   4.025  1.00  0.00     0.058 A 
HETATM   17  C   UNL     1      43.776 -18.724   3.516  1.00  0.00     0.074 A 
HETATM   18 CL   UNL     1      43.291 -19.048   1.896  1.00  0.00    -0.081 Cl
HETATM   19  C   UNL     1      44.333 -19.725   4.307  1.00  0.00     0.138 A 
HETATM   20  F   UNL     1      44.500 -20.964   3.830  1.00  0.00    -0.204 F 
HETATM   21  C   UNL     1      44.733 -19.445   5.607  1.00  0.00     0.046 A 
HETATM   22  C   UNL     1      44.562 -18.156   6.123  1.00  0.00     0.035 A 
ENDBRANCH   3  15
BRANCH   4  23
HETATM   23  C   UNL     1      42.228 -14.565   4.308  1.00  0.00     0.084 C 
HETATM   24  C   UNL     1      41.995 -13.104   3.901  1.00  0.00     0.244 C 
HETATM   25  N   UNL     1      40.651 -13.106   3.220  1.00  0.00    -0.074 N 
HETATM   26  H   UNL     1      40.090 -12.302   3.541  1.00  0.00     0.277 HD
HETATM   27  H   UNL     1      40.748 -12.991   2.201  1.00  0.00     0.277 HD
HETATM   28  C   UNL     1      39.964 -14.397   3.542  1.00  0.00     0.233 C 
HETATM   29  C   UNL     1      40.808 -15.010   4.647  1.00  0.00     0.041 C 
ENDBRANCH   4  23
TORSDOF 4
ENDMDL
