MODEL 1
REMARK VINA RESULT:      -8.0      0.000      0.000
REMARK  8 active torsions:
REMARK  status: ('A' for Active; 'I' for Inactive)
REMARK    1  A    between atoms: O_2  and  C_3 
REMARK    2  A    between atoms: C_4  and  O_5 
REMARK    3  A    between atoms: N_12  and  N_13 
REMARK    4  A    between atoms: N_13  and  C_14 
REMARK    5  A    between atoms: C_14  and  N_15 
REMARK    6  A    between atoms: N_15  and  C_16 
REMARK    7  A    between atoms: C_16  and  C_17 
REMARK    8  A    between atoms: C_17  and  C_18 
ROOT
HETATM    1  C   UNL     1      43.610 -15.670   6.989  1.00  0.00     0.102 A 
HETATM    2  C   UNL     1      44.231 -14.410   6.847  1.00  0.00     0.103 A 
HETATM    3  C   UNL     1      43.961 -13.623   5.720  1.00  0.00     0.070 A 
HETATM    4  C   UNL     1      43.081 -14.090   4.743  1.00  0.00     0.053 A 
HETATM    5  C   UNL     1      42.454 -15.321   4.894  1.00  0.00     0.063 A 
HETATM    6  C   UNL     1      41.513 -15.775   3.848  1.00  0.00     0.281 C 
HETATM    7  O   UNL     1      40.815 -16.770   4.035  1.00  0.00    -0.265 OA
HETATM    8  N   UNL     1      41.462 -14.982   2.696  1.00  0.00    -0.190 N 
HETATM    9  C   UNL     1      42.049 -13.723   2.561  1.00  0.00     0.201 C 
HETATM   10  S   UNL     1      41.880 -12.673   1.261  1.00  0.00    -0.039 SA
HETATM   11  N   UNL     1      42.835 -13.311   3.608  1.00  0.00    -0.331 N 
HETATM   12  C   UNL     1      42.709 -16.115   6.016  1.00  0.00     0.059 A 
HETATM   13  H   UNL     1      43.288 -12.409   3.503  1.00  0.00     0.168 HD
ENDROOT
BRANCH   8  14
HETATM   14  N   UNL     1      40.681 -15.494   1.625  1.00  0.00    -0.264 N 
HETATM   15  H   UNL     1      39.767 -15.819   1.921  1.00  0.00     0.190 HD
BRANCH  14  16
HETATM   16  C   UNL     1      41.279 -16.225   0.625  1.00  0.00     0.187 C 
HETATM   17  S   UNL     1      41.357 -15.838  -1.001  1.00  0.00    -0.040 SA
BRANCH  16  18
HETATM   18  N   UNL     1      41.827 -17.419   1.017  1.00  0.00    -0.366 N 
HETATM   19  H   UNL     1      41.321 -17.800   1.811  1.00  0.00     0.161 HD
BRANCH  18  20
HETATM   20  C   UNL     1      43.255 -17.723   0.993  1.00  0.00     0.126 C 
BRANCH  20  21
HETATM   21  C   UNL     1      43.802 -17.980   2.397  1.00  0.00     0.058 C 
BRANCH  21  22
HETATM   22  C   UNL     1      44.010 -19.450   2.657  1.00  0.00    -0.057 A 
HETATM   23  C   UNL     1      44.564 -19.877   3.873  1.00  0.00     0.007 A 
HETATM   24  C   UNL     1      44.786 -21.233   4.113  1.00  0.00     0.001 A 
HETATM   25  C   UNL     1      44.462 -22.175   3.140  1.00  0.00     0.000 A 
HETATM   26  C   UNL     1      43.916 -21.762   1.926  1.00  0.00     0.001 A 
HETATM   27  C   UNL     1      43.692 -20.405   1.683  1.00  0.00     0.007 A 
ENDBRANCH  21  22
ENDBRANCH  20  21
ENDBRANCH  18  20
ENDBRANCH  16  18
ENDBRANCH  14  16
ENDBRANCH   8  14
BRANCH   1  28
HETATM   28  O   UNL     1      43.932 -16.381   8.119  1.00  0.00    -0.353 OA
HETATM   29  C   UNL     1      43.669 -17.777   8.105  1.00  0.00     0.210 C 
ENDBRANCH   1  28
BRANCH   2  30
HETATM   30  O   UNL     1      45.088 -14.046   7.857  1.00  0.00    -0.353 OA
HETATM   31  C   UNL     1      44.819 -12.840   8.557  1.00  0.00     0.210 C 
ENDBRANCH   2  30
TORSDOF 8
ENDMDL
MODEL 2
REMARK VINA RESULT:      -7.6      3.265      6.509
REMARK  8 active torsions:
REMARK  status: ('A' for Active; 'I' for Inactive)
REMARK    1  A    between atoms: O_2  and  C_3 
REMARK    2  A    between atoms: C_4  and  O_5 
REMARK    3  A    between atoms: N_12  and  N_13 
REMARK    4  A    between atoms: N_13  and  C_14 
REMARK    5  A    between atoms: C_14  and  N_15 
REMARK    6  A    between atoms: N_15  and  C_16 
REMARK    7  A    between atoms: C_16  and  C_17 
REMARK    8  A    between atoms: C_17  and  C_18 
ROOT
HETATM    1  C   UNL     1      44.036 -19.975   2.849  1.00  0.00     0.102 A 
HETATM    2  C   UNL     1      44.348 -19.859   4.222  1.00  0.00     0.103 A 
HETATM    3  C   UNL     1      43.685 -18.910   5.009  1.00  0.00     0.070 A 
HETATM    4  C   UNL     1      42.721 -18.081   4.433  1.00  0.00     0.053 A 
HETATM    5  C   UNL     1      42.399 -18.210   3.086  1.00  0.00     0.063 A 
HETATM    6  C   UNL     1      41.360 -17.330   2.515  1.00  0.00     0.281 C 
HETATM    7  O   UNL     1      40.931 -17.535   1.380  1.00  0.00    -0.265 OA
HETATM    8  N   UNL     1      40.899 -16.313   3.358  1.00  0.00    -0.190 N 
HETATM    9  C   UNL     1      41.180 -16.210   4.721  1.00  0.00     0.201 C 
HETATM   10  S   UNL     1      40.522 -15.103   5.799  1.00  0.00    -0.039 SA
HETATM   11  N   UNL     1      42.081 -17.119   5.219  1.00  0.00    -0.331 N 
HETATM   12  C   UNL     1      43.049 -19.157   2.289  1.00  0.00     0.059 A 
HETATM   13  H   UNL     1      42.310 -17.031   6.203  1.00  0.00     0.168 HD
ENDROOT
BRANCH   8  14
HETATM   14  N   UNL     1      40.016 -15.369   2.766  1.00  0.00    -0.264 N 
HETATM   15  H   UNL     1      39.156 -15.786   2.429  1.00  0.00     0.190 HD
BRANCH  14  16
HETATM   16  C   UNL     1      40.520 -14.342   2.000  1.00  0.00     0.187 C 
HETATM   17  S   UNL     1      41.241 -12.934   2.548  1.00  0.00    -0.040 SA
BRANCH  16  18
HETATM   18  N   UNL     1      40.365 -14.487   0.646  1.00  0.00    -0.366 N 
HETATM   19  H   UNL     1      39.590 -15.110   0.440  1.00  0.00     0.161 HD
BRANCH  18  20
HETATM   20  C   UNL     1      41.466 -14.535  -0.313  1.00  0.00     0.126 C 
BRANCH  20  21
HETATM   21  C   UNL     1      41.157 -13.716  -1.567  1.00  0.00     0.058 C 
BRANCH  21  22
HETATM   22  C   UNL     1      40.114 -14.382  -2.427  1.00  0.00    -0.057 A 
HETATM   23  C   UNL     1      38.829 -13.829  -2.527  1.00  0.00     0.007 A 
HETATM   24  C   UNL     1      37.847 -14.450  -3.299  1.00  0.00     0.001 A 
HETATM   25  C   UNL     1      38.138 -15.633  -3.974  1.00  0.00     0.000 A 
HETATM   26  C   UNL     1      39.410 -16.195  -3.878  1.00  0.00     0.001 A 
HETATM   27  C   UNL     1      40.395 -15.573  -3.107  1.00  0.00     0.007 A 
ENDBRANCH  21  22
ENDBRANCH  20  21
ENDBRANCH  18  20
ENDBRANCH  16  18
ENDBRANCH  14  16
ENDBRANCH   8  14
BRANCH   1  28
HETATM   28  O   UNL     1      44.735 -20.925   2.147  1.00  0.00    -0.353 OA
HETATM   29  C   UNL     1      43.988 -21.988   1.571  1.00  0.00     0.210 C 
ENDBRANCH   1  28
BRANCH   2  30
HETATM   30  O   UNL     1      45.318 -20.711   4.690  1.00  0.00    -0.353 OA
HETATM   31  C   UNL     1      44.901 -21.920   5.309  1.00  0.00     0.210 C 
ENDBRANCH   2  30
TORSDOF 8
ENDMDL
MODEL 3
REMARK VINA RESULT:      -7.5      3.401      6.224
REMARK  8 active torsions:
REMARK  status: ('A' for Active; 'I' for Inactive)
REMARK    1  A    between atoms: O_2  and  C_3 
REMARK    2  A    between atoms: C_4  and  O_5 
REMARK    3  A    between atoms: N_12  and  N_13 
REMARK    4  A    between atoms: N_13  and  C_14 
REMARK    5  A    between atoms: C_14  and  N_15 
REMARK    6  A    between atoms: N_15  and  C_16 
REMARK    7  A    between atoms: C_16  and  C_17 
REMARK    8  A    between atoms: C_17  and  C_18 
ROOT
HETATM    1  C   UNL     1      41.244 -14.660  -2.301  1.00  0.00     0.102 A 
HETATM    2  C   UNL     1      41.791 -13.360  -2.229  1.00  0.00     0.103 A 
HETATM    3  C   UNL     1      42.023 -12.770  -0.980  1.00  0.00     0.070 A 
HETATM    4  C   UNL     1      41.713 -13.471   0.186  1.00  0.00     0.053 A 
HETATM    5  C   UNL     1      41.196 -14.759   0.115  1.00  0.00     0.063 A 
HETATM    6  C   UNL     1      40.897 -15.477   1.370  1.00  0.00     0.281 C 
HETATM    7  O   UNL     1      40.606 -16.672   1.345  1.00  0.00    -0.265 OA
HETATM    8  N   UNL     1      41.010 -14.720   2.542  1.00  0.00    -0.190 N 
HETATM    9  C   UNL     1      41.576 -13.446   2.624  1.00  0.00     0.201 C 
HETATM   10  S   UNL     1      41.876 -12.572   4.026  1.00  0.00    -0.039 SA
HETATM   11  N   UNL     1      41.925 -12.867   1.429  1.00  0.00    -0.331 N 
HETATM   12  C   UNL     1      40.962 -15.362  -1.125  1.00  0.00     0.059 A 
HETATM   13  H   UNL     1      42.310 -11.930   1.480  1.00  0.00     0.168 HD
ENDROOT
BRANCH   8  14
HETATM   14  N   UNL     1      40.575 -15.356   3.736  1.00  0.00    -0.264 N 
HETATM   15  H   UNL     1      39.948 -14.780   4.287  1.00  0.00     0.190 HD
BRANCH  14  16
HETATM   16  C   UNL     1      41.446 -16.144   4.453  1.00  0.00     0.187 C 
HETATM   17  S   UNL     1      41.138 -16.935   5.895  1.00  0.00    -0.040 SA
BRANCH  16  18
HETATM   18  N   UNL     1      42.712 -16.242   3.936  1.00  0.00    -0.366 N 
HETATM   19  H   UNL     1      42.787 -15.712   3.073  1.00  0.00     0.161 HD
BRANCH  18  20
HETATM   20  C   UNL     1      43.540 -17.443   3.996  1.00  0.00     0.126 C 
BRANCH  20  21
HETATM   21  C   UNL     1      43.555 -18.186   2.659  1.00  0.00     0.058 C 
BRANCH  21  22
HETATM   22  C   UNL     1      43.921 -19.638   2.829  1.00  0.00    -0.057 A 
HETATM   23  C   UNL     1      43.644 -20.556   1.806  1.00  0.00     0.007 A 
HETATM   24  C   UNL     1      43.954 -21.908   1.963  1.00  0.00     0.001 A 
HETATM   25  C   UNL     1      44.538 -22.356   3.146  1.00  0.00     0.000 A 
HETATM   26  C   UNL     1      44.812 -21.452   4.171  1.00  0.00     0.001 A 
HETATM   27  C   UNL     1      44.504 -20.099   4.016  1.00  0.00     0.007 A 
ENDBRANCH  21  22
ENDBRANCH  20  21
ENDBRANCH  18  20
ENDBRANCH  16  18
ENDBRANCH  14  16
ENDBRANCH   8  14
BRANCH   1  28
HETATM   28  O   UNL     1      41.041 -15.163  -3.563  1.00  0.00    -0.353 OA
HETATM   29  C   UNL     1      39.758 -15.702  -3.848  1.00  0.00     0.210 C 
ENDBRANCH   1  28
BRANCH   2  30
HETATM   30  O   UNL     1      42.051 -12.751  -3.433  1.00  0.00    -0.353 OA
HETATM   31  C   UNL     1      41.405 -11.517  -3.709  1.00  0.00     0.210 C 
ENDBRANCH   2  30
TORSDOF 8
ENDMDL
MODEL 4
REMARK VINA RESULT:      -7.3      3.620      6.909
REMARK  8 active torsions:
REMARK  status: ('A' for Active; 'I' for Inactive)
REMARK    1  A    between atoms: O_2  and  C_3 
REMARK    2  A    between atoms: C_4  and  O_5 
REMARK    3  A    between atoms: N_12  and  N_13 
REMARK    4  A    between atoms: N_13  and  C_14 
REMARK    5  A    between atoms: C_14  and  N_15 
REMARK    6  A    between atoms: N_15  and  C_16 
REMARK    7  A    between atoms: C_16  and  C_17 
REMARK    8  A    between atoms: C_17  and  C_18 
ROOT
HETATM    1  C   UNL     1      43.854 -19.732   2.754  1.00  0.00     0.102 A 
HETATM    2  C   UNL     1      44.086 -19.312   4.082  1.00  0.00     0.103 A 
HETATM    3  C   UNL     1      43.357 -18.239   4.610  1.00  0.00     0.070 A 
HETATM    4  C   UNL     1      42.406 -17.591   3.821  1.00  0.00     0.053 A 
HETATM    5  C   UNL     1      42.162 -18.019   2.521  1.00  0.00     0.063 A 
HETATM    6  C   UNL     1      41.135 -17.321   1.721  1.00  0.00     0.281 C 
HETATM    7  O   UNL     1      40.775 -17.782   0.639  1.00  0.00    -0.265 OA
HETATM    8  N   UNL     1      40.603 -16.163   2.300  1.00  0.00    -0.190 N 
HETATM    9  C   UNL     1      40.805 -15.758   3.620  1.00  0.00     0.201 C 
HETATM   10  S   UNL     1      40.061 -14.469   4.398  1.00  0.00    -0.039 SA
HETATM   11  N   UNL     1      41.699 -16.505   4.347  1.00  0.00    -0.331 N 
HETATM   12  C   UNL     1      42.879 -19.091   1.982  1.00  0.00     0.059 A 
HETATM   13  H   UNL     1      41.872 -16.198   5.298  1.00  0.00     0.168 HD
ENDROOT
BRANCH   8  14
HETATM   14  N   UNL     1      39.732 -15.401   1.474  1.00  0.00    -0.264 N 
HETATM   15  H   UNL     1      38.877 -15.894   1.238  1.00  0.00     0.190 HD
BRANCH  14  16
HETATM   16  C   UNL     1      40.250 -14.597   0.484  1.00  0.00     0.187 C 
HETATM   17  S   UNL     1      40.880 -13.057   0.662  1.00  0.00    -0.040 SA
BRANCH  16  18
HETATM   18  N   UNL     1      40.194 -15.115  -0.784  1.00  0.00    -0.366 N 
HETATM   19  H   UNL     1      39.797 -16.050  -0.770  1.00  0.00     0.161 HD
BRANCH  18  20
HETATM   20  C   UNL     1      41.201 -14.888  -1.816  1.00  0.00     0.126 C 
BRANCH  20  21
HETATM   21  C   UNL     1      40.656 -15.188  -3.213  1.00  0.00     0.058 C 
BRANCH  21  22
HETATM   22  C   UNL     1      39.321 -14.529  -3.446  1.00  0.00    -0.057 A 
HETATM   23  C   UNL     1      38.205 -15.306  -3.789  1.00  0.00     0.007 A 
HETATM   24  C   UNL     1      36.970 -14.704  -4.034  1.00  0.00     0.001 A 
HETATM   25  C   UNL     1      36.840 -13.321  -3.944  1.00  0.00     0.000 A 
HETATM   26  C   UNL     1      37.943 -12.538  -3.609  1.00  0.00     0.001 A 
HETATM   27  C   UNL     1      39.180 -13.138  -3.362  1.00  0.00     0.007 A 
ENDBRANCH  21  22
ENDBRANCH  20  21
ENDBRANCH  18  20
ENDBRANCH  16  18
ENDBRANCH  14  16
ENDBRANCH   8  14
BRANCH   1  28
HETATM   28  O   UNL     1      44.614 -20.786   2.310  1.00  0.00    -0.353 OA
HETATM   29  C   UNL     1      43.928 -21.869   1.696  1.00  0.00     0.210 C 
ENDBRANCH   1  28
BRANCH   2  30
HETATM   30  O   UNL     1      45.049 -20.007   4.771  1.00  0.00    -0.353 OA
HETATM   31  C   UNL     1      44.626 -21.046   5.642  1.00  0.00     0.210 C 
ENDBRANCH   2  30
TORSDOF 8
ENDMDL
MODEL 5
REMARK VINA RESULT:      -7.3      3.472      6.882
REMARK  8 active torsions:
REMARK  status: ('A' for Active; 'I' for Inactive)
REMARK    1  A    between atoms: O_2  and  C_3 
REMARK    2  A    between atoms: C_4  and  O_5 
REMARK    3  A    between atoms: N_12  and  N_13 
REMARK    4  A    between atoms: N_13  and  C_14 
REMARK    5  A    between atoms: C_14  and  N_15 
REMARK    6  A    between atoms: N_15  and  C_16 
REMARK    7  A    between atoms: C_16  and  C_17 
REMARK    8  A    between atoms: C_17  and  C_18 
ROOT
HETATM    1  C   UNL     1      44.038 -19.996   2.847  1.00  0.00     0.102 A 
HETATM    2  C   UNL     1      44.361 -19.856   4.214  1.00  0.00     0.103 A 
HETATM    3  C   UNL     1      43.702 -18.895   4.991  1.00  0.00     0.070 A 
HETATM    4  C   UNL     1      42.730 -18.079   4.409  1.00  0.00     0.053 A 
HETATM    5  C   UNL     1      42.397 -18.232   3.068  1.00  0.00     0.063 A 
HETATM    6  C   UNL     1      41.350 -17.366   2.491  1.00  0.00     0.281 C 
HETATM    7  O   UNL     1      40.912 -17.592   1.364  1.00  0.00    -0.265 OA
HETATM    8  N   UNL     1      40.893 -16.335   3.320  1.00  0.00    -0.190 N 
HETATM    9  C   UNL     1      41.186 -16.208   4.679  1.00  0.00     0.201 C 
HETATM   10  S   UNL     1      40.534 -15.085   5.743  1.00  0.00    -0.039 SA
HETATM   11  N   UNL     1      42.094 -17.105   5.184  1.00  0.00    -0.331 N 
HETATM   12  C   UNL     1      43.043 -19.191   2.282  1.00  0.00     0.059 A 
HETATM   13  H   UNL     1      42.332 -17.000   6.164  1.00  0.00     0.168 HD
ENDROOT
BRANCH   8  14
HETATM   14  N   UNL     1      40.003 -15.404   2.720  1.00  0.00    -0.264 N 
HETATM   15  H   UNL     1      39.175 -15.841   2.329  1.00  0.00     0.190 HD
BRANCH  14  16
HETATM   16  C   UNL     1      40.500 -14.332   2.015  1.00  0.00     0.187 C 
HETATM   17  S   UNL     1      41.066 -12.887   2.640  1.00  0.00    -0.040 SA
BRANCH  16  18
HETATM   18  N   UNL     1      40.481 -14.466   0.650  1.00  0.00    -0.366 N 
HETATM   19  H   UNL     1      39.712 -15.062   0.361  1.00  0.00     0.161 HD
BRANCH  18  20
HETATM   20  C   UNL     1      41.673 -14.545  -0.191  1.00  0.00     0.126 C 
BRANCH  20  21
HETATM   21  C   UNL     1      41.363 -14.182  -1.643  1.00  0.00     0.058 C 
BRANCH  21  22
HETATM   22  C   UNL     1      41.898 -12.820  -2.006  1.00  0.00    -0.057 A 
HETATM   23  C   UNL     1      41.810 -12.361  -3.328  1.00  0.00     0.007 A 
HETATM   24  C   UNL     1      42.326 -11.113  -3.682  1.00  0.00     0.001 A 
HETATM   25  C   UNL     1      42.939 -10.315  -2.719  1.00  0.00     0.000 A 
HETATM   26  C   UNL     1      43.037 -10.764  -1.403  1.00  0.00     0.001 A 
HETATM   27  C   UNL     1      42.520 -12.012  -1.047  1.00  0.00     0.007 A 
ENDBRANCH  21  22
ENDBRANCH  20  21
ENDBRANCH  18  20
ENDBRANCH  16  18
ENDBRANCH  14  16
ENDBRANCH   8  14
BRANCH   1  28
HETATM   28  O   UNL     1      44.733 -20.956   2.155  1.00  0.00    -0.353 OA
HETATM   29  C   UNL     1      43.973 -21.947   1.477  1.00  0.00     0.210 C 
ENDBRANCH   1  28
BRANCH   2  30
HETATM   30  O   UNL     1      45.338 -20.697   4.689  1.00  0.00    -0.353 OA
HETATM   31  C   UNL     1      44.934 -21.931   5.263  1.00  0.00     0.210 C 
ENDBRANCH   2  30
TORSDOF 8
ENDMDL
MODEL 6
REMARK VINA RESULT:      -7.2      3.423      7.766
REMARK  8 active torsions:
REMARK  status: ('A' for Active; 'I' for Inactive)
REMARK    1  A    between atoms: O_2  and  C_3 
REMARK    2  A    between atoms: C_4  and  O_5 
REMARK    3  A    between atoms: N_12  and  N_13 
REMARK    4  A    between atoms: N_13  and  C_14 
REMARK    5  A    between atoms: C_14  and  N_15 
REMARK    6  A    between atoms: N_15  and  C_16 
REMARK    7  A    between atoms: C_16  and  C_17 
REMARK    8  A    between atoms: C_17  and  C_18 
ROOT
HETATM    1  C   UNL     1      44.380 -19.987   4.284  1.00  0.00     0.102 A 
HETATM    2  C   UNL     1      44.184 -20.071   2.889  1.00  0.00     0.103 A 
HETATM    3  C   UNL     1      43.300 -19.188   2.256  1.00  0.00     0.070 A 
HETATM    4  C   UNL     1      42.616 -18.232   3.008  1.00  0.00     0.053 A 
HETATM    5  C   UNL     1      42.826 -18.136   4.379  1.00  0.00     0.063 A 
HETATM    6  C   UNL     1      42.101 -17.099   5.141  1.00  0.00     0.281 C 
HETATM    7  O   UNL     1      42.393 -16.875   6.314  1.00  0.00    -0.265 OA
HETATM    8  N   UNL     1      41.123 -16.398   4.426  1.00  0.00    -0.190 N 
HETATM    9  C   UNL     1      40.943 -16.454   3.043  1.00  0.00     0.201 C 
HETATM   10  S   UNL     1      39.893 -15.513   2.130  1.00  0.00    -0.039 SA
HETATM   11  N   UNL     1      41.717 -17.370   2.374  1.00  0.00    -0.331 N 
HETATM   12  C   UNL     1      43.710 -19.007   5.024  1.00  0.00     0.059 A 
HETATM   13  H   UNL     1      41.570 -17.435   1.372  1.00  0.00     0.168 HD
ENDROOT
BRANCH   8  14
HETATM   14  N   UNL     1      40.314 -15.511   5.188  1.00  0.00    -0.264 N 
HETATM   15  H   UNL     1      39.332 -15.555   4.938  1.00  0.00     0.190 HD
BRANCH  14  16
HETATM   16  C   UNL     1      40.789 -14.263   5.522  1.00  0.00     0.187 C 
HETATM   17  S   UNL     1      42.111 -13.476   4.864  1.00  0.00    -0.040 SA
BRANCH  16  18
HETATM   18  N   UNL     1      40.118 -13.632   6.538  1.00  0.00    -0.366 N 
HETATM   19  H   UNL     1      39.931 -14.278   7.298  1.00  0.00     0.161 HD
BRANCH  18  20
HETATM   20  C   UNL     1      39.105 -12.598   6.343  1.00  0.00     0.126 C 
BRANCH  20  21
HETATM   21  C   UNL     1      39.693 -11.195   6.494  1.00  0.00     0.058 C 
BRANCH  21  22
HETATM   22  C   UNL     1      40.314 -10.992   7.852  1.00  0.00    -0.057 A 
HETATM   23  C   UNL     1      41.681 -10.698   7.962  1.00  0.00     0.007 A 
HETATM   24  C   UNL     1      42.273 -10.534   9.215  1.00  0.00     0.001 A 
HETATM   25  C   UNL     1      41.506 -10.668  10.370  1.00  0.00     0.000 A 
HETATM   26  C   UNL     1      40.148 -10.964  10.273  1.00  0.00     0.001 A 
HETATM   27  C   UNL     1      39.553 -11.128   9.019  1.00  0.00     0.007 A 
ENDBRANCH  21  22
ENDBRANCH  20  21
ENDBRANCH  18  20
ENDBRANCH  16  18
ENDBRANCH  14  16
ENDBRANCH   8  14
BRANCH   1  28
HETATM   28  O   UNL     1      45.258 -20.892   4.828  1.00  0.00    -0.353 OA
HETATM   29  C   UNL     1      44.701 -22.024   5.484  1.00  0.00     0.210 C 
ENDBRANCH   1  28
BRANCH   2  30
HETATM   30  O   UNL     1      44.894 -21.052   2.241  1.00  0.00    -0.353 OA
HETATM   31  C   UNL     1      44.167 -22.026   1.506  1.00  0.00     0.210 C 
ENDBRANCH   2  30
TORSDOF 8
ENDMDL
MODEL 7
REMARK VINA RESULT:      -7.0      2.396      5.686
REMARK  8 active torsions:
REMARK  status: ('A' for Active; 'I' for Inactive)
REMARK    1  A    between atoms: O_2  and  C_3 
REMARK    2  A    between atoms: C_4  and  O_5 
REMARK    3  A    between atoms: N_12  and  N_13 
REMARK    4  A    between atoms: N_13  and  C_14 
REMARK    5  A    between atoms: C_14  and  N_15 
REMARK    6  A    between atoms: N_15  and  C_16 
REMARK    7  A    between atoms: C_16  and  C_17 
REMARK    8  A    between atoms: C_17  and  C_18 
ROOT
HETATM    1  C   UNL     1      42.392 -17.934   3.698  1.00  0.00     0.102 A 
HETATM    2  C   UNL     1      43.348 -18.258   2.711  1.00  0.00     0.103 A 
HETATM    3  C   UNL     1      43.253 -17.686   1.436  1.00  0.00     0.070 A 
HETATM    4  C   UNL     1      42.215 -16.799   1.148  1.00  0.00     0.053 A 
HETATM    5  C   UNL     1      41.287 -16.463   2.128  1.00  0.00     0.063 A 
HETATM    6  C   UNL     1      40.212 -15.507   1.793  1.00  0.00     0.281 C 
HETATM    7  O   UNL     1      39.486 -15.058   2.679  1.00  0.00    -0.265 OA
HETATM    8  N   UNL     1      40.126 -15.142   0.445  1.00  0.00    -0.190 N 
HETATM    9  C   UNL     1      41.081 -15.435  -0.530  1.00  0.00     0.201 C 
HETATM   10  S   UNL     1      41.096 -14.882  -2.115  1.00  0.00    -0.039 SA
HETATM   11  N   UNL     1      42.112 -16.251  -0.134  1.00  0.00    -0.331 N 
HETATM   12  C   UNL     1      41.371 -17.023   3.406  1.00  0.00     0.059 A 
HETATM   13  H   UNL     1      42.794 -16.490  -0.845  1.00  0.00     0.168 HD
ENDROOT
BRANCH   8  14
HETATM   14  N   UNL     1      39.002 -14.348   0.088  1.00  0.00    -0.264 N 
HETATM   15  H   UNL     1      38.450 -14.754  -0.660  1.00  0.00     0.190 HD
BRANCH  14  16
HETATM   16  C   UNL     1      39.106 -12.975   0.075  1.00  0.00     0.187 C 
HETATM   17  S   UNL     1      39.065 -11.972  -1.264  1.00  0.00    -0.040 SA
BRANCH  16  18
HETATM   18  N   UNL     1      39.308 -12.389   1.298  1.00  0.00    -0.366 N 
HETATM   19  H   UNL     1      38.469 -11.908   1.606  1.00  0.00     0.161 HD
BRANCH  18  20
HETATM   20  C   UNL     1      40.563 -11.777   1.725  1.00  0.00     0.126 C 
BRANCH  20  21
HETATM   21  C   UNL     1      40.648 -11.668   3.248  1.00  0.00     0.058 C 
BRANCH  21  22
HETATM   22  C   UNL     1      41.691 -12.595   3.817  1.00  0.00    -0.057 A 
HETATM   23  C   UNL     1      42.680 -13.137   2.983  1.00  0.00     0.007 A 
HETATM   24  C   UNL     1      43.634 -14.018   3.493  1.00  0.00     0.001 A 
HETATM   25  C   UNL     1      43.607 -14.370   4.840  1.00  0.00     0.000 A 
HETATM   26  C   UNL     1      42.627 -13.841   5.678  1.00  0.00     0.001 A 
HETATM   27  C   UNL     1      41.671 -12.958   5.169  1.00  0.00     0.007 A 
ENDBRANCH  21  22
ENDBRANCH  20  21
ENDBRANCH  18  20
ENDBRANCH  16  18
ENDBRANCH  14  16
ENDBRANCH   8  14
BRANCH   1  28
HETATM   28  O   UNL     1      42.552 -18.542   4.919  1.00  0.00    -0.353 OA
HETATM   29  C   UNL     1      42.380 -17.733   6.075  1.00  0.00     0.210 C 
ENDBRANCH   1  28
BRANCH   2  30
HETATM   30  O   UNL     1      44.323 -19.148   3.089  1.00  0.00    -0.353 OA
HETATM   31  C   UNL     1      44.287 -20.453   2.531  1.00  0.00     0.210 C 
ENDBRANCH   2  30
TORSDOF 8
ENDMDL
MODEL 8
REMARK VINA RESULT:      -7.0      3.715      4.659
REMARK  8 active torsions:
REMARK  status: ('A' for Active; 'I' for Inactive)
REMARK    1  A    between atoms: O_2  and  C_3 
REMARK    2  A    between atoms: C_4  and  O_5 
REMARK    3  A    between atoms: N_12  and  N_13 
REMARK    4  A    between atoms: N_13  and  C_14 
REMARK    5  A    between atoms: C_14  and  N_15 
REMARK    6  A    between atoms: N_15  and  C_16 
REMARK    7  A    between atoms: C_16  and  C_17 
REMARK    8  A    between atoms: C_17  and  C_18 
ROOT
HETATM    1  C   UNL     1      39.090 -10.735   4.875  1.00  0.00     0.102 A 
HETATM    2  C   UNL     1      39.282 -10.918   6.262  1.00  0.00     0.103 A 
HETATM    3  C   UNL     1      39.738 -12.151   6.745  1.00  0.00     0.070 A 
HETATM    4  C   UNL     1      39.999 -13.192   5.853  1.00  0.00     0.053 A 
HETATM    5  C   UNL     1      39.830 -13.004   4.485  1.00  0.00     0.063 A 
HETATM    6  C   UNL     1      40.134 -14.122   3.569  1.00  0.00     0.281 C 
HETATM    7  O   UNL     1      40.163 -13.935   2.354  1.00  0.00    -0.265 OA
HETATM    8  N   UNL     1      40.414 -15.348   4.184  1.00  0.00    -0.190 N 
HETATM    9  C   UNL     1      40.634 -15.531   5.550  1.00  0.00     0.201 C 
HETATM   10  S   UNL     1      41.127 -16.947   6.305  1.00  0.00    -0.039 SA
HETATM   11  N   UNL     1      40.430 -14.428   6.344  1.00  0.00    -0.331 N 
HETATM   12  C   UNL     1      39.380 -11.777   3.989  1.00  0.00     0.059 A 
HETATM   13  H   UNL     1      40.561 -14.562   7.340  1.00  0.00     0.168 HD
ENDROOT
BRANCH   8  14
HETATM   14  N   UNL     1      40.552 -16.462   3.312  1.00  0.00    -0.264 N 
HETATM   15  H   UNL     1      40.310 -17.343   3.751  1.00  0.00     0.190 HD
BRANCH  14  16
HETATM   16  C   UNL     1      41.597 -16.509   2.416  1.00  0.00     0.187 C 
HETATM   17  S   UNL     1      41.496 -16.712   0.758  1.00  0.00    -0.040 SA
BRANCH  16  18
HETATM   18  N   UNL     1      42.849 -16.422   2.968  1.00  0.00    -0.366 N 
HETATM   19  H   UNL     1      43.416 -15.750   2.461  1.00  0.00     0.161 HD
BRANCH  18  20
HETATM   20  C   UNL     1      43.584 -17.549   3.533  1.00  0.00     0.126 C 
BRANCH  20  21
HETATM   21  C   UNL     1      44.010 -18.544   2.453  1.00  0.00     0.058 C 
BRANCH  21  22
HETATM   22  C   UNL     1      44.284 -19.910   3.026  1.00  0.00    -0.057 A 
HETATM   23  C   UNL     1      44.163 -21.049   2.216  1.00  0.00     0.007 A 
HETATM   24  C   UNL     1      44.387 -22.321   2.742  1.00  0.00     0.001 A 
HETATM   25  C   UNL     1      44.729 -22.470   4.084  1.00  0.00     0.000 A 
HETATM   26  C   UNL     1      44.846 -21.346   4.900  1.00  0.00     0.001 A 
HETATM   27  C   UNL     1      44.624 -20.070   4.375  1.00  0.00     0.007 A 
ENDBRANCH  21  22
ENDBRANCH  20  21
ENDBRANCH  18  20
ENDBRANCH  16  18
ENDBRANCH  14  16
ENDBRANCH   8  14
BRANCH   1  28
HETATM   28  O   UNL     1      38.635  -9.500   4.484  1.00  0.00    -0.353 OA
HETATM   29  C   UNL     1      39.560  -8.645   3.826  1.00  0.00     0.210 C 
ENDBRANCH   1  28
BRANCH   2  30
HETATM   30  O   UNL     1      38.987  -9.837   7.056  1.00  0.00    -0.353 OA
HETATM   31  C   UNL     1      39.705  -9.689   8.273  1.00  0.00     0.210 C 
ENDBRANCH   2  30
TORSDOF 8
ENDMDL
MODEL 9
REMARK VINA RESULT:      -7.0      3.235      6.567
REMARK  8 active torsions:
REMARK  status: ('A' for Active; 'I' for Inactive)
REMARK    1  A    between atoms: O_2  and  C_3 
REMARK    2  A    between atoms: C_4  and  O_5 
REMARK    3  A    between atoms: N_12  and  N_13 
REMARK    4  A    between atoms: N_13  and  C_14 
REMARK    5  A    between atoms: C_14  and  N_15 
REMARK    6  A    between atoms: N_15  and  C_16 
REMARK    7  A    between atoms: C_16  and  C_17 
REMARK    8  A    between atoms: C_17  and  C_18 
ROOT
HETATM    1  C   UNL     1      39.021 -13.764  -0.676  1.00  0.00     0.102 A 
HETATM    2  C   UNL     1      39.857 -14.205  -1.724  1.00  0.00     0.103 A 
HETATM    3  C   UNL     1      40.955 -15.027  -1.441  1.00  0.00     0.070 A 
HETATM    4  C   UNL     1      41.218 -15.403  -0.123  1.00  0.00     0.053 A 
HETATM    5  C   UNL     1      40.382 -14.987   0.907  1.00  0.00     0.063 A 
HETATM    6  C   UNL     1      40.679 -15.421   2.287  1.00  0.00     0.281 C 
HETATM    7  O   UNL     1      39.867 -15.216   3.188  1.00  0.00    -0.265 OA
HETATM    8  N   UNL     1      41.895 -16.092   2.460  1.00  0.00    -0.190 N 
HETATM    9  C   UNL     1      42.712 -16.556   1.428  1.00  0.00     0.201 C 
HETATM   10  S   UNL     1      44.090 -17.501   1.588  1.00  0.00    -0.039 SA
HETATM   11  N   UNL     1      42.331 -16.203   0.156  1.00  0.00    -0.331 N 
HETATM   12  C   UNL     1      39.279 -14.171   0.638  1.00  0.00     0.059 A 
HETATM   13  H   UNL     1      42.936 -16.513  -0.596  1.00  0.00     0.168 HD
ENDROOT
BRANCH   8  14
HETATM   14  N   UNL     1      42.261 -16.374   3.804  1.00  0.00    -0.264 N 
HETATM   15  H   UNL     1      41.634 -17.029   4.258  1.00  0.00     0.190 HD
BRANCH  14  16
HETATM   16  C   UNL     1      42.760 -15.372   4.606  1.00  0.00     0.187 C 
HETATM   17  S   UNL     1      43.611 -14.017   4.117  1.00  0.00    -0.040 SA
BRANCH  16  18
HETATM   18  N   UNL     1      42.566 -15.546   5.952  1.00  0.00    -0.366 N 
HETATM   19  H   UNL     1      43.123 -14.882   6.482  1.00  0.00     0.161 HD
BRANCH  18  20
HETATM   20  C   UNL     1      42.366 -16.839   6.600  1.00  0.00     0.126 C 
BRANCH  20  21
HETATM   21  C   UNL     1      43.683 -17.422   7.114  1.00  0.00     0.058 C 
BRANCH  21  22
HETATM   22  C   UNL     1      43.984 -18.761   6.491  1.00  0.00    -0.057 A 
HETATM   23  C   UNL     1      43.643 -19.942   7.166  1.00  0.00     0.007 A 
HETATM   24  C   UNL     1      43.940 -21.187   6.611  1.00  0.00     0.001 A 
HETATM   25  C   UNL     1      44.586 -21.265   5.380  1.00  0.00     0.000 A 
HETATM   26  C   UNL     1      44.934 -20.098   4.702  1.00  0.00     0.001 A 
HETATM   27  C   UNL     1      44.636 -18.850   5.255  1.00  0.00     0.007 A 
ENDBRANCH  21  22
ENDBRANCH  20  21
ENDBRANCH  18  20
ENDBRANCH  16  18
ENDBRANCH  14  16
ENDBRANCH   8  14
BRANCH   1  28
HETATM   28  O   UNL     1      37.970 -12.958  -1.037  1.00  0.00    -0.353 OA
HETATM   29  C   UNL     1      38.068 -11.578  -0.711  1.00  0.00     0.210 C 
ENDBRANCH   1  28
BRANCH   2  30
HETATM   30  O   UNL     1      39.521 -13.771  -2.983  1.00  0.00    -0.353 OA
HETATM   31  C   UNL     1      40.424 -12.903  -3.652  1.00  0.00     0.210 C 
ENDBRANCH   2  30
TORSDOF 8
ENDMDL
MODEL 10
REMARK VINA RESULT:      -6.9      3.567      6.609
REMARK  8 active torsions:
REMARK  status: ('A' for Active; 'I' for Inactive)
REMARK    1  A    between atoms: O_2  and  C_3 
REMARK    2  A    between atoms: C_4  and  O_5 
REMARK    3  A    between atoms: N_12  and  N_13 
REMARK    4  A    between atoms: N_13  and  C_14 
REMARK    5  A    between atoms: C_14  and  N_15 
REMARK    6  A    between atoms: N_15  and  C_16 
REMARK    7  A    between atoms: C_16  and  C_17 
REMARK    8  A    between atoms: C_17  and  C_18 
ROOT
HETATM    1  C   UNL     1      43.730 -19.474   3.733  1.00  0.00     0.102 A 
HETATM    2  C   UNL     1      43.609 -18.926   5.029  1.00  0.00     0.103 A 
HETATM    3  C   UNL     1      42.797 -17.804   5.237  1.00  0.00     0.070 A 
HETATM    4  C   UNL     1      42.113 -17.233   4.163  1.00  0.00     0.053 A 
HETATM    5  C   UNL     1      42.215 -17.787   2.892  1.00  0.00     0.063 A 
HETATM    6  C   UNL     1      41.461 -17.168   1.782  1.00  0.00     0.281 C 
HETATM    7  O   UNL     1      41.392 -17.733   0.692  1.00  0.00    -0.265 OA
HETATM    8  N   UNL     1      40.828 -15.957   2.084  1.00  0.00    -0.190 N 
HETATM    9  C   UNL     1      40.680 -15.424   3.365  1.00  0.00     0.201 C 
HETATM   10  S   UNL     1      39.793 -14.063   3.788  1.00  0.00    -0.039 SA
HETATM   11  N   UNL     1      41.324 -16.099   4.374  1.00  0.00    -0.331 N 
HETATM   12  C   UNL     1      43.018 -18.910   2.670  1.00  0.00     0.059 A 
HETATM   13  H   UNL     1      41.243 -15.700   5.303  1.00  0.00     0.168 HD
ENDROOT
BRANCH   8  14
HETATM   14  N   UNL     1      40.234 -15.278   0.985  1.00  0.00    -0.264 N 
HETATM   15  H   UNL     1      39.528 -15.831   0.512  1.00  0.00     0.190 HD
BRANCH  14  16
HETATM   16  C   UNL     1      41.003 -14.473   0.176  1.00  0.00     0.187 C 
HETATM   17  S   UNL     1      41.320 -12.842   0.383  1.00  0.00    -0.040 SA
BRANCH  16  18
HETATM   18  N   UNL     1      41.521 -15.081  -0.938  1.00  0.00    -0.366 N 
HETATM   19  H   UNL     1      42.493 -14.819  -1.069  1.00  0.00     0.161 HD
BRANCH  18  20
HETATM   20  C   UNL     1      40.775 -15.324  -2.170  1.00  0.00     0.126 C 
BRANCH  20  21
HETATM   21  C   UNL     1      41.491 -14.739  -3.387  1.00  0.00     0.058 C 
BRANCH  21  22
HETATM   22  C   UNL     1      41.378 -13.237  -3.434  1.00  0.00    -0.057 A 
HETATM   23  C   UNL     1      42.518 -12.441  -3.243  1.00  0.00     0.007 A 
HETATM   24  C   UNL     1      42.421 -11.049  -3.258  1.00  0.00     0.001 A 
HETATM   25  C   UNL     1      41.185 -10.439  -3.457  1.00  0.00     0.000 A 
HETATM   26  C   UNL     1      40.046 -11.220  -3.642  1.00  0.00     0.001 A 
HETATM   27  C   UNL     1      40.140 -12.613  -3.629  1.00  0.00     0.007 A 
ENDBRANCH  21  22
ENDBRANCH  20  21
ENDBRANCH  18  20
ENDBRANCH  16  18
ENDBRANCH  14  16
ENDBRANCH   8  14
BRANCH   1  28
HETATM   28  O   UNL     1      44.550 -20.569   3.612  1.00  0.00    -0.353 OA
HETATM   29  C   UNL     1      44.392 -21.374   2.452  1.00  0.00     0.210 C 
ENDBRANCH   1  28
BRANCH   2  30
HETATM   30  O   UNL     1      44.331 -19.553   6.015  1.00  0.00    -0.353 OA
HETATM   31  C   UNL     1      43.918 -19.370   7.361  1.00  0.00     0.210 C 
ENDBRANCH   2  30
TORSDOF 8
ENDMDL
