MODEL 1
REMARK VINA RESULT:      -9.6      0.000      0.000
REMARK  3 active torsions:
REMARK  status: ('A' for Active; 'I' for Inactive)
REMARK    1  A    between atoms: C_5  and  N_6 
REMARK       I    between atoms: N_6  and  C_7 
REMARK    2  A    between atoms: C_7  and  C_8 
REMARK    3  A    between atoms: C_8  and  N_9 
ROOT
HETATM    1  N   UNL     1      41.730 -14.662   3.479  1.00  0.00    -0.256 N 
HETATM    2  C   UNL     1      42.312 -13.424   3.626  1.00  0.00     0.330 A 
HETATM    3  O   UNL     1      42.592 -12.852   4.665  1.00  0.00    -0.246 OA
HETATM    4  N   UNL     1      42.473 -12.893   2.360  1.00  0.00    -0.303 N 
HETATM    5  C   UNL     1      41.966 -13.734   1.402  1.00  0.00     0.122 A 
HETATM    6  C   UNL     1      41.905 -13.450   0.094  1.00  0.00     0.077 A 
HETATM    7  C   UNL     1      42.343 -12.087  -0.389  1.00  0.00     0.259 A 
HETATM    8  O   UNL     1      42.830 -11.190   0.275  1.00  0.00    -0.267 OA
HETATM    9  N   UNL     1      42.051 -12.065  -1.738  1.00  0.00    -0.322 N 
HETATM   10  C   UNL     1      41.408 -14.175  -1.085  1.00  0.00     0.009 A 
HETATM   11  C   UNL     1      41.511 -13.275  -2.157  1.00  0.00     0.046 A 
HETATM   12  C   UNL     1      41.134 -13.588  -3.448  1.00  0.00     0.030 A 
HETATM   13  C   UNL     1      40.644 -14.872  -3.678  1.00  0.00     0.002 A 
HETATM   14  C   UNL     1      40.554 -15.798  -2.624  1.00  0.00     0.001 A 
HETATM   15  C   UNL     1      40.938 -15.453  -1.321  1.00  0.00     0.015 A 
HETATM   16  C   UNL     1      41.478 -14.932   2.158  1.00  0.00     0.280 A 
HETATM   17  O   UNL     1      40.948 -15.939   1.724  1.00  0.00    -0.265 OA
HETATM   18  H   UNL     1      42.844 -11.963   2.180  1.00  0.00     0.171 HD
HETATM   19  H   UNL     1      42.231 -11.264  -2.324  1.00  0.00     0.169 HD
ENDROOT
BRANCH   1  20
HETATM   20  C   UNL     1      41.213 -15.436   4.587  1.00  0.00     0.240 C 
BRANCH  20  21
HETATM   21  C   UNL     1      41.671 -16.894   4.597  1.00  0.00     0.240 C 
HETATM   22  N   UNL     1      42.871 -17.095   3.931  1.00  0.00    -0.326 N 
HETATM   23  H   UNL     1      43.416 -16.265   3.702  1.00  0.00     0.169 HD
HETATM   24  O   UNL     1      40.953 -17.770   5.071  1.00  0.00    -0.271 OA
BRANCH  22  25
HETATM   25  C   UNL     1      43.402 -18.321   3.476  1.00  0.00     0.034 A 
HETATM   26  C   UNL     1      42.986 -18.769   2.217  1.00  0.00     0.030 A 
HETATM   27  C   UNL     1      43.403 -20.013   1.728  1.00  0.00     0.009 A 
HETATM   28  C   UNL     1      44.227 -20.837   2.499  1.00  0.00    -0.062 A 
HETATM   29  C   UNL     1      44.673 -22.175   1.990  1.00  0.00     0.048 C 
HETATM   30  C   UNL     1      44.666 -20.375   3.744  1.00  0.00     0.009 A 
HETATM   31  C   UNL     1      44.255 -19.127   4.229  1.00  0.00     0.030 A 
ENDBRANCH  22  25
ENDBRANCH  20  21
ENDBRANCH   1  20
TORSDOF 3
ENDMDL
MODEL 2
REMARK VINA RESULT:      -9.5      2.091      7.718
REMARK  3 active torsions:
REMARK  status: ('A' for Active; 'I' for Inactive)
REMARK    1  A    between atoms: C_5  and  N_6 
REMARK       I    between atoms: N_6  and  C_7 
REMARK    2  A    between atoms: C_7  and  C_8 
REMARK    3  A    between atoms: C_8  and  N_9 
ROOT
HETATM    1  N   UNL     1      42.505 -15.306   1.962  1.00  0.00    -0.256 N 
HETATM    2  C   UNL     1      42.804 -14.790   3.202  1.00  0.00     0.330 A 
HETATM    3  O   UNL     1      42.762 -13.624   3.552  1.00  0.00    -0.246 OA
HETATM    4  N   UNL     1      43.237 -15.840   3.990  1.00  0.00    -0.303 N 
HETATM    5  C   UNL     1      43.270 -17.013   3.278  1.00  0.00     0.122 A 
HETATM    6  C   UNL     1      43.725 -18.179   3.754  1.00  0.00     0.077 A 
HETATM    7  C   UNL     1      44.324 -18.231   5.140  1.00  0.00     0.259 A 
HETATM    8  O   UNL     1      44.393 -17.323   5.948  1.00  0.00    -0.267 OA
HETATM    9  N   UNL     1      44.800 -19.518   5.287  1.00  0.00    -0.322 N 
HETATM   10  C   UNL     1      43.864 -19.529   3.185  1.00  0.00     0.009 A 
HETATM   11  C   UNL     1      44.535 -20.285   4.158  1.00  0.00     0.046 A 
HETATM   12  C   UNL     1      44.857 -21.619   3.992  1.00  0.00     0.030 A 
HETATM   13  C   UNL     1      44.472 -22.225   2.799  1.00  0.00     0.002 A 
HETATM   14  C   UNL     1      43.778 -21.494   1.820  1.00  0.00     0.001 A 
HETATM   15  C   UNL     1      43.469 -20.140   2.010  1.00  0.00     0.015 A 
HETATM   16  C   UNL     1      42.764 -16.652   1.915  1.00  0.00     0.280 A 
HETATM   17  O   UNL     1      42.618 -17.374   0.945  1.00  0.00    -0.265 OA
HETATM   18  H   UNL     1      43.563 -15.731   4.947  1.00  0.00     0.171 HD
HETATM   19  H   UNL     1      45.266 -19.839   6.123  1.00  0.00     0.169 HD
ENDROOT
BRANCH   1  20
HETATM   20  C   UNL     1      42.222 -14.485   0.804  1.00  0.00     0.240 C 
BRANCH  20  21
HETATM   21  C   UNL     1      40.895 -14.811   0.119  1.00  0.00     0.240 C 
HETATM   22  N   UNL     1      40.953 -14.708  -1.263  1.00  0.00    -0.326 N 
HETATM   23  H   UNL     1      41.880 -14.644  -1.682  1.00  0.00     0.169 HD
HETATM   24  O   UNL     1      39.887 -15.032   0.784  1.00  0.00    -0.271 OA
BRANCH  22  25
HETATM   25  C   UNL     1      39.868 -14.619  -2.160  1.00  0.00     0.034 A 
HETATM   26  C   UNL     1      38.931 -13.604  -1.932  1.00  0.00     0.030 A 
HETATM   27  C   UNL     1      37.784 -13.498  -2.727  1.00  0.00     0.009 A 
HETATM   28  C   UNL     1      37.547 -14.416  -3.753  1.00  0.00    -0.062 A 
HETATM   29  C   UNL     1      36.318 -14.319  -4.607  1.00  0.00     0.048 C 
HETATM   30  C   UNL     1      38.498 -15.411  -4.000  1.00  0.00     0.009 A 
HETATM   31  C   UNL     1      39.649 -15.512  -3.209  1.00  0.00     0.030 A 
ENDBRANCH  22  25
ENDBRANCH  20  21
ENDBRANCH   1  20
TORSDOF 3
ENDMDL
MODEL 3
REMARK VINA RESULT:      -9.4      1.942      2.383
REMARK  3 active torsions:
REMARK  status: ('A' for Active; 'I' for Inactive)
REMARK    1  A    between atoms: C_5  and  N_6 
REMARK       I    between atoms: N_6  and  C_7 
REMARK    2  A    between atoms: C_7  and  C_8 
REMARK    3  A    between atoms: C_8  and  N_9 
ROOT
HETATM    1  N   UNL     1      41.287 -14.213   3.684  1.00  0.00    -0.256 N 
HETATM    2  C   UNL     1      39.952 -14.252   4.014  1.00  0.00     0.330 A 
HETATM    3  O   UNL     1      39.462 -14.431   5.115  1.00  0.00    -0.246 OA
HETATM    4  N   UNL     1      39.234 -14.114   2.841  1.00  0.00    -0.303 N 
HETATM    5  C   UNL     1      40.070 -14.034   1.755  1.00  0.00     0.122 A 
HETATM    6  C   UNL     1      39.661 -13.980   0.481  1.00  0.00     0.077 A 
HETATM    7  C   UNL     1      38.186 -14.089   0.171  1.00  0.00     0.259 A 
HETATM    8  O   UNL     1      37.268 -14.159   0.968  1.00  0.00    -0.267 OA
HETATM    9  N   UNL     1      38.101 -14.121  -1.206  1.00  0.00    -0.322 N 
HETATM   10  C   UNL     1      40.358 -13.904  -0.812  1.00  0.00     0.009 A 
HETATM   11  C   UNL     1      39.358 -14.009  -1.791  1.00  0.00     0.046 A 
HETATM   12  C   UNL     1      39.619 -13.981  -3.147  1.00  0.00     0.030 A 
HETATM   13  C   UNL     1      40.946 -13.826  -3.540  1.00  0.00     0.002 A 
HETATM   14  C   UNL     1      41.962 -13.695  -2.577  1.00  0.00     0.001 A 
HETATM   15  C   UNL     1      41.671 -13.732  -1.206  1.00  0.00     0.015 A 
HETATM   16  C   UNL     1      41.453 -14.089   2.328  1.00  0.00     0.280 A 
HETATM   17  O   UNL     1      42.520 -14.051   1.740  1.00  0.00    -0.265 OA
HETATM   18  H   UNL     1      38.219 -14.151   2.791  1.00  0.00     0.171 HD
HETATM   19  H   UNL     1      37.225 -14.201  -1.700  1.00  0.00     0.169 HD
ENDROOT
BRANCH   1  20
HETATM   20  C   UNL     1      42.347 -14.536   4.614  1.00  0.00     0.240 C 
BRANCH  20  21
HETATM   21  C   UNL     1      42.653 -16.030   4.718  1.00  0.00     0.240 C 
HETATM   22  N   UNL     1      43.533 -16.477   3.743  1.00  0.00    -0.326 N 
HETATM   23  H   UNL     1      44.036 -15.766   3.215  1.00  0.00     0.169 HD
HETATM   24  O   UNL     1      42.067 -16.731   5.538  1.00  0.00    -0.271 OA
BRANCH  22  25
HETATM   25  C   UNL     1      43.768 -17.812   3.352  1.00  0.00     0.034 A 
HETATM   26  C   UNL     1      43.349 -18.187   2.070  1.00  0.00     0.030 A 
HETATM   27  C   UNL     1      43.472 -19.511   1.636  1.00  0.00     0.009 A 
HETATM   28  C   UNL     1      44.001 -20.488   2.485  1.00  0.00    -0.062 A 
HETATM   29  C   UNL     1      44.130 -21.913   2.035  1.00  0.00     0.048 C 
HETATM   30  C   UNL     1      44.447 -20.108   3.754  1.00  0.00     0.009 A 
HETATM   31  C   UNL     1      44.330 -18.780   4.185  1.00  0.00     0.030 A 
ENDBRANCH  22  25
ENDBRANCH  20  21
ENDBRANCH   1  20
TORSDOF 3
ENDMDL
MODEL 4
REMARK VINA RESULT:      -9.4      1.749      2.876
REMARK  3 active torsions:
REMARK  status: ('A' for Active; 'I' for Inactive)
REMARK    1  A    between atoms: C_5  and  N_6 
REMARK       I    between atoms: N_6  and  C_7 
REMARK    2  A    between atoms: C_7  and  C_8 
REMARK    3  A    between atoms: C_8  and  N_9 
ROOT
HETATM    1  N   UNL     1      41.130 -15.166   2.123  1.00  0.00    -0.256 N 
HETATM    2  C   UNL     1      40.621 -16.217   1.396  1.00  0.00     0.330 A 
HETATM    3  O   UNL     1      40.275 -17.310   1.810  1.00  0.00    -0.246 OA
HETATM    4  N   UNL     1      40.629 -15.840   0.067  1.00  0.00    -0.303 N 
HETATM    5  C   UNL     1      41.174 -14.590  -0.089  1.00  0.00     0.122 A 
HETATM    6  C   UNL     1      41.390 -13.995  -1.270  1.00  0.00     0.077 A 
HETATM    7  C   UNL     1      41.099 -14.752  -2.545  1.00  0.00     0.259 A 
HETATM    8  O   UNL     1      40.609 -15.862  -2.649  1.00  0.00    -0.267 OA
HETATM    9  N   UNL     1      41.531 -13.931  -3.567  1.00  0.00    -0.322 N 
HETATM   10  C   UNL     1      41.957 -12.699  -1.671  1.00  0.00     0.009 A 
HETATM   11  C   UNL     1      42.028 -12.730  -3.072  1.00  0.00     0.046 A 
HETATM   12  C   UNL     1      42.515 -11.683  -3.830  1.00  0.00     0.030 A 
HETATM   13  C   UNL     1      42.936 -10.543  -3.149  1.00  0.00     0.002 A 
HETATM   14  C   UNL     1      42.853 -10.479  -1.748  1.00  0.00     0.001 A 
HETATM   15  C   UNL     1      42.360 -11.559  -1.001  1.00  0.00     0.015 A 
HETATM   16  C   UNL     1      41.499 -14.133   1.300  1.00  0.00     0.280 A 
HETATM   17  O   UNL     1      42.000 -13.081   1.655  1.00  0.00    -0.265 OA
HETATM   18  H   UNL     1      40.344 -16.449  -0.696  1.00  0.00     0.171 HD
HETATM   19  H   UNL     1      41.468 -14.187  -4.540  1.00  0.00     0.169 HD
ENDROOT
BRANCH   1  20
HETATM   20  C   UNL     1      41.475 -15.260   3.525  1.00  0.00     0.240 C 
BRANCH  20  21
HETATM   21  C   UNL     1      41.968 -16.642   3.955  1.00  0.00     0.240 C 
HETATM   22  N   UNL     1      43.077 -17.073   3.243  1.00  0.00    -0.326 N 
HETATM   23  H   UNL     1      43.566 -16.375   2.684  1.00  0.00     0.169 HD
HETATM   24  O   UNL     1      41.340 -17.299   4.781  1.00  0.00    -0.271 OA
BRANCH  22  25
HETATM   25  C   UNL     1      43.576 -18.390   3.152  1.00  0.00     0.034 A 
HETATM   26  C   UNL     1      43.231 -19.127   2.013  1.00  0.00     0.030 A 
HETATM   27  C   UNL     1      43.618 -20.466   1.884  1.00  0.00     0.009 A 
HETATM   28  C   UNL     1      44.340 -21.095   2.902  1.00  0.00    -0.062 A 
HETATM   29  C   UNL     1      44.753 -22.532   2.781  1.00  0.00     0.048 C 
HETATM   30  C   UNL     1      44.710 -20.350   4.026  1.00  0.00     0.009 A 
HETATM   31  C   UNL     1      44.329 -19.008   4.150  1.00  0.00     0.030 A 
ENDBRANCH  22  25
ENDBRANCH  20  21
ENDBRANCH   1  20
TORSDOF 3
ENDMDL
MODEL 5
REMARK VINA RESULT:      -9.2      2.142      7.534
REMARK  3 active torsions:
REMARK  status: ('A' for Active; 'I' for Inactive)
REMARK    1  A    between atoms: C_5  and  N_6 
REMARK       I    between atoms: N_6  and  C_7 
REMARK    2  A    between atoms: C_7  and  C_8 
REMARK    3  A    between atoms: C_8  and  N_9 
ROOT
HETATM    1  N   UNL     1      43.338 -15.269   3.977  1.00  0.00    -0.256 N 
HETATM    2  C   UNL     1      43.362 -15.286   5.353  1.00  0.00     0.330 A 
HETATM    3  O   UNL     1      43.317 -14.333   6.110  1.00  0.00    -0.246 OA
HETATM    4  N   UNL     1      43.515 -16.603   5.744  1.00  0.00    -0.303 N 
HETATM    5  C   UNL     1      43.639 -17.431   4.657  1.00  0.00     0.122 A 
HETATM    6  C   UNL     1      43.883 -18.747   4.726  1.00  0.00     0.077 A 
HETATM    7  C   UNL     1      44.122 -19.386   6.074  1.00  0.00     0.259 A 
HETATM    8  O   UNL     1      44.055 -18.852   7.166  1.00  0.00    -0.267 OA
HETATM    9  N   UNL     1      44.457 -20.697   5.804  1.00  0.00    -0.322 N 
HETATM   10  C   UNL     1      44.061 -19.805   3.721  1.00  0.00     0.009 A 
HETATM   11  C   UNL     1      44.421 -20.956   4.439  1.00  0.00     0.046 A 
HETATM   12  C   UNL     1      44.680 -22.174   3.839  1.00  0.00     0.030 A 
HETATM   13  C   UNL     1      44.556 -22.243   2.453  1.00  0.00     0.002 A 
HETATM   14  C   UNL     1      44.173 -21.109   1.715  1.00  0.00     0.001 A 
HETATM   15  C   UNL     1      43.922 -19.883   2.348  1.00  0.00     0.015 A 
HETATM   16  C   UNL     1      43.506 -16.531   3.467  1.00  0.00     0.280 A 
HETATM   17  O   UNL     1      43.550 -16.823   2.286  1.00  0.00    -0.265 OA
HETATM   18  H   UNL     1      43.607 -16.897   6.713  1.00  0.00     0.171 HD
HETATM   19  H   UNL     1      44.682 -21.366   6.526  1.00  0.00     0.169 HD
ENDROOT
BRANCH   1  20
HETATM   20  C   UNL     1      43.402 -14.053   3.195  1.00  0.00     0.240 C 
BRANCH  20  21
HETATM   21  C   UNL     1      42.069 -13.644   2.567  1.00  0.00     0.240 C 
HETATM   22  N   UNL     1      41.582 -14.574   1.661  1.00  0.00    -0.326 N 
HETATM   23  H   UNL     1      42.023 -15.494   1.663  1.00  0.00     0.169 HD
HETATM   24  O   UNL     1      41.581 -12.543   2.803  1.00  0.00    -0.271 OA
BRANCH  22  25
HETATM   25  C   UNL     1      40.582 -14.376   0.686  1.00  0.00     0.034 A 
HETATM   26  C   UNL     1      41.000 -14.264  -0.645  1.00  0.00     0.030 A 
HETATM   27  C   UNL     1      40.079 -13.987  -1.662  1.00  0.00     0.009 A 
HETATM   28  C   UNL     1      38.728 -13.797  -1.361  1.00  0.00    -0.062 A 
HETATM   29  C   UNL     1      37.732 -13.490  -2.440  1.00  0.00     0.048 C 
HETATM   30  C   UNL     1      38.306 -13.938  -0.035  1.00  0.00     0.009 A 
HETATM   31  C   UNL     1      39.227 -14.224   0.980  1.00  0.00     0.030 A 
ENDBRANCH  22  25
ENDBRANCH  20  21
ENDBRANCH   1  20
TORSDOF 3
ENDMDL
MODEL 6
REMARK VINA RESULT:      -9.1      2.020      7.676
REMARK  3 active torsions:
REMARK  status: ('A' for Active; 'I' for Inactive)
REMARK    1  A    between atoms: C_5  and  N_6 
REMARK       I    between atoms: N_6  and  C_7 
REMARK    2  A    between atoms: C_7  and  C_8 
REMARK    3  A    between atoms: C_8  and  N_9 
ROOT
HETATM    1  N   UNL     1      40.446 -15.754   2.161  1.00  0.00    -0.256 N 
HETATM    2  C   UNL     1      40.767 -15.099   3.327  1.00  0.00     0.330 A 
HETATM    3  O   UNL     1      40.401 -13.994   3.685  1.00  0.00    -0.246 OA
HETATM    4  N   UNL     1      41.656 -15.901   4.018  1.00  0.00    -0.303 N 
HETATM    5  C   UNL     1      41.953 -17.036   3.307  1.00  0.00     0.122 A 
HETATM    6  C   UNL     1      42.848 -17.959   3.685  1.00  0.00     0.077 A 
HETATM    7  C   UNL     1      43.662 -17.732   4.937  1.00  0.00     0.259 A 
HETATM    8  O   UNL     1      43.564 -16.807   5.723  1.00  0.00    -0.267 OA
HETATM    9  N   UNL     1      44.558 -18.780   4.988  1.00  0.00    -0.322 N 
HETATM   10  C   UNL     1      43.327 -19.218   3.095  1.00  0.00     0.009 A 
HETATM   11  C   UNL     1      44.371 -19.655   3.924  1.00  0.00     0.046 A 
HETATM   12  C   UNL     1      45.085 -20.816   3.695  1.00  0.00     0.030 A 
HETATM   13  C   UNL     1      44.722 -21.582   2.590  1.00  0.00     0.002 A 
HETATM   14  C   UNL     1      43.664 -21.177   1.759  1.00  0.00     0.001 A 
HETATM   15  C   UNL     1      42.959 -19.991   2.009  1.00  0.00     0.015 A 
HETATM   16  C   UNL     1      41.126 -16.941   2.062  1.00  0.00     0.280 A 
HETATM   17  O   UNL     1      41.063 -17.725   1.131  1.00  0.00    -0.265 OA
HETATM   18  H   UNL     1      42.090 -15.636   4.899  1.00  0.00     0.171 HD
HETATM   19  H   UNL     1      45.243 -18.882   5.722  1.00  0.00     0.169 HD
ENDROOT
BRANCH   1  20
HETATM   20  C   UNL     1      39.707 -15.140   1.080  1.00  0.00     0.240 C 
BRANCH  20  21
HETATM   21  C   UNL     1      40.587 -14.569  -0.032  1.00  0.00     0.240 C 
HETATM   22  N   UNL     1      40.776 -13.198   0.069  1.00  0.00    -0.326 N 
HETATM   23  H   UNL     1      40.508 -12.760   0.949  1.00  0.00     0.169 HD
HETATM   24  O   UNL     1      40.972 -15.284  -0.953  1.00  0.00    -0.271 OA
BRANCH  22  25
HETATM   25  C   UNL     1      41.242 -12.323  -0.935  1.00  0.00     0.034 A 
HETATM   26  C   UNL     1      40.353 -12.003  -1.968  1.00  0.00     0.030 A 
HETATM   27  C   UNL     1      40.763 -11.207  -3.043  1.00  0.00     0.009 A 
HETATM   28  C   UNL     1      42.076 -10.733  -3.112  1.00  0.00    -0.062 A 
HETATM   29  C   UNL     1      42.532  -9.887  -4.264  1.00  0.00     0.048 C 
HETATM   30  C   UNL     1      42.955 -11.028  -2.066  1.00  0.00     0.009 A 
HETATM   31  C   UNL     1      42.541 -11.818  -0.986  1.00  0.00     0.030 A 
ENDBRANCH  22  25
ENDBRANCH  20  21
ENDBRANCH   1  20
TORSDOF 3
ENDMDL
MODEL 7
REMARK VINA RESULT:      -9.0      1.736      7.401
REMARK  3 active torsions:
REMARK  status: ('A' for Active; 'I' for Inactive)
REMARK    1  A    between atoms: C_5  and  N_6 
REMARK       I    between atoms: N_6  and  C_7 
REMARK    2  A    between atoms: C_7  and  C_8 
REMARK    3  A    between atoms: C_8  and  N_9 
ROOT
HETATM    1  N   UNL     1      42.032 -15.195   4.374  1.00  0.00    -0.256 N 
HETATM    2  C   UNL     1      42.757 -15.090   5.539  1.00  0.00     0.330 A 
HETATM    3  O   UNL     1      42.846 -14.124   6.276  1.00  0.00    -0.246 OA
HETATM    4  N   UNL     1      43.442 -16.279   5.705  1.00  0.00    -0.303 N 
HETATM    5  C   UNL     1      43.215 -17.132   4.654  1.00  0.00     0.122 A 
HETATM    6  C   UNL     1      43.808 -18.323   4.498  1.00  0.00     0.077 A 
HETATM    7  C   UNL     1      44.865 -18.759   5.486  1.00  0.00     0.259 A 
HETATM    8  O   UNL     1      45.221 -18.173   6.492  1.00  0.00    -0.267 OA
HETATM    9  N   UNL     1      45.359 -19.950   4.993  1.00  0.00    -0.322 N 
HETATM   10  C   UNL     1      43.731 -19.375   3.473  1.00  0.00     0.009 A 
HETATM   11  C   UNL     1      44.705 -20.322   3.824  1.00  0.00     0.046 A 
HETATM   12  C   UNL     1      44.943 -21.470   3.094  1.00  0.00     0.030 A 
HETATM   13  C   UNL     1      44.155 -21.686   1.966  1.00  0.00     0.002 A 
HETATM   14  C   UNL     1      43.157 -20.763   1.608  1.00  0.00     0.001 A 
HETATM   15  C   UNL     1      42.939 -19.602   2.362  1.00  0.00     0.015 A 
HETATM   16  C   UNL     1      42.254 -16.403   3.765  1.00  0.00     0.280 A 
HETATM   17  O   UNL     1      41.769 -16.771   2.710  1.00  0.00    -0.265 OA
HETATM   18  H   UNL     1      44.090 -16.456   6.468  1.00  0.00     0.171 HD
HETATM   19  H   UNL     1      46.093 -20.470   5.450  1.00  0.00     0.169 HD
ENDROOT
BRANCH   1  20
HETATM   20  C   UNL     1      41.354 -14.077   3.755  1.00  0.00     0.240 C 
BRANCH  20  21
HETATM   21  C   UNL     1      42.121 -13.448   2.592  1.00  0.00     0.240 C 
HETATM   22  N   UNL     1      41.302 -13.069   1.538  1.00  0.00    -0.326 N 
HETATM   23  H   UNL     1      40.300 -13.043   1.719  1.00  0.00     0.169 HD
HETATM   24  O   UNL     1      43.348 -13.407   2.603  1.00  0.00    -0.271 OA
BRANCH  22  25
HETATM   25  C   UNL     1      41.694 -12.771   0.216  1.00  0.00     0.034 A 
HETATM   26  C   UNL     1      42.137 -11.469  -0.042  1.00  0.00     0.030 A 
HETATM   27  C   UNL     1      42.466 -11.070  -1.343  1.00  0.00     0.009 A 
HETATM   28  C   UNL     1      42.340 -11.964  -2.410  1.00  0.00    -0.062 A 
HETATM   29  C   UNL     1      42.681 -11.547  -3.810  1.00  0.00     0.048 C 
HETATM   30  C   UNL     1      41.927 -13.273  -2.147  1.00  0.00     0.009 A 
HETATM   31  C   UNL     1      41.605 -13.673  -0.844  1.00  0.00     0.030 A 
ENDBRANCH  22  25
ENDBRANCH  20  21
ENDBRANCH   1  20
TORSDOF 3
ENDMDL
MODEL 8
REMARK VINA RESULT:      -8.9      1.738      7.472
REMARK  3 active torsions:
REMARK  status: ('A' for Active; 'I' for Inactive)
REMARK    1  A    between atoms: C_5  and  N_6 
REMARK       I    between atoms: N_6  and  C_7 
REMARK    2  A    between atoms: C_7  and  C_8 
REMARK    3  A    between atoms: C_8  and  N_9 
ROOT
HETATM    1  N   UNL     1      41.262 -14.940   3.537  1.00  0.00    -0.256 N 
HETATM    2  C   UNL     1      41.812 -14.575   4.744  1.00  0.00     0.330 A 
HETATM    3  O   UNL     1      41.689 -13.512   5.327  1.00  0.00    -0.246 OA
HETATM    4  N   UNL     1      42.606 -15.624   5.168  1.00  0.00    -0.303 N 
HETATM    5  C   UNL     1      42.621 -16.638   4.243  1.00  0.00     0.122 A 
HETATM    6  C   UNL     1      43.367 -17.747   4.341  1.00  0.00     0.077 A 
HETATM    7  C   UNL     1      44.330 -17.892   5.495  1.00  0.00     0.259 A 
HETATM    8  O   UNL     1      44.481 -17.128   6.431  1.00  0.00    -0.267 OA
HETATM    9  N   UNL     1      45.023 -19.061   5.251  1.00  0.00    -0.322 N 
HETATM   10  C   UNL     1      43.548 -18.932   3.490  1.00  0.00     0.009 A 
HETATM   11  C   UNL     1      44.574 -19.679   4.089  1.00  0.00     0.046 A 
HETATM   12  C   UNL     1      45.040 -20.875   3.578  1.00  0.00     0.030 A 
HETATM   13  C   UNL     1      44.436 -21.352   2.417  1.00  0.00     0.002 A 
HETATM   14  C   UNL     1      43.390 -20.634   1.812  1.00  0.00     0.001 A 
HETATM   15  C   UNL     1      42.940 -19.419   2.347  1.00  0.00     0.015 A 
HETATM   16  C   UNL     1      41.703 -16.180   3.151  1.00  0.00     0.280 A 
HETATM   17  O   UNL     1      41.406 -16.754   2.119  1.00  0.00    -0.265 OA
HETATM   18  H   UNL     1      43.167 -15.602   6.016  1.00  0.00     0.171 HD
HETATM   19  H   UNL     1      45.747 -19.407   5.862  1.00  0.00     0.169 HD
ENDROOT
BRANCH   1  20
HETATM   20  C   UNL     1      40.542 -14.023   2.680  1.00  0.00     0.240 C 
BRANCH  20  21
HETATM   21  C   UNL     1      41.424 -13.287   1.672  1.00  0.00     0.240 C 
HETATM   22  N   UNL     1      40.744 -12.905   0.525  1.00  0.00    -0.326 N 
HETATM   23  H   UNL     1      39.726 -12.953   0.555  1.00  0.00     0.169 HD
HETATM   24  O   UNL     1      42.630 -13.168   1.869  1.00  0.00    -0.271 OA
BRANCH  22  25
HETATM   25  C   UNL     1      41.303 -12.514  -0.710  1.00  0.00     0.034 A 
HETATM   26  C   UNL     1      41.170 -11.170  -1.075  1.00  0.00     0.030 A 
HETATM   27  C   UNL     1      41.625 -10.718  -2.319  1.00  0.00     0.009 A 
HETATM   28  C   UNL     1      42.204 -11.609  -3.227  1.00  0.00    -0.062 A 
HETATM   29  C   UNL     1      42.687 -11.141  -4.567  1.00  0.00     0.048 C 
HETATM   30  C   UNL     1      42.364 -12.946  -2.850  1.00  0.00     0.009 A 
HETATM   31  C   UNL     1      41.915 -13.395  -1.601  1.00  0.00     0.030 A 
ENDBRANCH  22  25
ENDBRANCH  20  21
ENDBRANCH   1  20
TORSDOF 3
ENDMDL
MODEL 9
REMARK VINA RESULT:      -8.8      3.187      3.883
REMARK  3 active torsions:
REMARK  status: ('A' for Active; 'I' for Inactive)
REMARK    1  A    between atoms: C_5  and  N_6 
REMARK       I    between atoms: N_6  and  C_7 
REMARK    2  A    between atoms: C_7  and  C_8 
REMARK    3  A    between atoms: C_8  and  N_9 
ROOT
HETATM    1  N   UNL     1      43.495 -15.722   6.789  1.00  0.00    -0.256 N 
HETATM    2  C   UNL     1      43.862 -14.429   7.083  1.00  0.00     0.330 A 
HETATM    3  O   UNL     1      44.585 -14.049   7.987  1.00  0.00    -0.246 OA
HETATM    4  N   UNL     1      43.201 -13.602   6.196  1.00  0.00    -0.303 N 
HETATM    5  C   UNL     1      42.380 -14.322   5.365  1.00  0.00     0.122 A 
HETATM    6  C   UNL     1      41.552 -13.785   4.459  1.00  0.00     0.077 A 
HETATM    7  C   UNL     1      41.429 -12.282   4.368  1.00  0.00     0.259 A 
HETATM    8  O   UNL     1      42.060 -11.450   4.995  1.00  0.00    -0.267 OA
HETATM    9  N   UNL     1      40.431 -12.051   3.443  1.00  0.00    -0.322 N 
HETATM   10  C   UNL     1      40.597 -14.345   3.492  1.00  0.00     0.009 A 
HETATM   11  C   UNL     1      39.941 -13.243   2.922  1.00  0.00     0.046 A 
HETATM   12  C   UNL     1      38.957 -13.361   1.959  1.00  0.00     0.030 A 
HETATM   13  C   UNL     1      38.627 -14.647   1.537  1.00  0.00     0.002 A 
HETATM   14  C   UNL     1      39.287 -15.764   2.076  1.00  0.00     0.001 A 
HETATM   15  C   UNL     1      40.278 -15.618   3.057  1.00  0.00     0.015 A 
HETATM   16  C   UNL     1      42.590 -15.752   5.759  1.00  0.00     0.280 A 
HETATM   17  O   UNL     1      42.070 -16.751   5.294  1.00  0.00    -0.265 OA
HETATM   18  H   UNL     1      43.260 -12.587   6.218  1.00  0.00     0.171 HD
HETATM   19  H   UNL     1      40.125 -11.124   3.186  1.00  0.00     0.169 HD
ENDROOT
BRANCH   1  20
HETATM   20  C   UNL     1      43.816 -16.853   7.632  1.00  0.00     0.240 C 
BRANCH  20  21
HETATM   21  C   UNL     1      43.800 -18.198   6.905  1.00  0.00     0.240 C 
HETATM   22  N   UNL     1      44.594 -18.215   5.768  1.00  0.00    -0.326 N 
HETATM   23  H   UNL     1      45.250 -17.443   5.653  1.00  0.00     0.169 HD
HETATM   24  O   UNL     1      43.057 -19.101   7.280  1.00  0.00    -0.271 OA
BRANCH  22  25
HETATM   25  C   UNL     1      44.556 -19.150   4.713  1.00  0.00     0.034 A 
HETATM   26  C   UNL     1      44.061 -18.706   3.481  1.00  0.00     0.030 A 
HETATM   27  C   UNL     1      43.915 -19.592   2.408  1.00  0.00     0.009 A 
HETATM   28  C   UNL     1      44.245 -20.942   2.554  1.00  0.00    -0.062 A 
HETATM   29  C   UNL     1      44.085 -21.904   1.414  1.00  0.00     0.048 C 
HETATM   30  C   UNL     1      44.768 -21.379   3.775  1.00  0.00     0.009 A 
HETATM   31  C   UNL     1      44.921 -20.490   4.846  1.00  0.00     0.030 A 
ENDBRANCH  22  25
ENDBRANCH  20  21
ENDBRANCH   1  20
TORSDOF 3
ENDMDL
MODEL 10
REMARK VINA RESULT:      -8.8      2.551      8.017
REMARK  3 active torsions:
REMARK  status: ('A' for Active; 'I' for Inactive)
REMARK    1  A    between atoms: C_5  and  N_6 
REMARK       I    between atoms: N_6  and  C_7 
REMARK    2  A    between atoms: C_7  and  C_8 
REMARK    3  A    between atoms: C_8  and  N_9 
ROOT
HETATM    1  N   UNL     1      40.499 -14.788   2.106  1.00  0.00    -0.256 N 
HETATM    2  C   UNL     1      40.025 -14.500   3.364  1.00  0.00     0.330 A 
HETATM    3  O   UNL     1      39.340 -13.549   3.701  1.00  0.00    -0.246 OA
HETATM    4  N   UNL     1      40.523 -15.461   4.222  1.00  0.00    -0.303 N 
HETATM    5  C   UNL     1      41.346 -16.337   3.560  1.00  0.00     0.122 A 
HETATM    6  C   UNL     1      42.038 -17.323   4.146  1.00  0.00     0.077 A 
HETATM    7  C   UNL     1      41.997 -17.465   5.649  1.00  0.00     0.259 A 
HETATM    8  O   UNL     1      41.334 -16.811   6.434  1.00  0.00    -0.267 OA
HETATM    9  N   UNL     1      42.888 -18.475   5.948  1.00  0.00    -0.322 N 
HETATM   10  C   UNL     1      42.966 -18.351   3.652  1.00  0.00     0.009 A 
HETATM   11  C   UNL     1      43.456 -19.003   4.794  1.00  0.00     0.046 A 
HETATM   12  C   UNL     1      44.367 -20.041   4.742  1.00  0.00     0.030 A 
HETATM   13  C   UNL     1      44.794 -20.454   3.482  1.00  0.00     0.002 A 
HETATM   14  C   UNL     1      44.299 -19.832   2.323  1.00  0.00     0.001 A 
HETATM   15  C   UNL     1      43.380 -18.776   2.403  1.00  0.00     0.015 A 
HETATM   16  C   UNL     1      41.317 -15.889   2.131  1.00  0.00     0.280 A 
HETATM   17  O   UNL     1      41.900 -16.368   1.174  1.00  0.00    -0.265 OA
HETATM   18  H   UNL     1      40.361 -15.462   5.226  1.00  0.00     0.171 HD
HETATM   19  H   UNL     1      43.075 -18.782   6.891  1.00  0.00     0.169 HD
ENDROOT
BRANCH   1  20
HETATM   20  C   UNL     1      40.367 -13.891   0.978  1.00  0.00     0.240 C 
BRANCH  20  21
HETATM   21  C   UNL     1      39.131 -14.150   0.116  1.00  0.00     0.240 C 
HETATM   22  N   UNL     1      39.406 -14.166  -1.243  1.00  0.00    -0.326 N 
HETATM   23  H   UNL     1      40.387 -14.221  -1.514  1.00  0.00     0.169 HD
HETATM   24  O   UNL     1      38.018 -14.225   0.628  1.00  0.00    -0.271 OA
BRANCH  22  25
HETATM   25  C   UNL     1      38.482 -14.052  -2.303  1.00  0.00     0.034 A 
HETATM   26  C   UNL     1      37.921 -12.790  -2.530  1.00  0.00     0.030 A 
HETATM   27  C   UNL     1      36.937 -12.611  -3.509  1.00  0.00     0.009 A 
HETATM   28  C   UNL     1      36.485 -13.696  -4.266  1.00  0.00    -0.062 A 
HETATM   29  C   UNL     1      35.425 -13.519  -5.312  1.00  0.00     0.048 C 
HETATM   30  C   UNL     1      37.068 -14.950  -4.060  1.00  0.00     0.009 A 
HETATM   31  C   UNL     1      38.058 -15.127  -3.085  1.00  0.00     0.030 A 
ENDBRANCH  22  25
ENDBRANCH  20  21
ENDBRANCH   1  20
TORSDOF 3
ENDMDL
