MODEL 1
REMARK VINA RESULT:      -8.4      0.000      0.000
REMARK  7 active torsions:
REMARK  status: ('A' for Active; 'I' for Inactive)
REMARK    1  A    between atoms: C_3  and  N_4 
REMARK       I    between atoms: N_4  and  C_5 
REMARK    2  A    between atoms: C_5  and  C_6 
REMARK    3  A    between atoms: C_7  and  C_8 
REMARK    4  A    between atoms: C_19  and  C_20 
REMARK    5  A    between atoms: C_20  and  C_21 
REMARK    6  A    between atoms: C_21  and  C_22 
REMARK    7  A    between atoms: C_22  and  O_23 
ROOT
HETATM    1  C   UNL     1      42.120 -15.948   2.276  1.00  0.00     0.062 A 
HETATM    2  C   UNL     1      42.206 -14.907   3.385  1.00  0.00     0.202 A 
HETATM    3  N   UNL     1      41.030 -14.027   3.384  1.00  0.00    -0.083 N 
HETATM    4  C   UNL     1      40.031 -14.087   2.450  1.00  0.00     0.726 A 
HETATM    5  N   UNL     1      40.091 -15.013   1.476  1.00  0.00    -0.192 N 
HETATM    6  N   UNL     1      40.847 -12.990   4.230  1.00  0.00    -0.140 NA
HETATM    7  C   UNL     1      39.662 -12.527   3.804  1.00  0.00     0.166 A 
HETATM    8  N   UNL     1      39.143 -13.161   2.701  1.00  0.00    -0.046 NA
HETATM    9  C   UNL     1      41.095 -15.968   1.389  1.00  0.00     0.037 A 
HETATM   10  C   UNL     1      40.952 -16.973   0.274  1.00  0.00     0.070 C 
HETATM   11  H   UNL     1      39.314 -15.084   0.823  1.00  0.00     0.184 HD
ENDROOT
BRANCH   1  12
HETATM   12  C   UNL     1      43.135 -17.032   2.274  1.00  0.00     0.256 C 
HETATM   13  N   UNL     1      42.625 -18.248   2.675  1.00  0.00    -0.323 N 
HETATM   14  H   UNL     1      41.667 -18.264   2.993  1.00  0.00     0.169 HD
HETATM   15  O   UNL     1      44.286 -16.765   1.953  1.00  0.00    -0.267 OA
BRANCH  13  16
HETATM   16  C   UNL     1      43.313 -19.487   2.733  1.00  0.00     0.041 A 
HETATM   17  C   UNL     1      44.195 -19.730   3.809  1.00  0.00    -0.035 A 
HETATM   18  C   UNL     1      44.430 -18.728   4.908  1.00  0.00     0.050 C 
HETATM   19  C   UNL     1      44.876 -20.960   3.881  1.00  0.00     0.009 A 
HETATM   20  C   UNL     1      44.696 -21.937   2.906  1.00  0.00     0.001 A 
HETATM   21  C   UNL     1      43.827 -21.700   1.849  1.00  0.00     0.002 A 
HETATM   22  C   UNL     1      43.141 -20.486   1.765  1.00  0.00     0.030 A 
ENDBRANCH  13  16
ENDBRANCH   1  12
BRANCH   2  23
HETATM   23  C   UNL     1      42.436 -15.494   4.771  1.00  0.00    -0.025 A 
HETATM   24  C   UNL     1      43.586 -15.139   5.497  1.00  0.00     0.052 A 
HETATM   25  C   UNL     1      43.812 -15.681   6.758  1.00  0.00     0.117 A 
HETATM   26  F   UNL     1      44.915 -15.332   7.434  1.00  0.00    -0.206 F 
HETATM   27  C   UNL     1      42.916 -16.577   7.324  1.00  0.00     0.042 A 
HETATM   28  C   UNL     1      41.768 -16.934   6.620  1.00  0.00     0.004 A 
HETATM   29  C   UNL     1      41.527 -16.396   5.353  1.00  0.00     0.010 A 
ENDBRANCH   2  23
BRANCH   7  30
HETATM   30  C   UNL     1      38.946 -11.416   4.482  1.00  0.00     0.085 C 
BRANCH  30  31
HETATM   31  C   UNL     1      39.821 -10.662   5.481  1.00  0.00     0.034 C 
BRANCH  31  32
HETATM   32  C   UNL     1      39.584 -11.089   6.925  1.00  0.00     0.164 C 
BRANCH  32  33
HETATM   33  O   UNL     1      40.279 -12.305   7.182  1.00  0.00    -0.401 OA
HETATM   34  H   UNL     1      39.959 -12.652   8.032  1.00  0.00     0.209 HD
ENDBRANCH  32  33
ENDBRANCH  31  32
ENDBRANCH  30  31
ENDBRANCH   7  30
TORSDOF 7
ENDMDL
MODEL 2
REMARK VINA RESULT:      -8.0      2.399      4.128
REMARK  7 active torsions:
REMARK  status: ('A' for Active; 'I' for Inactive)
REMARK    1  A    between atoms: C_3  and  N_4 
REMARK       I    between atoms: N_4  and  C_5 
REMARK    2  A    between atoms: C_5  and  C_6 
REMARK    3  A    between atoms: C_7  and  C_8 
REMARK    4  A    between atoms: C_19  and  C_20 
REMARK    5  A    between atoms: C_20  and  C_21 
REMARK    6  A    between atoms: C_21  and  C_22 
REMARK    7  A    between atoms: C_22  and  O_23 
ROOT
HETATM    1  C   UNL     1      42.036 -15.474   5.477  1.00  0.00     0.062 A 
HETATM    2  C   UNL     1      40.914 -14.583   4.957  1.00  0.00     0.202 A 
HETATM    3  N   UNL     1      41.109 -13.185   5.364  1.00  0.00    -0.083 N 
HETATM    4  C   UNL     1      42.125 -12.760   6.178  1.00  0.00     0.726 A 
HETATM    5  N   UNL     1      43.029 -13.650   6.628  1.00  0.00    -0.192 N 
HETATM    6  N   UNL     1      40.257 -12.177   5.079  1.00  0.00    -0.140 NA
HETATM    7  C   UNL     1      40.878 -11.149   5.677  1.00  0.00     0.166 A 
HETATM    8  N   UNL     1      42.015 -11.474   6.378  1.00  0.00    -0.046 NA
HETATM    9  C   UNL     1      43.026 -14.991   6.267  1.00  0.00     0.037 A 
HETATM   10  C   UNL     1      44.164 -15.819   6.809  1.00  0.00     0.070 C 
HETATM   11  H   UNL     1      43.810 -13.312   7.184  1.00  0.00     0.184 HD
ENDROOT
BRANCH   1  12
HETATM   12  C   UNL     1      42.085 -16.873   4.982  1.00  0.00     0.256 C 
HETATM   13  N   UNL     1      43.210 -17.139   4.232  1.00  0.00    -0.323 N 
HETATM   14  H   UNL     1      43.826 -16.365   4.035  1.00  0.00     0.169 HD
HETATM   15  O   UNL     1      41.160 -17.628   5.251  1.00  0.00    -0.267 OA
BRANCH  13  16
HETATM   16  C   UNL     1      43.583 -18.383   3.662  1.00  0.00     0.041 A 
HETATM   17  C   UNL     1      43.076 -18.732   2.389  1.00  0.00    -0.035 A 
HETATM   18  C   UNL     1      42.161 -17.829   1.606  1.00  0.00     0.050 C 
HETATM   19  C   UNL     1      43.447 -19.959   1.810  1.00  0.00     0.009 A 
HETATM   20  C   UNL     1      44.301 -20.837   2.474  1.00  0.00     0.001 A 
HETATM   21  C   UNL     1      44.800 -20.494   3.724  1.00  0.00     0.002 A 
HETATM   22  C   UNL     1      44.445 -19.277   4.310  1.00  0.00     0.030 A 
ENDBRANCH  13  16
ENDBRANCH   1  12
BRANCH   2  23
HETATM   23  C   UNL     1      40.692 -14.679   3.454  1.00  0.00    -0.025 A 
HETATM   24  C   UNL     1      41.648 -14.148   2.572  1.00  0.00     0.052 A 
HETATM   25  C   UNL     1      41.448 -14.219   1.198  1.00  0.00     0.117 A 
HETATM   26  F   UNL     1      42.370 -13.705   0.372  1.00  0.00    -0.206 F 
HETATM   27  C   UNL     1      40.309 -14.810   0.669  1.00  0.00     0.042 A 
HETATM   28  C   UNL     1      39.353 -15.347   1.530  1.00  0.00     0.004 A 
HETATM   29  C   UNL     1      39.543 -15.285   2.913  1.00  0.00     0.010 A 
ENDBRANCH   2  23
BRANCH   7  30
HETATM   30  C   UNL     1      40.387  -9.750   5.578  1.00  0.00     0.085 C 
BRANCH  30  31
HETATM   31  C   UNL     1      39.733  -9.441   4.233  1.00  0.00     0.034 C 
BRANCH  31  32
HETATM   32  C   UNL     1      38.214  -9.336   4.317  1.00  0.00     0.164 C 
BRANCH  32  33
HETATM   33  O   UNL     1      37.651 -10.642   4.394  1.00  0.00    -0.401 OA
HETATM   34  H   UNL     1      37.538 -10.859   5.335  1.00  0.00     0.209 HD
ENDBRANCH  32  33
ENDBRANCH  31  32
ENDBRANCH  30  31
ENDBRANCH   7  30
TORSDOF 7
ENDMDL
MODEL 3
REMARK VINA RESULT:      -7.7      3.152      6.007
REMARK  7 active torsions:
REMARK  status: ('A' for Active; 'I' for Inactive)
REMARK    1  A    between atoms: C_3  and  N_4 
REMARK       I    between atoms: N_4  and  C_5 
REMARK    2  A    between atoms: C_5  and  C_6 
REMARK    3  A    between atoms: C_7  and  C_8 
REMARK    4  A    between atoms: C_19  and  C_20 
REMARK    5  A    between atoms: C_20  and  C_21 
REMARK    6  A    between atoms: C_21  and  C_22 
REMARK    7  A    between atoms: C_22  and  O_23 
ROOT
HETATM    1  C   UNL     1      41.091 -14.082   2.762  1.00  0.00     0.062 A 
HETATM    2  C   UNL     1      42.486 -14.582   3.118  1.00  0.00     0.202 A 
HETATM    3  N   UNL     1      42.901 -14.108   4.445  1.00  0.00    -0.083 N 
HETATM    4  C   UNL     1      42.161 -13.256   5.219  1.00  0.00     0.726 A 
HETATM    5  N   UNL     1      40.964 -12.830   4.775  1.00  0.00    -0.192 N 
HETATM    6  N   UNL     1      44.102 -14.363   5.010  1.00  0.00    -0.140 NA
HETATM    7  C   UNL     1      43.975 -13.707   6.172  1.00  0.00     0.166 A 
HETATM    8  N   UNL     1      42.806 -13.000   6.326  1.00  0.00    -0.046 NA
HETATM    9  C   UNL     1      40.398 -13.252   3.579  1.00  0.00     0.037 A 
HETATM   10  C   UNL     1      39.015 -12.726   3.286  1.00  0.00     0.070 C 
HETATM   11  H   UNL     1      40.399 -12.244   5.385  1.00  0.00     0.184 HD
ENDROOT
BRANCH   1  12
HETATM   12  C   UNL     1      40.454 -14.640   1.543  1.00  0.00     0.256 C 
HETATM   13  N   UNL     1      40.894 -14.040   0.383  1.00  0.00    -0.323 N 
HETATM   14  H   UNL     1      41.523 -13.257   0.479  1.00  0.00     0.169 HD
HETATM   15  O   UNL     1      39.619 -15.527   1.665  1.00  0.00    -0.267 OA
BRANCH  13  16
HETATM   16  C   UNL     1      40.526 -14.374  -0.945  1.00  0.00     0.041 A 
HETATM   17  C   UNL     1      39.545 -13.594  -1.600  1.00  0.00    -0.035 A 
HETATM   18  C   UNL     1      38.878 -12.414  -0.945  1.00  0.00     0.050 C 
HETATM   19  C   UNL     1      39.178 -13.911  -2.921  1.00  0.00     0.009 A 
HETATM   20  C   UNL     1      39.764 -14.983  -3.590  1.00  0.00     0.001 A 
HETATM   21  C   UNL     1      40.729 -15.747  -2.949  1.00  0.00     0.002 A 
HETATM   22  C   UNL     1      41.107 -15.443  -1.639  1.00  0.00     0.030 A 
ENDBRANCH  13  16
ENDBRANCH   1  12
BRANCH   2  23
HETATM   23  C   UNL     1      42.649 -16.093   3.012  1.00  0.00    -0.025 A 
HETATM   24  C   UNL     1      43.249 -16.651   1.870  1.00  0.00     0.052 A 
HETATM   25  C   UNL     1      43.390 -18.030   1.758  1.00  0.00     0.117 A 
HETATM   26  F   UNL     1      43.963 -18.544   0.661  1.00  0.00    -0.206 F 
HETATM   27  C   UNL     1      42.945 -18.880   2.761  1.00  0.00     0.042 A 
HETATM   28  C   UNL     1      42.354 -18.342   3.902  1.00  0.00     0.004 A 
HETATM   29  C   UNL     1      42.208 -16.958   4.030  1.00  0.00     0.010 A 
ENDBRANCH   2  23
BRANCH   7  30
HETATM   30  C   UNL     1      45.013 -13.752   7.234  1.00  0.00     0.085 C 
BRANCH  30  31
HETATM   31  C   UNL     1      44.739 -12.778   8.378  1.00  0.00     0.034 C 
BRANCH  31  32
HETATM   32  C   UNL     1      46.002 -12.105   8.905  1.00  0.00     0.164 C 
BRANCH  32  33
HETATM   33  O   UNL     1      45.768 -10.710   9.062  1.00  0.00    -0.401 OA
HETATM   34  H   UNL     1      44.890 -10.515   8.692  1.00  0.00     0.209 HD
ENDBRANCH  32  33
ENDBRANCH  31  32
ENDBRANCH  30  31
ENDBRANCH   7  30
TORSDOF 7
ENDMDL
MODEL 4
REMARK VINA RESULT:      -7.7      3.357      4.855
REMARK  7 active torsions:
REMARK  status: ('A' for Active; 'I' for Inactive)
REMARK    1  A    between atoms: C_3  and  N_4 
REMARK       I    between atoms: N_4  and  C_5 
REMARK    2  A    between atoms: C_5  and  C_6 
REMARK    3  A    between atoms: C_7  and  C_8 
REMARK    4  A    between atoms: C_19  and  C_20 
REMARK    5  A    between atoms: C_20  and  C_21 
REMARK    6  A    between atoms: C_21  and  C_22 
REMARK    7  A    between atoms: C_22  and  O_23 
ROOT
HETATM    1  C   UNL     1      42.043 -15.244   2.250  1.00  0.00     0.062 A 
HETATM    2  C   UNL     1      42.313 -13.745   2.256  1.00  0.00     0.202 A 
HETATM    3  N   UNL     1      42.219 -13.180   0.903  1.00  0.00    -0.083 N 
HETATM    4  C   UNL     1      42.002 -13.926  -0.224  1.00  0.00     0.726 A 
HETATM    5  N   UNL     1      41.836 -15.257  -0.115  1.00  0.00    -0.192 N 
HETATM    6  N   UNL     1      42.445 -11.884   0.595  1.00  0.00    -0.140 NA
HETATM    7  C   UNL     1      42.250 -11.905  -0.731  1.00  0.00     0.166 A 
HETATM    8  N   UNL     1      41.998 -13.143  -1.271  1.00  0.00    -0.046 NA
HETATM    9  C   UNL     1      41.816 -15.927   1.101  1.00  0.00     0.037 A 
HETATM   10  C   UNL     1      41.539 -17.408   1.030  1.00  0.00     0.070 C 
HETATM   11  H   UNL     1      41.618 -15.790  -0.952  1.00  0.00     0.184 HD
ENDROOT
BRANCH   1  12
HETATM   12  C   UNL     1      41.904 -15.920   3.565  1.00  0.00     0.256 C 
HETATM   13  N   UNL     1      43.115 -16.258   4.127  1.00  0.00    -0.323 N 
HETATM   14  H   UNL     1      43.943 -16.090   3.575  1.00  0.00     0.169 HD
HETATM   15  O   UNL     1      40.781 -16.128   4.007  1.00  0.00    -0.267 OA
BRANCH  13  16
HETATM   16  C   UNL     1      43.332 -16.862   5.392  1.00  0.00     0.041 A 
HETATM   17  C   UNL     1      43.716 -18.221   5.444  1.00  0.00    -0.035 A 
HETATM   18  C   UNL     1      43.914 -19.056   4.207  1.00  0.00     0.050 C 
HETATM   19  C   UNL     1      43.943 -18.828   6.694  1.00  0.00     0.009 A 
HETATM   20  C   UNL     1      43.791 -18.110   7.877  1.00  0.00     0.001 A 
HETATM   21  C   UNL     1      43.416 -16.775   7.826  1.00  0.00     0.002 A 
HETATM   22  C   UNL     1      43.191 -16.157   6.594  1.00  0.00     0.030 A 
ENDBRANCH  13  16
ENDBRANCH   1  12
BRANCH   2  23
HETATM   23  C   UNL     1      41.440 -12.960   3.227  1.00  0.00    -0.025 A 
HETATM   24  C   UNL     1      42.016 -12.384   4.372  1.00  0.00     0.052 A 
HETATM   25  C   UNL     1      41.225 -11.678   5.272  1.00  0.00     0.117 A 
HETATM   26  F   UNL     1      41.791 -11.136   6.359  1.00  0.00    -0.206 F 
HETATM   27  C   UNL     1      39.861 -11.527   5.063  1.00  0.00     0.042 A 
HETATM   28  C   UNL     1      39.276 -12.088   3.929  1.00  0.00     0.004 A 
HETATM   29  C   UNL     1      40.059 -12.798   3.015  1.00  0.00     0.010 A 
ENDBRANCH   2  23
BRANCH   7  30
HETATM   30  C   UNL     1      42.284 -10.676  -1.565  1.00  0.00     0.085 C 
BRANCH  30  31
HETATM   31  C   UNL     1      43.624  -9.946  -1.498  1.00  0.00     0.034 C 
BRANCH  31  32
HETATM   32  C   UNL     1      43.542  -8.613  -0.761  1.00  0.00     0.164 C 
BRANCH  32  33
HETATM   33  O   UNL     1      43.280  -8.848   0.619  1.00  0.00    -0.401 OA
HETATM   34  H   UNL     1      44.135  -8.889   1.078  1.00  0.00     0.209 HD
ENDBRANCH  32  33
ENDBRANCH  31  32
ENDBRANCH  30  31
ENDBRANCH   7  30
TORSDOF 7
ENDMDL
MODEL 5
REMARK VINA RESULT:      -7.7      2.626      4.330
REMARK  7 active torsions:
REMARK  status: ('A' for Active; 'I' for Inactive)
REMARK    1  A    between atoms: C_3  and  N_4 
REMARK       I    between atoms: N_4  and  C_5 
REMARK    2  A    between atoms: C_5  and  C_6 
REMARK    3  A    between atoms: C_7  and  C_8 
REMARK    4  A    between atoms: C_19  and  C_20 
REMARK    5  A    between atoms: C_20  and  C_21 
REMARK    6  A    between atoms: C_21  and  C_22 
REMARK    7  A    between atoms: C_22  and  O_23 
ROOT
HETATM    1  C   UNL     1      42.057 -15.936   5.299  1.00  0.00     0.062 A 
HETATM    2  C   UNL     1      41.114 -15.248   4.320  1.00  0.00     0.202 A 
HETATM    3  N   UNL     1      41.211 -13.786   4.421  1.00  0.00    -0.083 N 
HETATM    4  C   UNL     1      41.990 -13.133   5.338  1.00  0.00     0.726 A 
HETATM    5  N   UNL     1      42.740 -13.847   6.197  1.00  0.00    -0.192 N 
HETATM    6  N   UNL     1      40.469 -12.916   3.702  1.00  0.00    -0.140 NA
HETATM    7  C   UNL     1      40.926 -11.747   4.176  1.00  0.00     0.166 A 
HETATM    8  N   UNL     1      41.843 -11.842   5.195  1.00  0.00    -0.046 NA
HETATM    9  C   UNL     1      42.818 -15.234   6.174  1.00  0.00     0.037 A 
HETATM   10  C   UNL     1      43.772 -15.854   7.163  1.00  0.00     0.070 C 
HETATM   11  H   UNL     1      43.357 -13.350   6.835  1.00  0.00     0.184 HD
ENDROOT
BRANCH   1  12
HETATM   12  C   UNL     1      42.219 -17.407   5.176  1.00  0.00     0.256 C 
HETATM   13  N   UNL     1      43.448 -17.774   4.672  1.00  0.00    -0.323 N 
HETATM   14  H   UNL     1      44.064 -17.032   4.374  1.00  0.00     0.169 HD
HETATM   15  O   UNL     1      41.287 -18.133   5.497  1.00  0.00    -0.267 OA
BRANCH  13  16
HETATM   16  C   UNL     1      43.936 -19.092   4.483  1.00  0.00     0.041 A 
HETATM   17  C   UNL     1      44.179 -19.549   3.168  1.00  0.00    -0.035 A 
HETATM   18  C   UNL     1      43.949 -18.687   1.955  1.00  0.00     0.050 C 
HETATM   19  C   UNL     1      44.672 -20.852   2.969  1.00  0.00     0.009 A 
HETATM   20  C   UNL     1      44.918 -21.697   4.048  1.00  0.00     0.001 A 
HETATM   21  C   UNL     1      44.682 -21.248   5.340  1.00  0.00     0.002 A 
HETATM   22  C   UNL     1      44.196 -19.956   5.554  1.00  0.00     0.030 A 
ENDBRANCH  13  16
ENDBRANCH   1  12
BRANCH   2  23
HETATM   23  C   UNL     1      41.282 -15.699   2.875  1.00  0.00    -0.025 A 
HETATM   24  C   UNL     1      40.656 -16.878   2.435  1.00  0.00     0.052 A 
HETATM   25  C   UNL     1      40.814 -17.305   1.121  1.00  0.00     0.117 A 
HETATM   26  F   UNL     1      40.211 -18.433   0.720  1.00  0.00    -0.206 F 
HETATM   27  C   UNL     1      41.588 -16.585   0.222  1.00  0.00     0.042 A 
HETATM   28  C   UNL     1      42.211 -15.411   0.641  1.00  0.00     0.004 A 
HETATM   29  C   UNL     1      42.058 -14.968   1.957  1.00  0.00     0.010 A 
ENDBRANCH   2  23
BRANCH   7  30
HETATM   30  C   UNL     1      40.490 -10.436   3.630  1.00  0.00     0.085 C 
BRANCH  30  31
HETATM   31  C   UNL     1      39.683 -10.565   2.340  1.00  0.00     0.034 C 
BRANCH  31  32
HETATM   32  C   UNL     1      40.378  -9.937   1.136  1.00  0.00     0.164 C 
BRANCH  32  33
HETATM   33  O   UNL     1      41.789 -10.000   1.315  1.00  0.00    -0.401 OA
HETATM   34  H   UNL     1      41.969  -9.923   2.267  1.00  0.00     0.209 HD
ENDBRANCH  32  33
ENDBRANCH  31  32
ENDBRANCH  30  31
ENDBRANCH   7  30
TORSDOF 7
ENDMDL
MODEL 6
REMARK VINA RESULT:      -7.5      2.568      8.010
REMARK  7 active torsions:
REMARK  status: ('A' for Active; 'I' for Inactive)
REMARK    1  A    between atoms: C_3  and  N_4 
REMARK       I    between atoms: N_4  and  C_5 
REMARK    2  A    between atoms: C_5  and  C_6 
REMARK    3  A    between atoms: C_7  and  C_8 
REMARK    4  A    between atoms: C_19  and  C_20 
REMARK    5  A    between atoms: C_20  and  C_21 
REMARK    6  A    between atoms: C_21  and  C_22 
REMARK    7  A    between atoms: C_22  and  O_23 
ROOT
HETATM    1  C   UNL     1      43.313 -15.399   4.482  1.00  0.00     0.062 A 
HETATM    2  C   UNL     1      43.210 -16.027   3.098  1.00  0.00     0.202 A 
HETATM    3  N   UNL     1      43.371 -17.485   3.159  1.00  0.00    -0.083 N 
HETATM    4  C   UNL     1      43.661 -18.175   4.305  1.00  0.00     0.726 A 
HETATM    5  N   UNL     1      43.788 -17.506   5.466  1.00  0.00    -0.192 N 
HETATM    6  N   UNL     1      43.363 -18.304   2.085  1.00  0.00    -0.140 NA
HETATM    7  C   UNL     1      43.559 -19.492   2.675  1.00  0.00     0.166 A 
HETATM    8  N   UNL     1      43.768 -19.449   4.033  1.00  0.00    -0.046 NA
HETATM    9  C   UNL     1      43.586 -16.138   5.586  1.00  0.00     0.037 A 
HETATM   10  C   UNL     1      43.695 -15.577   6.982  1.00  0.00     0.070 C 
HETATM   11  H   UNL     1      43.946 -18.037   6.319  1.00  0.00     0.184 HD
ENDROOT
BRANCH   1  12
HETATM   12  C   UNL     1      42.973 -13.959   4.609  1.00  0.00     0.256 C 
HETATM   13  N   UNL     1      41.852 -13.736   5.379  1.00  0.00    -0.323 N 
HETATM   14  H   UNL     1      41.347 -14.547   5.704  1.00  0.00     0.169 HD
HETATM   15  O   UNL     1      43.669 -13.134   4.031  1.00  0.00    -0.267 OA
BRANCH  13  16
HETATM   16  C   UNL     1      41.296 -12.481   5.736  1.00  0.00     0.041 A 
HETATM   17  C   UNL     1      40.203 -11.981   4.994  1.00  0.00    -0.035 A 
HETATM   18  C   UNL     1      39.595 -12.733   3.840  1.00  0.00     0.050 C 
HETATM   19  C   UNL     1      39.637 -10.741   5.346  1.00  0.00     0.009 A 
HETATM   20  C   UNL     1      40.142  -9.999   6.411  1.00  0.00     0.001 A 
HETATM   21  C   UNL     1      41.215 -10.491   7.142  1.00  0.00     0.002 A 
HETATM   22  C   UNL     1      41.785 -11.722   6.807  1.00  0.00     0.030 A 
ENDBRANCH  13  16
ENDBRANCH   1  12
BRANCH   2  23
HETATM   23  C   UNL     1      41.941 -15.657   2.341  1.00  0.00    -0.025 A 
HETATM   24  C   UNL     1      42.017 -14.802   1.229  1.00  0.00     0.052 A 
HETATM   25  C   UNL     1      40.862 -14.447   0.540  1.00  0.00     0.117 A 
HETATM   26  F   UNL     1      40.952 -13.629  -0.517  1.00  0.00    -0.206 F 
HETATM   27  C   UNL     1      39.619 -14.926   0.931  1.00  0.00     0.042 A 
HETATM   28  C   UNL     1      39.528 -15.780   2.028  1.00  0.00     0.004 A 
HETATM   29  C   UNL     1      40.680 -16.146   2.728  1.00  0.00     0.010 A 
ENDBRANCH   2  23
BRANCH   7  30
HETATM   30  C   UNL     1      43.537 -20.773   1.923  1.00  0.00     0.085 C 
BRANCH  30  31
HETATM   31  C   UNL     1      44.743 -21.662   2.221  1.00  0.00     0.034 C 
BRANCH  31  32
HETATM   32  C   UNL     1      44.499 -22.633   3.371  1.00  0.00     0.164 C 
BRANCH  32  33
HETATM   33  O   UNL     1      45.021 -22.084   4.576  1.00  0.00    -0.401 OA
HETATM   34  H   UNL     1      44.481 -22.422   5.311  1.00  0.00     0.209 HD
ENDBRANCH  32  33
ENDBRANCH  31  32
ENDBRANCH  30  31
ENDBRANCH   7  30
TORSDOF 7
ENDMDL
MODEL 7
REMARK VINA RESULT:      -7.4      2.615      4.249
REMARK  7 active torsions:
REMARK  status: ('A' for Active; 'I' for Inactive)
REMARK    1  A    between atoms: C_3  and  N_4 
REMARK       I    between atoms: N_4  and  C_5 
REMARK    2  A    between atoms: C_5  and  C_6 
REMARK    3  A    between atoms: C_7  and  C_8 
REMARK    4  A    between atoms: C_19  and  C_20 
REMARK    5  A    between atoms: C_20  and  C_21 
REMARK    6  A    between atoms: C_21  and  C_22 
REMARK    7  A    between atoms: C_22  and  O_23 
ROOT
HETATM    1  C   UNL     1      42.131 -14.641   3.777  1.00  0.00     0.062 A 
HETATM    2  C   UNL     1      40.895 -14.304   2.951  1.00  0.00     0.202 A 
HETATM    3  N   UNL     1      40.252 -13.074   3.429  1.00  0.00    -0.083 N 
HETATM    4  C   UNL     1      40.665 -12.373   4.530  1.00  0.00     0.726 A 
HETATM    5  N   UNL     1      41.738 -12.799   5.221  1.00  0.00    -0.192 N 
HETATM    6  N   UNL     1      39.118 -12.550   2.914  1.00  0.00    -0.140 NA
HETATM    7  C   UNL     1      38.961 -11.474   3.699  1.00  0.00     0.166 A 
HETATM    8  N   UNL     1      39.879 -11.346   4.714  1.00  0.00    -0.046 NA
HETATM    9  C   UNL     1      42.501 -13.898   4.848  1.00  0.00     0.037 A 
HETATM   10  C   UNL     1      43.713 -14.177   5.702  1.00  0.00     0.070 C 
HETATM   11  H   UNL     1      42.069 -12.238   6.002  1.00  0.00     0.184 HD
ENDROOT
BRANCH   1  12
HETATM   12  C   UNL     1      43.000 -15.743   3.291  1.00  0.00     0.256 C 
HETATM   13  N   UNL     1      42.592 -16.984   3.729  1.00  0.00    -0.323 N 
HETATM   14  H   UNL     1      41.819 -17.013   4.377  1.00  0.00     0.169 HD
HETATM   15  O   UNL     1      43.968 -15.468   2.593  1.00  0.00    -0.267 OA
BRANCH  13  16
HETATM   16  C   UNL     1      43.169 -18.238   3.404  1.00  0.00     0.041 A 
HETATM   17  C   UNL     1      44.057 -18.841   4.323  1.00  0.00    -0.035 A 
HETATM   18  C   UNL     1      44.410 -18.210   5.643  1.00  0.00     0.050 C 
HETATM   19  C   UNL     1      44.628 -20.090   4.015  1.00  0.00     0.009 A 
HETATM   20  C   UNL     1      44.335 -20.736   2.816  1.00  0.00     0.001 A 
HETATM   21  C   UNL     1      43.461 -20.145   1.914  1.00  0.00     0.002 A 
HETATM   22  C   UNL     1      42.883 -18.907   2.207  1.00  0.00     0.030 A 
ENDBRANCH  13  16
ENDBRANCH   1  12
BRANCH   2  23
HETATM   23  C   UNL     1      41.153 -14.228   1.451  1.00  0.00    -0.025 A 
HETATM   24  C   UNL     1      41.853 -13.132   0.919  1.00  0.00     0.052 A 
HETATM   25  C   UNL     1      42.081 -13.046  -0.450  1.00  0.00     0.117 A 
HETATM   26  F   UNL     1      42.749 -11.993  -0.940  1.00  0.00    -0.206 F 
HETATM   27  C   UNL     1      41.627 -14.032  -1.315  1.00  0.00     0.042 A 
HETATM   28  C   UNL     1      40.937 -15.129  -0.802  1.00  0.00     0.004 A 
HETATM   29  C   UNL     1      40.702 -15.229   0.572  1.00  0.00     0.010 A 
ENDBRANCH   2  23
BRANCH   7  30
HETATM   30  C   UNL     1      37.883 -10.475   3.482  1.00  0.00     0.085 C 
BRANCH  30  31
HETATM   31  C   UNL     1      37.995  -9.264   4.405  1.00  0.00     0.034 C 
BRANCH  31  32
HETATM   32  C   UNL     1      36.741  -8.397   4.408  1.00  0.00     0.164 C 
BRANCH  32  33
HETATM   33  O   UNL     1      35.598  -9.213   4.643  1.00  0.00    -0.401 OA
HETATM   34  H   UNL     1      34.989  -9.087   3.896  1.00  0.00     0.209 HD
ENDBRANCH  32  33
ENDBRANCH  31  32
ENDBRANCH  30  31
ENDBRANCH   7  30
TORSDOF 7
ENDMDL
MODEL 8
REMARK VINA RESULT:      -7.3      2.764      7.874
REMARK  7 active torsions:
REMARK  status: ('A' for Active; 'I' for Inactive)
REMARK    1  A    between atoms: C_3  and  N_4 
REMARK       I    between atoms: N_4  and  C_5 
REMARK    2  A    between atoms: C_5  and  C_6 
REMARK    3  A    between atoms: C_7  and  C_8 
REMARK    4  A    between atoms: C_19  and  C_20 
REMARK    5  A    between atoms: C_20  and  C_21 
REMARK    6  A    between atoms: C_21  and  C_22 
REMARK    7  A    between atoms: C_22  and  O_23 
ROOT
HETATM    1  C   UNL     1      43.875 -15.409   5.056  1.00  0.00     0.062 A 
HETATM    2  C   UNL     1      43.853 -16.699   4.245  1.00  0.00     0.202 A 
HETATM    3  N   UNL     1      43.955 -17.878   5.114  1.00  0.00    -0.083 N 
HETATM    4  C   UNL     1      44.133 -17.816   6.470  1.00  0.00     0.726 A 
HETATM    5  N   UNL     1      44.198 -16.615   7.074  1.00  0.00    -0.192 N 
HETATM    6  N   UNL     1      43.996 -19.155   4.674  1.00  0.00    -0.140 NA
HETATM    7  C   UNL     1      44.105 -19.816   5.835  1.00  0.00     0.166 A 
HETATM    8  N   UNL     1      44.213 -19.027   6.955  1.00  0.00    -0.046 NA
HETATM    9  C   UNL     1      44.037 -15.411   6.401  1.00  0.00     0.037 A 
HETATM   10  C   UNL     1      44.063 -14.171   7.259  1.00  0.00     0.070 C 
HETATM   11  H   UNL     1      44.272 -16.584   8.088  1.00  0.00     0.184 HD
ENDROOT
BRANCH   1  12
HETATM   12  C   UNL     1      43.579 -14.143   4.338  1.00  0.00     0.256 C 
HETATM   13  N   UNL     1      42.278 -13.721   4.502  1.00  0.00    -0.323 N 
HETATM   14  H   UNL     1      41.656 -14.332   5.011  1.00  0.00     0.169 HD
HETATM   15  O   UNL     1      44.466 -13.617   3.677  1.00  0.00    -0.267 OA
BRANCH  13  16
HETATM   16  C   UNL     1      41.693 -12.533   3.996  1.00  0.00     0.041 A 
HETATM   17  C   UNL     1      41.338 -11.507   4.901  1.00  0.00    -0.035 A 
HETATM   18  C   UNL     1      41.564 -11.620   6.385  1.00  0.00     0.050 C 
HETATM   19  C   UNL     1      40.766 -10.319   4.409  1.00  0.00     0.009 A 
HETATM   20  C   UNL     1      40.541 -10.142   3.046  1.00  0.00     0.001 A 
HETATM   21  C   UNL     1      40.892 -11.149   2.157  1.00  0.00     0.002 A 
HETATM   22  C   UNL     1      41.464 -12.332   2.629  1.00  0.00     0.030 A 
ENDBRANCH  13  16
ENDBRANCH   1  12
BRANCH   2  23
HETATM   23  C   UNL     1      42.658 -16.823   3.308  1.00  0.00    -0.025 A 
HETATM   24  C   UNL     1      42.851 -16.749   1.918  1.00  0.00     0.052 A 
HETATM   25  C   UNL     1      41.765 -16.848   1.056  1.00  0.00     0.117 A 
HETATM   26  F   UNL     1      41.967 -16.774  -0.267  1.00  0.00    -0.206 F 
HETATM   27  C   UNL     1      40.476 -17.019   1.542  1.00  0.00     0.042 A 
HETATM   28  C   UNL     1      40.269 -17.100   2.918  1.00  0.00     0.004 A 
HETATM   29  C   UNL     1      41.351 -17.005   3.796  1.00  0.00     0.010 A 
ENDBRANCH   2  23
BRANCH   7  30
HETATM   30  C   UNL     1      44.092 -21.299   5.916  1.00  0.00     0.085 C 
BRANCH  30  31
HETATM   31  C   UNL     1      45.164 -21.955   5.050  1.00  0.00     0.034 C 
BRANCH  31  32
HETATM   32  C   UNL     1      44.597 -22.629   3.805  1.00  0.00     0.164 C 
BRANCH  32  33
HETATM   33  O   UNL     1      44.310 -21.643   2.818  1.00  0.00    -0.401 OA
HETATM   34  H   UNL     1      43.921 -20.877   3.273  1.00  0.00     0.209 HD
ENDBRANCH  32  33
ENDBRANCH  31  32
ENDBRANCH  30  31
ENDBRANCH   7  30
TORSDOF 7
ENDMDL
MODEL 9
REMARK VINA RESULT:      -7.3      1.731      7.493
REMARK  7 active torsions:
REMARK  status: ('A' for Active; 'I' for Inactive)
REMARK    1  A    between atoms: C_3  and  N_4 
REMARK       I    between atoms: N_4  and  C_5 
REMARK    2  A    between atoms: C_5  and  C_6 
REMARK    3  A    between atoms: C_7  and  C_8 
REMARK    4  A    between atoms: C_19  and  C_20 
REMARK    5  A    between atoms: C_20  and  C_21 
REMARK    6  A    between atoms: C_21  and  C_22 
REMARK    7  A    between atoms: C_22  and  O_23 
ROOT
HETATM    1  C   UNL     1      40.554 -15.078   3.925  1.00  0.00     0.062 A 
HETATM    2  C   UNL     1      41.275 -16.318   4.439  1.00  0.00     0.202 A 
HETATM    3  N   UNL     1      41.807 -17.124   3.333  1.00  0.00    -0.083 N 
HETATM    4  C   UNL     1      41.602 -16.836   2.010  1.00  0.00     0.726 A 
HETATM    5  N   UNL     1      40.895 -15.742   1.672  1.00  0.00    -0.192 N 
HETATM    6  N   UNL     1      42.462 -18.296   3.482  1.00  0.00    -0.140 NA
HETATM    7  C   UNL     1      42.706 -18.611   2.202  1.00  0.00     0.166 A 
HETATM    8  N   UNL     1      42.175 -17.750   1.271  1.00  0.00    -0.046 NA
HETATM    9  C   UNL     1      40.396 -14.838   2.601  1.00  0.00     0.037 A 
HETATM   10  C   UNL     1      39.697 -13.629   2.030  1.00  0.00     0.070 C 
HETATM   11  H   UNL     1      40.800 -15.509   0.687  1.00  0.00     0.184 HD
ENDROOT
BRANCH   1  12
HETATM   12  C   UNL     1      40.137 -14.064   4.927  1.00  0.00     0.256 C 
HETATM   13  N   UNL     1      40.818 -12.872   4.802  1.00  0.00    -0.323 N 
HETATM   14  H   UNL     1      41.560 -12.835   4.119  1.00  0.00     0.169 HD
HETATM   15  O   UNL     1      39.281 -14.362   5.750  1.00  0.00    -0.267 OA
BRANCH  13  16
HETATM   16  C   UNL     1      40.622 -11.691   5.562  1.00  0.00     0.041 A 
HETATM   17  C   UNL     1      39.561 -10.824   5.217  1.00  0.00    -0.035 A 
HETATM   18  C   UNL     1      38.620 -11.107   4.076  1.00  0.00     0.050 C 
HETATM   19  C   UNL     1      39.352  -9.654   5.971  1.00  0.00     0.009 A 
HETATM   20  C   UNL     1      40.177  -9.337   7.047  1.00  0.00     0.001 A 
HETATM   21  C   UNL     1      41.218 -10.190   7.388  1.00  0.00     0.002 A 
HETATM   22  C   UNL     1      41.436 -11.357   6.652  1.00  0.00     0.030 A 
ENDBRANCH  13  16
ENDBRANCH   1  12
BRANCH   2  23
HETATM   23  C   UNL     1      42.365 -16.022   5.461  1.00  0.00    -0.025 A 
HETATM   24  C   UNL     1      42.380 -16.714   6.684  1.00  0.00     0.052 A 
HETATM   25  C   UNL     1      43.363 -16.441   7.630  1.00  0.00     0.117 A 
HETATM   26  F   UNL     1      43.361 -17.109   8.791  1.00  0.00    -0.206 F 
HETATM   27  C   UNL     1      44.344 -15.489   7.389  1.00  0.00     0.042 A 
HETATM   28  C   UNL     1      44.347 -14.799   6.178  1.00  0.00     0.004 A 
HETATM   29  C   UNL     1      43.366 -15.064   5.219  1.00  0.00     0.010 A 
ENDBRANCH   2  23
BRANCH   7  30
HETATM   30  C   UNL     1      43.510 -19.796   1.808  1.00  0.00     0.085 C 
BRANCH  30  31
HETATM   31  C   UNL     1      44.269 -20.419   2.978  1.00  0.00     0.034 C 
BRANCH  31  32
HETATM   32  C   UNL     1      44.415 -21.932   2.857  1.00  0.00     0.164 C 
BRANCH  32  33
HETATM   33  O   UNL     1      44.270 -22.317   1.494  1.00  0.00    -0.401 OA
HETATM   34  H   UNL     1      44.132 -21.508   0.973  1.00  0.00     0.209 HD
ENDBRANCH  32  33
ENDBRANCH  31  32
ENDBRANCH  30  31
ENDBRANCH   7  30
TORSDOF 7
ENDMDL
MODEL 10
REMARK VINA RESULT:      -7.3      1.886      7.132
REMARK  7 active torsions:
REMARK  status: ('A' for Active; 'I' for Inactive)
REMARK    1  A    between atoms: C_3  and  N_4 
REMARK       I    between atoms: N_4  and  C_5 
REMARK    2  A    between atoms: C_5  and  C_6 
REMARK    3  A    between atoms: C_7  and  C_8 
REMARK    4  A    between atoms: C_19  and  C_20 
REMARK    5  A    between atoms: C_20  and  C_21 
REMARK    6  A    between atoms: C_21  and  C_22 
REMARK    7  A    between atoms: C_22  and  O_23 
ROOT
HETATM    1  C   UNL     1      41.302 -16.152   2.225  1.00  0.00     0.062 A 
HETATM    2  C   UNL     1      41.617 -17.367   3.089  1.00  0.00     0.202 A 
HETATM    3  N   UNL     1      42.668 -18.196   2.483  1.00  0.00    -0.083 N 
HETATM    4  C   UNL     1      43.226 -17.947   1.258  1.00  0.00     0.726 A 
HETATM    5  N   UNL     1      42.826 -16.873   0.554  1.00  0.00    -0.192 N 
HETATM    6  N   UNL     1      43.128 -19.354   3.004  1.00  0.00    -0.140 NA
HETATM    7  C   UNL     1      44.036 -19.700   2.080  1.00  0.00     0.166 A 
HETATM    8  N   UNL     1      44.108 -18.872   0.985  1.00  0.00    -0.046 NA
HETATM    9  C   UNL     1      41.902 -15.950   1.026  1.00  0.00     0.037 A 
HETATM   10  C   UNL     1      41.637 -14.767   0.129  1.00  0.00     0.070 C 
HETATM   11  H   UNL     1      43.290 -16.668  -0.327  1.00  0.00     0.184 HD
ENDROOT
BRANCH   1  12
HETATM   12  C   UNL     1      40.406 -15.116   2.800  1.00  0.00     0.256 C 
HETATM   13  N   UNL     1      41.081 -14.172   3.542  1.00  0.00    -0.323 N 
HETATM   14  H   UNL     1      42.070 -14.316   3.682  1.00  0.00     0.169 HD
HETATM   15  O   UNL     1      39.202 -15.195   2.593  1.00  0.00    -0.267 OA
BRANCH  13  16
HETATM   16  C   UNL     1      40.531 -13.029   4.176  1.00  0.00     0.041 A 
HETATM   17  C   UNL     1      40.555 -11.791   3.495  1.00  0.00    -0.035 A 
HETATM   18  C   UNL     1      41.135 -11.636   2.114  1.00  0.00     0.050 C 
HETATM   19  C   UNL     1      40.003 -10.652   4.110  1.00  0.00     0.009 A 
HETATM   20  C   UNL     1      39.440 -10.726   5.382  1.00  0.00     0.001 A 
HETATM   21  C   UNL     1      39.414 -11.943   6.050  1.00  0.00     0.002 A 
HETATM   22  C   UNL     1      39.954 -13.083   5.451  1.00  0.00     0.030 A 
ENDBRANCH  13  16
ENDBRANCH   1  12
BRANCH   2  23
HETATM   23  C   UNL     1      41.965 -17.029   4.533  1.00  0.00    -0.025 A 
HETATM   24  C   UNL     1      43.232 -16.507   4.841  1.00  0.00     0.052 A 
HETATM   25  C   UNL     1      43.564 -16.208   6.158  1.00  0.00     0.117 A 
HETATM   26  F   UNL     1      44.778 -15.712   6.433  1.00  0.00    -0.206 F 
HETATM   27  C   UNL     1      42.660 -16.416   7.190  1.00  0.00     0.042 A 
HETATM   28  C   UNL     1      41.396 -16.927   6.900  1.00  0.00     0.004 A 
HETATM   29  C   UNL     1      41.048 -17.230   5.581  1.00  0.00     0.010 A 
ENDBRANCH   2  23
BRANCH   7  30
HETATM   30  C   UNL     1      44.919 -20.885   2.231  1.00  0.00     0.085 C 
BRANCH  30  31
HETATM   31  C   UNL     1      44.192 -22.105   2.791  1.00  0.00     0.034 C 
BRANCH  31  32
HETATM   32  C   UNL     1      44.688 -22.513   4.174  1.00  0.00     0.164 C 
BRANCH  32  33
HETATM   33  O   UNL     1      44.672 -21.381   5.038  1.00  0.00    -0.401 OA
HETATM   34  H   UNL     1      44.673 -21.710   5.953  1.00  0.00     0.209 HD
ENDBRANCH  32  33
ENDBRANCH  31  32
ENDBRANCH  30  31
ENDBRANCH   7  30
TORSDOF 7
ENDMDL
