MODEL 1
REMARK VINA RESULT:      -8.8      0.000      0.000
REMARK  9 active torsions:
REMARK  status: ('A' for Active; 'I' for Inactive)
REMARK    1  A    between atoms: C_7  and  C_8 
REMARK    2  A    between atoms: C_9  and  O_10 
REMARK    3  A    between atoms: C_12  and  N_13 
REMARK    4  A    between atoms: N_13  and  C_14 
REMARK    5  A    between atoms: C_14  and  N_15 
REMARK       I    between atoms: N_15  and  C_16 
REMARK    6  A    between atoms: C_16  and  C_17 
REMARK    7  A    between atoms: C_19  and  O_20 
REMARK    8  A    between atoms: O_20  and  C_21 
REMARK    9  A    between atoms: C_21  and  C_22 
ROOT
HETATM    1  N   UNL     1      42.819 -14.798   6.349  1.00  0.00    -0.337 N 
HETATM    2  H   UNL     1      42.047 -14.941   6.992  1.00  0.00     0.168 HD
ENDROOT
BRANCH   1   3
HETATM    3  C   UNL     1      42.429 -14.662   5.001  1.00  0.00     0.036 A 
HETATM    4  C   UNL     1      41.090 -14.926   4.699  1.00  0.00     0.067 A 
HETATM    5  C   UNL     1      40.630 -14.875   3.381  1.00  0.00     0.082 A 
HETATM    6  C   UNL     1      41.500 -14.583   2.319  1.00  0.00     0.050 A 
HETATM    7  C   UNL     1      42.848 -14.334   2.636  1.00  0.00     0.021 A 
HETATM    8  C   UNL     1      43.309 -14.371   3.961  1.00  0.00     0.030 A 
BRANCH   5   9
HETATM    9  O   UNL     1      39.294 -15.141   3.224  1.00  0.00    -0.360 OA
HETATM   10  H   UNL     1      38.789 -14.337   3.447  1.00  0.00     0.217 HD
ENDBRANCH   5   9
BRANCH   6  11
HETATM   11  C   UNL     1      41.093 -14.548   0.915  1.00  0.00     0.183 A 
HETATM   12  N   UNL     1      41.775 -14.900  -0.162  1.00  0.00    -0.221 NA
HETATM   13  C   UNL     1      40.901 -14.671  -1.195  1.00  0.00     0.093 A 
HETATM   14  C   UNL     1      39.708 -14.175  -0.700  1.00  0.00     0.107 A 
HETATM   15  C   UNL     1      41.036 -14.852  -2.576  1.00  0.00     0.035 A 
HETATM   16  C   UNL     1      38.607 -13.831  -1.476  1.00  0.00     0.046 A 
HETATM   17  O   UNL     1      39.820 -14.094   0.656  1.00  0.00    -0.289 OA
HETATM   18  C   UNL     1      38.743 -14.021  -2.861  1.00  0.00    -0.059 A 
HETATM   19  C   UNL     1      37.617 -13.654  -3.787  1.00  0.00     0.048 C 
HETATM   20  C   UNL     1      39.946 -14.519  -3.397  1.00  0.00     0.009 A 
ENDBRANCH   6  11
ENDBRANCH   1   3
BRANCH   1  21
HETATM   21  C   UNL     1      44.027 -15.053   6.893  1.00  0.00     0.157 C 
HETATM   22  S   UNL     1      45.145 -13.809   6.993  1.00  0.00    -0.047 SA
BRANCH  21  23
HETATM   23  N   UNL     1      44.429 -16.290   7.288  1.00  0.00    -0.201 NA
HETATM   24  C   UNL     1      43.555 -17.371   7.307  1.00  0.00     0.237 C 
HETATM   25  O   UNL     1      42.552 -17.469   8.004  1.00  0.00    -0.274 OA
HETATM   26  H   UNL     1      45.291 -16.474   6.796  1.00  0.00     0.139 HD
BRANCH  24  27
HETATM   27  C   UNL     1      43.904 -18.516   6.414  1.00  0.00     0.029 A 
HETATM   28  C   UNL     1      44.220 -18.363   5.054  1.00  0.00     0.053 A 
HETATM   29  C   UNL     1      44.454 -19.493   4.267  1.00  0.00     0.069 A 
HETATM   30  C   UNL     1      44.416 -20.764   4.849  1.00  0.00     0.037 A 
HETATM   31  C   UNL     1      44.136 -20.918   6.205  1.00  0.00     0.004 A 
HETATM   32  C   UNL     1      43.878 -19.795   6.985  1.00  0.00     0.017 A 
BRANCH  29  33
HETATM   33  O   UNL     1      44.732 -19.499   2.929  1.00  0.00    -0.351 OA
BRANCH  33  34
HETATM   34  C   UNL     1      43.672 -19.820   2.029  1.00  0.00     0.179 C 
BRANCH  34  35
HETATM   35  C   UNL     1      43.177 -18.537   1.338  1.00  0.00     0.002 C 
HETATM   36  C   UNL     1      41.881 -18.021   1.965  1.00  0.00     0.011 C 
HETATM   37  C   UNL     1      44.248 -17.444   1.380  1.00  0.00     0.011 C 
ENDBRANCH  34  35
ENDBRANCH  33  34
ENDBRANCH  29  33
ENDBRANCH  24  27
ENDBRANCH  21  23
ENDBRANCH   1  21
TORSDOF 9
ENDMDL
MODEL 2
REMARK VINA RESULT:      -8.7      4.165      8.383
REMARK  9 active torsions:
REMARK  status: ('A' for Active; 'I' for Inactive)
REMARK    1  A    between atoms: C_7  and  C_8 
REMARK    2  A    between atoms: C_9  and  O_10 
REMARK    3  A    between atoms: C_12  and  N_13 
REMARK    4  A    between atoms: N_13  and  C_14 
REMARK    5  A    between atoms: C_14  and  N_15 
REMARK       I    between atoms: N_15  and  C_16 
REMARK    6  A    between atoms: C_16  and  C_17 
REMARK    7  A    between atoms: C_19  and  O_20 
REMARK    8  A    between atoms: O_20  and  C_21 
REMARK    9  A    between atoms: C_21  and  C_22 
ROOT
HETATM    1  N   UNL     1      41.725 -11.268   4.047  1.00  0.00    -0.337 N 
HETATM    2  H   UNL     1      42.501 -10.640   3.864  1.00  0.00     0.168 HD
ENDROOT
BRANCH   1   3
HETATM    3  C   UNL     1      42.061 -12.635   3.982  1.00  0.00     0.036 A 
HETATM    4  C   UNL     1      42.335 -13.279   5.192  1.00  0.00     0.067 A 
HETATM    5  C   UNL     1      42.736 -14.617   5.214  1.00  0.00     0.082 A 
HETATM    6  C   UNL     1      42.902 -15.346   4.027  1.00  0.00     0.050 A 
HETATM    7  C   UNL     1      42.637 -14.681   2.817  1.00  0.00     0.021 A 
HETATM    8  C   UNL     1      42.220 -13.342   2.792  1.00  0.00     0.030 A 
BRANCH   5   9
HETATM    9  O   UNL     1      42.959 -15.132   6.466  1.00  0.00    -0.360 OA
HETATM   10  H   UNL     1      42.158 -14.994   7.006  1.00  0.00     0.217 HD
ENDBRANCH   5   9
BRANCH   6  11
HETATM   11  C   UNL     1      43.352 -16.737   3.979  1.00  0.00     0.183 A 
HETATM   12  N   UNL     1      43.889 -17.476   4.935  1.00  0.00    -0.221 NA
HETATM   13  C   UNL     1      44.097 -18.692   4.335  1.00  0.00     0.093 A 
HETATM   14  C   UNL     1      43.681 -18.643   3.016  1.00  0.00     0.107 A 
HETATM   15  C   UNL     1      44.634 -19.886   4.829  1.00  0.00     0.035 A 
HETATM   16  C   UNL     1      43.754 -19.702   2.119  1.00  0.00     0.046 A 
HETATM   17  O   UNL     1      43.198 -17.391   2.777  1.00  0.00    -0.289 OA
HETATM   18  C   UNL     1      44.286 -20.902   2.621  1.00  0.00    -0.059 A 
HETATM   19  C   UNL     1      44.431 -22.097   1.721  1.00  0.00     0.048 C 
HETATM   20  C   UNL     1      44.724 -20.983   3.956  1.00  0.00     0.009 A 
ENDBRANCH   6  11
ENDBRANCH   1   3
BRANCH   1  21
HETATM   21  C   UNL     1      40.523 -10.656   4.031  1.00  0.00     0.157 C 
HETATM   22  S   UNL     1      39.842 -10.254   2.553  1.00  0.00    -0.047 SA
BRANCH  21  23
HETATM   23  N   UNL     1      39.863 -10.262   5.152  1.00  0.00    -0.201 NA
HETATM   24  C   UNL     1      39.505 -11.166   6.145  1.00  0.00     0.237 C 
HETATM   25  O   UNL     1      38.729 -12.105   6.013  1.00  0.00    -0.274 OA
HETATM   26  H   UNL     1      40.359  -9.454   5.499  1.00  0.00     0.139 HD
BRANCH  24  27
HETATM   27  C   UNL     1      40.106 -10.937   7.492  1.00  0.00     0.029 A 
HETATM   28  C   UNL     1      41.457 -10.601   7.685  1.00  0.00     0.053 A 
HETATM   29  C   UNL     1      41.962 -10.485   8.983  1.00  0.00     0.069 A 
HETATM   30  C   UNL     1      41.110 -10.660  10.077  1.00  0.00     0.037 A 
HETATM   31  C   UNL     1      39.763 -10.960   9.890  1.00  0.00     0.004 A 
HETATM   32  C   UNL     1      39.263 -11.100   8.599  1.00  0.00     0.017 A 
BRANCH  29  33
HETATM   33  O   UNL     1      43.256 -10.204   9.321  1.00  0.00    -0.351 OA
BRANCH  33  34
HETATM   34  C   UNL     1      43.575 -10.101  10.709  1.00  0.00     0.179 C 
BRANCH  34  35
HETATM   35  C   UNL     1      44.771 -11.013  11.032  1.00  0.00     0.002 C 
HETATM   36  C   UNL     1      44.332 -12.459  11.267  1.00  0.00     0.011 C 
HETATM   37  C   UNL     1      45.817 -10.962   9.915  1.00  0.00     0.011 C 
ENDBRANCH  34  35
ENDBRANCH  33  34
ENDBRANCH  29  33
ENDBRANCH  24  27
ENDBRANCH  21  23
ENDBRANCH   1  21
TORSDOF 9
ENDMDL
MODEL 3
REMARK VINA RESULT:      -8.6      5.007      9.136
REMARK  9 active torsions:
REMARK  status: ('A' for Active; 'I' for Inactive)
REMARK    1  A    between atoms: C_7  and  C_8 
REMARK    2  A    between atoms: C_9  and  O_10 
REMARK    3  A    between atoms: C_12  and  N_13 
REMARK    4  A    between atoms: N_13  and  C_14 
REMARK    5  A    between atoms: C_14  and  N_15 
REMARK       I    between atoms: N_15  and  C_16 
REMARK    6  A    between atoms: C_16  and  C_17 
REMARK    7  A    between atoms: C_19  and  O_20 
REMARK    8  A    between atoms: O_20  and  C_21 
REMARK    9  A    between atoms: C_21  and  C_22 
ROOT
HETATM    1  N   UNL     1      41.802 -12.026   6.737  1.00  0.00    -0.337 N 
HETATM    2  H   UNL     1      42.399 -11.631   7.456  1.00  0.00     0.168 HD
ENDROOT
BRANCH   1   3
HETATM    3  C   UNL     1      42.256 -13.256   6.220  1.00  0.00     0.036 A 
HETATM    4  C   UNL     1      41.283 -14.152   5.769  1.00  0.00     0.067 A 
HETATM    5  C   UNL     1      41.641 -15.419   5.298  1.00  0.00     0.082 A 
HETATM    6  C   UNL     1      42.979 -15.839   5.289  1.00  0.00     0.050 A 
HETATM    7  C   UNL     1      43.946 -14.933   5.761  1.00  0.00     0.021 A 
HETATM    8  C   UNL     1      43.591 -13.655   6.220  1.00  0.00     0.030 A 
BRANCH   5   9
HETATM    9  O   UNL     1      40.592 -16.193   4.872  1.00  0.00    -0.360 OA
HETATM   10  H   UNL     1      39.956 -15.623   4.402  1.00  0.00     0.217 HD
ENDBRANCH   5   9
BRANCH   6  11
HETATM   11  C   UNL     1      43.417 -17.161   4.844  1.00  0.00     0.183 A 
HETATM   12  N   UNL     1      44.172 -18.047   5.472  1.00  0.00    -0.221 NA
HETATM   13  C   UNL     1      44.243 -19.101   4.596  1.00  0.00     0.093 A 
HETATM   14  C   UNL     1      43.524 -18.809   3.450  1.00  0.00     0.107 A 
HETATM   15  C   UNL     1      44.892 -20.337   4.688  1.00  0.00     0.035 A 
HETATM   16  C   UNL     1      43.391 -19.656   2.357  1.00  0.00     0.046 A 
HETATM   17  O   UNL     1      42.988 -17.564   3.600  1.00  0.00    -0.289 OA
HETATM   18  C   UNL     1      44.038 -20.899   2.456  1.00  0.00    -0.059 A 
HETATM   19  C   UNL     1      43.975 -21.875   1.314  1.00  0.00     0.048 C 
HETATM   20  C   UNL     1      44.782 -21.226   3.606  1.00  0.00     0.009 A 
ENDBRANCH   6  11
ENDBRANCH   1   3
BRANCH   1  21
HETATM   21  C   UNL     1      40.888 -11.156   6.259  1.00  0.00     0.157 C 
HETATM   22  S   UNL     1      41.115 -10.503   4.733  1.00  0.00    -0.047 SA
BRANCH  21  23
HETATM   23  N   UNL     1      39.830 -10.703   6.983  1.00  0.00    -0.201 NA
HETATM   24  C   UNL     1      39.348 -11.399   8.086  1.00  0.00     0.237 C 
HETATM   25  O   UNL     1      38.861 -12.523   8.067  1.00  0.00    -0.274 OA
HETATM   26  H   UNL     1      40.013  -9.728   7.167  1.00  0.00     0.139 HD
BRANCH  24  27
HETATM   27  C   UNL     1      39.411 -10.683   9.395  1.00  0.00     0.029 A 
HETATM   28  C   UNL     1      40.271 -11.061  10.439  1.00  0.00     0.053 A 
HETATM   29  C   UNL     1      40.210 -10.391  11.663  1.00  0.00     0.069 A 
HETATM   30  C   UNL     1      39.326  -9.320  11.824  1.00  0.00     0.037 A 
HETATM   31  C   UNL     1      38.495  -8.920  10.780  1.00  0.00     0.004 A 
HETATM   32  C   UNL     1      38.536  -9.602   9.568  1.00  0.00     0.017 A 
BRANCH  29  33
HETATM   33  O   UNL     1      40.954 -10.673  12.774  1.00  0.00    -0.351 OA
BRANCH  33  34
HETATM   34  C   UNL     1      42.174 -11.393  12.595  1.00  0.00     0.179 C 
BRANCH  34  35
HETATM   35  C   UNL     1      43.364 -10.422  12.687  1.00  0.00     0.002 C 
HETATM   36  C   UNL     1      43.644  -9.742  11.347  1.00  0.00     0.011 C 
HETATM   37  C   UNL     1      43.126  -9.365  13.769  1.00  0.00     0.011 C 
ENDBRANCH  34  35
ENDBRANCH  33  34
ENDBRANCH  29  33
ENDBRANCH  24  27
ENDBRANCH  21  23
ENDBRANCH   1  21
TORSDOF 9
ENDMDL
MODEL 4
REMARK VINA RESULT:      -8.5      4.878      8.926
REMARK  9 active torsions:
REMARK  status: ('A' for Active; 'I' for Inactive)
REMARK    1  A    between atoms: C_7  and  C_8 
REMARK    2  A    between atoms: C_9  and  O_10 
REMARK    3  A    between atoms: C_12  and  N_13 
REMARK    4  A    between atoms: N_13  and  C_14 
REMARK    5  A    between atoms: C_14  and  N_15 
REMARK       I    between atoms: N_15  and  C_16 
REMARK    6  A    between atoms: C_16  and  C_17 
REMARK    7  A    between atoms: C_19  and  O_20 
REMARK    8  A    between atoms: O_20  and  C_21 
REMARK    9  A    between atoms: C_21  and  C_22 
ROOT
HETATM    1  N   UNL     1      39.789 -11.983   5.322  1.00  0.00    -0.337 N 
HETATM    2  H   UNL     1      38.924 -12.163   5.824  1.00  0.00     0.168 HD
ENDROOT
BRANCH   1   3
HETATM    3  C   UNL     1      40.544 -13.140   5.042  1.00  0.00     0.036 A 
HETATM    4  C   UNL     1      39.982 -14.064   4.157  1.00  0.00     0.067 A 
HETATM    5  C   UNL     1      40.633 -15.267   3.870  1.00  0.00     0.082 A 
HETATM    6  C   UNL     1      41.854 -15.595   4.478  1.00  0.00     0.050 A 
HETATM    7  C   UNL     1      42.400 -14.662   5.378  1.00  0.00     0.021 A 
HETATM    8  C   UNL     1      41.755 -13.447   5.657  1.00  0.00     0.030 A 
BRANCH   5   9
HETATM    9  O   UNL     1      39.981 -16.077   2.975  1.00  0.00    -0.360 OA
HETATM   10  H   UNL     1      39.123 -16.337   3.360  1.00  0.00     0.217 HD
ENDBRANCH   5   9
BRANCH   6  11
HETATM   11  C   UNL     1      42.570 -16.849   4.250  1.00  0.00     0.183 A 
HETATM   12  N   UNL     1      43.471 -17.448   5.009  1.00  0.00    -0.221 NA
HETATM   13  C   UNL     1      43.786 -18.587   4.313  1.00  0.00     0.093 A 
HETATM   14  C   UNL     1      43.059 -18.636   3.137  1.00  0.00     0.107 A 
HETATM   15  C   UNL     1      44.674 -19.630   4.601  1.00  0.00     0.035 A 
HETATM   16  C   UNL     1      43.138 -19.653   2.193  1.00  0.00     0.046 A 
HETATM   17  O   UNL     1      42.272 -17.523   3.087  1.00  0.00    -0.289 OA
HETATM   18  C   UNL     1      44.025 -20.702   2.489  1.00  0.00    -0.059 A 
HETATM   19  C   UNL     1      44.202 -21.836   1.518  1.00  0.00     0.048 C 
HETATM   20  C   UNL     1      44.784 -20.681   3.675  1.00  0.00     0.009 A 
ENDBRANCH   6  11
ENDBRANCH   1   3
BRANCH   1  21
HETATM   21  C   UNL     1      40.135 -10.680   5.297  1.00  0.00     0.157 C 
HETATM   22  S   UNL     1      40.382  -9.939   3.814  1.00  0.00    -0.047 SA
BRANCH  21  23
HETATM   23  N   UNL     1      40.385  -9.945   6.413  1.00  0.00    -0.201 NA
HETATM   24  C   UNL     1      39.928 -10.341   7.665  1.00  0.00     0.237 C 
HETATM   25  O   UNL     1      38.754 -10.455   7.997  1.00  0.00    -0.274 OA
HETATM   26  H   UNL     1      41.370  -9.728   6.391  1.00  0.00     0.139 HD
BRANCH  24  27
HETATM   27  C   UNL     1      40.978 -10.617   8.691  1.00  0.00     0.029 A 
HETATM   28  C   UNL     1      40.707 -10.698  10.067  1.00  0.00     0.053 A 
HETATM   29  C   UNL     1      41.758 -10.877  10.970  1.00  0.00     0.069 A 
HETATM   30  C   UNL     1      43.065 -11.020  10.493  1.00  0.00     0.037 A 
HETATM   31  C   UNL     1      43.334 -10.973   9.128  1.00  0.00     0.004 A 
HETATM   32  C   UNL     1      42.292 -10.770   8.228  1.00  0.00     0.017 A 
BRANCH  29  33
HETATM   33  O   UNL     1      41.649 -10.935  12.331  1.00  0.00    -0.351 OA
BRANCH  33  34
HETATM   34  C   UNL     1      42.855 -10.949  13.096  1.00  0.00     0.179 C 
BRANCH  34  35
HETATM   35  C   UNL     1      42.845  -9.778  14.094  1.00  0.00     0.002 C 
HETATM   36  C   UNL     1      42.789  -8.427  13.380  1.00  0.00     0.011 C 
HETATM   37  C   UNL     1      41.674  -9.901  15.071  1.00  0.00     0.011 C 
ENDBRANCH  34  35
ENDBRANCH  33  34
ENDBRANCH  29  33
ENDBRANCH  24  27
ENDBRANCH  21  23
ENDBRANCH   1  21
TORSDOF 9
ENDMDL
MODEL 5
REMARK VINA RESULT:      -8.4      3.002      8.553
REMARK  9 active torsions:
REMARK  status: ('A' for Active; 'I' for Inactive)
REMARK    1  A    between atoms: C_7  and  C_8 
REMARK    2  A    between atoms: C_9  and  O_10 
REMARK    3  A    between atoms: C_12  and  N_13 
REMARK    4  A    between atoms: N_13  and  C_14 
REMARK    5  A    between atoms: C_14  and  N_15 
REMARK       I    between atoms: N_15  and  C_16 
REMARK    6  A    between atoms: C_16  and  C_17 
REMARK    7  A    between atoms: C_19  and  O_20 
REMARK    8  A    between atoms: O_20  and  C_21 
REMARK    9  A    between atoms: C_21  and  C_22 
ROOT
HETATM    1  N   UNL     1      42.043 -11.995   2.231  1.00  0.00    -0.337 N 
HETATM    2  H   UNL     1      42.776 -11.326   2.445  1.00  0.00     0.168 HD
ENDROOT
BRANCH   1   3
HETATM    3  C   UNL     1      42.453 -13.342   2.310  1.00  0.00     0.036 A 
HETATM    4  C   UNL     1      41.921 -14.223   1.363  1.00  0.00     0.067 A 
HETATM    5  C   UNL     1      42.225 -15.586   1.405  1.00  0.00     0.082 A 
HETATM    6  C   UNL     1      43.047 -16.116   2.410  1.00  0.00     0.050 A 
HETATM    7  C   UNL     1      43.563 -15.221   3.365  1.00  0.00     0.021 A 
HETATM    8  C   UNL     1      43.271 -13.849   3.316  1.00  0.00     0.030 A 
BRANCH   5   9
HETATM    9  O   UNL     1      41.650 -16.336   0.411  1.00  0.00    -0.360 OA
HETATM   10  H   UNL     1      40.748 -16.001   0.252  1.00  0.00     0.217 HD
ENDBRANCH   5   9
BRANCH   6  11
HETATM   11  C   UNL     1      43.376 -17.536   2.533  1.00  0.00     0.183 A 
HETATM   12  N   UNL     1      43.294 -18.494   1.625  1.00  0.00    -0.221 NA
HETATM   13  C   UNL     1      43.741 -19.612   2.284  1.00  0.00     0.093 A 
HETATM   14  C   UNL     1      44.074 -19.288   3.587  1.00  0.00     0.107 A 
HETATM   15  C   UNL     1      43.894 -20.936   1.858  1.00  0.00     0.035 A 
HETATM   16  C   UNL     1      44.557 -20.186   4.532  1.00  0.00     0.046 A 
HETATM   17  O   UNL     1      43.845 -17.955   3.757  1.00  0.00    -0.289 OA
HETATM   18  C   UNL     1      44.716 -21.513   4.098  1.00  0.00    -0.059 A 
HETATM   19  C   UNL     1      45.206 -22.564   5.054  1.00  0.00     0.048 C 
HETATM   20  C   UNL     1      44.381 -21.877   2.780  1.00  0.00     0.009 A 
ENDBRANCH   6  11
ENDBRANCH   1   3
BRANCH   1  21
HETATM   21  C   UNL     1      40.956 -11.439   1.658  1.00  0.00     0.157 C 
HETATM   22  S   UNL     1      39.455 -11.699   2.356  1.00  0.00    -0.047 SA
BRANCH  21  23
HETATM   23  N   UNL     1      40.992 -10.747   0.489  1.00  0.00    -0.201 NA
HETATM   24  C   UNL     1      42.157 -10.644  -0.263  1.00  0.00     0.237 C 
HETATM   25  O   UNL     1      43.195 -10.101   0.096  1.00  0.00    -0.274 OA
HETATM   26  H   UNL     1      40.192 -11.056  -0.044  1.00  0.00     0.139 HD
BRANCH  24  27
HETATM   27  C   UNL     1      42.106 -11.224  -1.638  1.00  0.00     0.029 A 
HETATM   28  C   UNL     1      41.900 -12.590  -1.889  1.00  0.00     0.053 A 
HETATM   29  C   UNL     1      41.950 -13.068  -3.202  1.00  0.00     0.069 A 
HETATM   30  C   UNL     1      42.159 -12.175  -4.257  1.00  0.00     0.037 A 
HETATM   31  C   UNL     1      42.332 -10.814  -4.015  1.00  0.00     0.004 A 
HETATM   32  C   UNL     1      42.307 -10.340  -2.707  1.00  0.00     0.017 A 
BRANCH  29  33
HETATM   33  O   UNL     1      41.807 -14.370  -3.591  1.00  0.00    -0.351 OA
BRANCH  33  34
HETATM   34  C   UNL     1      40.793 -15.148  -2.956  1.00  0.00     0.179 C 
BRANCH  34  35
HETATM   35  C   UNL     1      39.450 -14.930  -3.673  1.00  0.00     0.002 C 
HETATM   36  C   UNL     1      38.871 -16.243  -4.202  1.00  0.00     0.011 C 
HETATM   37  C   UNL     1      38.438 -14.250  -2.747  1.00  0.00     0.011 C 
ENDBRANCH  34  35
ENDBRANCH  33  34
ENDBRANCH  29  33
ENDBRANCH  24  27
ENDBRANCH  21  23
ENDBRANCH   1  21
TORSDOF 9
ENDMDL
MODEL 6
REMARK VINA RESULT:      -8.2      4.041      7.894
REMARK  9 active torsions:
REMARK  status: ('A' for Active; 'I' for Inactive)
REMARK    1  A    between atoms: C_7  and  C_8 
REMARK    2  A    between atoms: C_9  and  O_10 
REMARK    3  A    between atoms: C_12  and  N_13 
REMARK    4  A    between atoms: N_13  and  C_14 
REMARK    5  A    between atoms: C_14  and  N_15 
REMARK       I    between atoms: N_15  and  C_16 
REMARK    6  A    between atoms: C_16  and  C_17 
REMARK    7  A    between atoms: C_19  and  O_20 
REMARK    8  A    between atoms: O_20  and  C_21 
REMARK    9  A    between atoms: C_21  and  C_22 
ROOT
HETATM    1  N   UNL     1      39.915 -11.872   5.580  1.00  0.00    -0.337 N 
HETATM    2  H   UNL     1      39.000 -12.057   5.979  1.00  0.00     0.168 HD
ENDROOT
BRANCH   1   3
HETATM    3  C   UNL     1      40.647 -13.033   5.254  1.00  0.00     0.036 A 
HETATM    4  C   UNL     1      40.026 -13.956   4.408  1.00  0.00     0.067 A 
HETATM    5  C   UNL     1      40.654 -15.162   4.083  1.00  0.00     0.082 A 
HETATM    6  C   UNL     1      41.909 -15.493   4.614  1.00  0.00     0.050 A 
HETATM    7  C   UNL     1      42.515 -14.561   5.475  1.00  0.00     0.021 A 
HETATM    8  C   UNL     1      41.893 -13.344   5.792  1.00  0.00     0.030 A 
BRANCH   5   9
HETATM    9  O   UNL     1      39.943 -15.971   3.233  1.00  0.00    -0.360 OA
HETATM   10  H   UNL     1      39.079 -15.555   3.058  1.00  0.00     0.217 HD
ENDBRANCH   5   9
BRANCH   6  11
HETATM   11  C   UNL     1      42.604 -16.751   4.343  1.00  0.00     0.183 A 
HETATM   12  N   UNL     1      43.533 -17.364   5.057  1.00  0.00    -0.221 NA
HETATM   13  C   UNL     1      43.808 -18.499   4.337  1.00  0.00     0.093 A 
HETATM   14  C   UNL     1      43.031 -18.530   3.193  1.00  0.00     0.107 A 
HETATM   15  C   UNL     1      44.699 -19.552   4.577  1.00  0.00     0.035 A 
HETATM   16  C   UNL     1      43.061 -19.539   2.238  1.00  0.00     0.046 A 
HETATM   17  O   UNL     1      42.251 -17.412   3.188  1.00  0.00    -0.289 OA
HETATM   18  C   UNL     1      43.951 -20.598   2.485  1.00  0.00    -0.059 A 
HETATM   19  C   UNL     1      44.076 -21.724   1.497  1.00  0.00     0.048 C 
HETATM   20  C   UNL     1      44.760 -20.594   3.637  1.00  0.00     0.009 A 
ENDBRANCH   6  11
ENDBRANCH   1   3
BRANCH   1  21
HETATM   21  C   UNL     1      40.314 -10.591   5.718  1.00  0.00     0.157 C 
HETATM   22  S   UNL     1      41.006  -9.815   4.404  1.00  0.00    -0.047 SA
BRANCH  21  23
HETATM   23  N   UNL     1      40.271  -9.912   6.894  1.00  0.00    -0.201 NA
HETATM   24  C   UNL     1      39.910 -10.534   8.084  1.00  0.00     0.237 C 
HETATM   25  O   UNL     1      38.818 -11.036   8.327  1.00  0.00    -0.274 OA
HETATM   26  H   UNL     1      41.137  -9.397   6.953  1.00  0.00     0.139 HD
BRANCH  24  27
HETATM   27  C   UNL     1      40.947 -10.554   9.157  1.00  0.00     0.029 A 
HETATM   28  C   UNL     1      42.322 -10.669   8.897  1.00  0.00     0.053 A 
HETATM   29  C   UNL     1      43.223 -10.764   9.961  1.00  0.00     0.069 A 
HETATM   30  C   UNL     1      42.752 -10.699  11.276  1.00  0.00     0.037 A 
HETATM   31  C   UNL     1      41.392 -10.551  11.539  1.00  0.00     0.004 A 
HETATM   32  C   UNL     1      40.491 -10.481  10.481  1.00  0.00     0.017 A 
BRANCH  29  33
HETATM   33  O   UNL     1      44.577 -10.918   9.859  1.00  0.00    -0.351 OA
BRANCH  33  34
HETATM   34  C   UNL     1      45.079 -12.220   9.558  1.00  0.00     0.179 C 
BRANCH  34  35
HETATM   35  C   UNL     1      45.569 -12.259   8.100  1.00  0.00     0.002 C 
HETATM   36  C   UNL     1      47.074 -12.008   8.002  1.00  0.00     0.011 C 
HETATM   37  C   UNL     1      45.219 -13.595   7.440  1.00  0.00     0.011 C 
ENDBRANCH  34  35
ENDBRANCH  33  34
ENDBRANCH  29  33
ENDBRANCH  24  27
ENDBRANCH  21  23
ENDBRANCH   1  21
TORSDOF 9
ENDMDL
MODEL 7
REMARK VINA RESULT:      -8.0      2.997      7.365
REMARK  9 active torsions:
REMARK  status: ('A' for Active; 'I' for Inactive)
REMARK    1  A    between atoms: C_7  and  C_8 
REMARK    2  A    between atoms: C_9  and  O_10 
REMARK    3  A    between atoms: C_12  and  N_13 
REMARK    4  A    between atoms: N_13  and  C_14 
REMARK    5  A    between atoms: C_14  and  N_15 
REMARK       I    between atoms: N_15  and  C_16 
REMARK    6  A    between atoms: C_16  and  C_17 
REMARK    7  A    between atoms: C_19  and  O_20 
REMARK    8  A    between atoms: O_20  and  C_21 
REMARK    9  A    between atoms: C_21  and  C_22 
ROOT
HETATM    1  N   UNL     1      39.961 -11.343   6.219  1.00  0.00    -0.337 N 
HETATM    2  H   UNL     1      40.236 -10.958   7.117  1.00  0.00     0.168 HD
ENDROOT
BRANCH   1   3
HETATM    3  C   UNL     1      40.648 -12.521   5.862  1.00  0.00     0.036 A 
HETATM    4  C   UNL     1      39.999 -13.734   6.114  1.00  0.00     0.067 A 
HETATM    5  C   UNL     1      40.631 -14.951   5.849  1.00  0.00     0.082 A 
HETATM    6  C   UNL     1      41.941 -14.996   5.348  1.00  0.00     0.050 A 
HETATM    7  C   UNL     1      42.587 -13.768   5.114  1.00  0.00     0.021 A 
HETATM    8  C   UNL     1      41.949 -12.544   5.366  1.00  0.00     0.030 A 
BRANCH   5   9
HETATM    9  O   UNL     1      39.880 -16.064   6.127  1.00  0.00    -0.360 OA
HETATM   10  H   UNL     1      39.593 -16.020   7.058  1.00  0.00     0.217 HD
ENDBRANCH   5   9
BRANCH   6  11
HETATM   11  C   UNL     1      42.672 -16.234   5.082  1.00  0.00     0.183 A 
HETATM   12  N   UNL     1      43.612 -16.821   5.804  1.00  0.00    -0.221 NA
HETATM   13  C   UNL     1      43.924 -17.948   5.086  1.00  0.00     0.093 A 
HETATM   14  C   UNL     1      43.156 -18.000   3.936  1.00  0.00     0.107 A 
HETATM   15  C   UNL     1      44.841 -18.976   5.332  1.00  0.00     0.035 A 
HETATM   16  C   UNL     1      43.222 -19.007   2.980  1.00  0.00     0.046 A 
HETATM   17  O   UNL     1      42.347 -16.903   3.924  1.00  0.00    -0.289 OA
HETATM   18  C   UNL     1      44.139 -20.041   3.234  1.00  0.00    -0.059 A 
HETATM   19  C   UNL     1      44.303 -21.162   2.247  1.00  0.00     0.048 C 
HETATM   20  C   UNL     1      44.938 -20.016   4.393  1.00  0.00     0.009 A 
ENDBRANCH   6  11
ENDBRANCH   1   3
BRANCH   1  21
HETATM   21  C   UNL     1      39.224 -10.495   5.473  1.00  0.00     0.157 C 
HETATM   22  S   UNL     1      39.433  -8.846   5.680  1.00  0.00    -0.047 SA
BRANCH  21  23
HETATM   23  N   UNL     1      38.247 -10.899   4.618  1.00  0.00    -0.201 NA
HETATM   24  C   UNL     1      38.354 -10.709   3.245  1.00  0.00     0.237 C 
HETATM   25  O   UNL     1      38.412  -9.627   2.674  1.00  0.00    -0.274 OA
HETATM   26  H   UNL     1      38.021 -11.848   4.879  1.00  0.00     0.139 HD
BRANCH  24  27
HETATM   27  C   UNL     1      38.365 -11.946   2.408  1.00  0.00     0.029 A 
HETATM   28  C   UNL     1      39.255 -13.012   2.621  1.00  0.00     0.053 A 
HETATM   29  C   UNL     1      39.257 -14.098   1.742  1.00  0.00     0.069 A 
HETATM   30  C   UNL     1      38.344 -14.136   0.684  1.00  0.00     0.037 A 
HETATM   31  C   UNL     1      37.437 -13.097   0.489  1.00  0.00     0.004 A 
HETATM   32  C   UNL     1      37.449 -12.003   1.348  1.00  0.00     0.017 A 
BRANCH  29  33
HETATM   33  O   UNL     1      40.088 -15.181   1.802  1.00  0.00    -0.351 OA
BRANCH  33  34
HETATM   34  C   UNL     1      41.403 -15.044   1.263  1.00  0.00     0.179 C 
BRANCH  34  35
HETATM   35  C   UNL     1      41.668 -16.179   0.258  1.00  0.00     0.002 C 
HETATM   36  C   UNL     1      41.017 -17.490   0.701  1.00  0.00     0.011 C 
HETATM   37  C   UNL     1      41.176 -15.799  -1.140  1.00  0.00     0.011 C 
ENDBRANCH  34  35
ENDBRANCH  33  34
ENDBRANCH  29  33
ENDBRANCH  24  27
ENDBRANCH  21  23
ENDBRANCH   1  21
TORSDOF 9
ENDMDL
MODEL 8
REMARK VINA RESULT:      -8.0      2.575      7.127
REMARK  9 active torsions:
REMARK  status: ('A' for Active; 'I' for Inactive)
REMARK    1  A    between atoms: C_7  and  C_8 
REMARK    2  A    between atoms: C_9  and  O_10 
REMARK    3  A    between atoms: C_12  and  N_13 
REMARK    4  A    between atoms: N_13  and  C_14 
REMARK    5  A    between atoms: C_14  and  N_15 
REMARK       I    between atoms: N_15  and  C_16 
REMARK    6  A    between atoms: C_16  and  C_17 
REMARK    7  A    between atoms: C_19  and  O_20 
REMARK    8  A    between atoms: O_20  and  C_21 
REMARK    9  A    between atoms: C_21  and  C_22 
ROOT
HETATM    1  N   UNL     1      40.901 -11.809   5.583  1.00  0.00    -0.337 N 
HETATM    2  H   UNL     1      41.479 -11.173   6.124  1.00  0.00     0.168 HD
ENDROOT
BRANCH   1   3
HETATM    3  C   UNL     1      41.475 -13.082   5.385  1.00  0.00     0.036 A 
HETATM    4  C   UNL     1      42.496 -13.175   4.435  1.00  0.00     0.067 A 
HETATM    5  C   UNL     1      43.079 -14.408   4.131  1.00  0.00     0.082 A 
HETATM    6  C   UNL     1      42.641 -15.590   4.747  1.00  0.00     0.050 A 
HETATM    7  C   UNL     1      41.603 -15.483   5.690  1.00  0.00     0.021 A 
HETATM    8  C   UNL     1      41.026 -14.244   6.008  1.00  0.00     0.030 A 
BRANCH   5   9
HETATM    9  O   UNL     1      44.078 -14.359   3.192  1.00  0.00    -0.360 OA
HETATM   10  H   UNL     1      43.954 -15.097   2.568  1.00  0.00     0.217 HD
ENDBRANCH   5   9
BRANCH   6  11
HETATM   11  C   UNL     1      43.183 -16.915   4.450  1.00  0.00     0.183 A 
HETATM   12  N   UNL     1      43.969 -17.682   5.186  1.00  0.00    -0.221 NA
HETATM   13  C   UNL     1      44.144 -18.808   4.421  1.00  0.00     0.093 A 
HETATM   14  C   UNL     1      43.453 -18.678   3.230  1.00  0.00     0.107 A 
HETATM   15  C   UNL     1      44.869 -19.981   4.657  1.00  0.00     0.035 A 
HETATM   16  C   UNL     1      43.419 -19.634   2.221  1.00  0.00     0.046 A 
HETATM   17  O   UNL     1      42.830 -17.465   3.238  1.00  0.00    -0.289 OA
HETATM   18  C   UNL     1      44.143 -20.814   2.464  1.00  0.00    -0.059 A 
HETATM   19  C   UNL     1      44.189 -21.897   1.423  1.00  0.00     0.048 C 
HETATM   20  C   UNL     1      44.860 -20.976   3.665  1.00  0.00     0.009 A 
ENDBRANCH   6  11
ENDBRANCH   1   3
BRANCH   1  21
HETATM   21  C   UNL     1      39.871 -11.203   4.959  1.00  0.00     0.157 C 
HETATM   22  S   UNL     1      39.342  -9.718   5.530  1.00  0.00    -0.047 SA
BRANCH  21  23
HETATM   23  N   UNL     1      39.170 -11.767   3.941  1.00  0.00    -0.201 NA
HETATM   24  C   UNL     1      39.601 -11.681   2.622  1.00  0.00     0.237 C 
HETATM   25  O   UNL     1      39.720 -10.648   1.973  1.00  0.00    -0.274 OA
HETATM   26  H   UNL     1      38.956 -12.708   4.236  1.00  0.00     0.139 HD
BRANCH  24  27
HETATM   27  C   UNL     1      39.910 -12.975   1.944  1.00  0.00     0.029 A 
HETATM   28  C   UNL     1      40.631 -13.062   0.742  1.00  0.00     0.053 A 
HETATM   29  C   UNL     1      40.807 -14.305   0.128  1.00  0.00     0.069 A 
HETATM   30  C   UNL     1      40.302 -15.457   0.739  1.00  0.00     0.037 A 
HETATM   31  C   UNL     1      39.615 -15.380   1.948  1.00  0.00     0.004 A 
HETATM   32  C   UNL     1      39.418 -14.140   2.548  1.00  0.00     0.017 A 
BRANCH  29  33
HETATM   33  O   UNL     1      41.449 -14.535  -1.056  1.00  0.00    -0.351 OA
BRANCH  33  34
HETATM   34  C   UNL     1      40.921 -15.546  -1.915  1.00  0.00     0.179 C 
BRANCH  34  35
HETATM   35  C   UNL     1      40.417 -14.903  -3.219  1.00  0.00     0.002 C 
HETATM   36  C   UNL     1      38.940 -14.517  -3.124  1.00  0.00     0.011 C 
HETATM   37  C   UNL     1      41.254 -13.675  -3.584  1.00  0.00     0.011 C 
ENDBRANCH  34  35
ENDBRANCH  33  34
ENDBRANCH  29  33
ENDBRANCH  24  27
ENDBRANCH  21  23
ENDBRANCH   1  21
TORSDOF 9
ENDMDL
MODEL 9
REMARK VINA RESULT:      -8.0      3.284      7.275
REMARK  9 active torsions:
REMARK  status: ('A' for Active; 'I' for Inactive)
REMARK    1  A    between atoms: C_7  and  C_8 
REMARK    2  A    between atoms: C_9  and  O_10 
REMARK    3  A    between atoms: C_12  and  N_13 
REMARK    4  A    between atoms: N_13  and  C_14 
REMARK    5  A    between atoms: C_14  and  N_15 
REMARK       I    between atoms: N_15  and  C_16 
REMARK    6  A    between atoms: C_16  and  C_17 
REMARK    7  A    between atoms: C_19  and  O_20 
REMARK    8  A    between atoms: O_20  and  C_21 
REMARK    9  A    between atoms: C_21  and  C_22 
ROOT
HETATM    1  N   UNL     1      40.600 -12.727   1.513  1.00  0.00    -0.337 N 
HETATM    2  H   UNL     1      40.306 -12.514   0.565  1.00  0.00     0.168 HD
ENDROOT
BRANCH   1   3
HETATM    3  C   UNL     1      41.200 -13.994   1.659  1.00  0.00     0.036 A 
HETATM    4  C   UNL     1      40.375 -15.110   1.489  1.00  0.00     0.067 A 
HETATM    5  C   UNL     1      40.873 -16.402   1.675  1.00  0.00     0.082 A 
HETATM    6  C   UNL     1      42.203 -16.619   2.063  1.00  0.00     0.050 A 
HETATM    7  C   UNL     1      43.018 -15.487   2.244  1.00  0.00     0.021 A 
HETATM    8  C   UNL     1      42.525 -14.189   2.044  1.00  0.00     0.030 A 
BRANCH   5   9
HETATM    9  O   UNL     1      39.963 -17.407   1.464  1.00  0.00    -0.360 OA
HETATM   10  H   UNL     1      40.308 -18.227   1.862  1.00  0.00     0.217 HD
ENDBRANCH   5   9
BRANCH   6  11
HETATM   11  C   UNL     1      42.777 -17.942   2.309  1.00  0.00     0.183 A 
HETATM   12  N   UNL     1      42.930 -18.955   1.473  1.00  0.00    -0.221 NA
HETATM   13  C   UNL     1      43.531 -19.925   2.236  1.00  0.00     0.093 A 
HETATM   14  C   UNL     1      43.717 -19.460   3.526  1.00  0.00     0.107 A 
HETATM   15  C   UNL     1      43.950 -21.222   1.919  1.00  0.00     0.035 A 
HETATM   16  C   UNL     1      44.295 -20.189   4.559  1.00  0.00     0.046 A 
HETATM   17  O   UNL     1      43.237 -18.185   3.583  1.00  0.00    -0.289 OA
HETATM   18  C   UNL     1      44.721 -21.488   4.235  1.00  0.00    -0.059 A 
HETATM   19  C   UNL     1      45.334 -22.365   5.290  1.00  0.00     0.048 C 
HETATM   20  C   UNL     1      44.542 -21.993   2.933  1.00  0.00     0.009 A 
ENDBRANCH   6  11
ENDBRANCH   1   3
BRANCH   1  21
HETATM   21  C   UNL     1      40.098 -11.881   2.436  1.00  0.00     0.157 C 
HETATM   22  S   UNL     1      38.904 -10.799   1.975  1.00  0.00    -0.047 SA
BRANCH  21  23
HETATM   23  N   UNL     1      40.569 -11.789   3.708  1.00  0.00    -0.201 NA
HETATM   24  C   UNL     1      40.141 -12.654   4.709  1.00  0.00     0.237 C 
HETATM   25  O   UNL     1      38.996 -12.747   5.134  1.00  0.00    -0.274 OA
HETATM   26  H   UNL     1      41.573 -11.723   3.631  1.00  0.00     0.139 HD
BRANCH  24  27
HETATM   27  C   UNL     1      41.192 -13.514   5.329  1.00  0.00     0.029 A 
HETATM   28  C   UNL     1      42.410 -13.011   5.816  1.00  0.00     0.053 A 
HETATM   29  C   UNL     1      43.377 -13.893   6.306  1.00  0.00     0.069 A 
HETATM   30  C   UNL     1      43.106 -15.264   6.350  1.00  0.00     0.037 A 
HETATM   31  C   UNL     1      41.887 -15.764   5.898  1.00  0.00     0.004 A 
HETATM   32  C   UNL     1      40.933 -14.890   5.387  1.00  0.00     0.017 A 
BRANCH  29  33
HETATM   33  O   UNL     1      44.615 -13.552   6.773  1.00  0.00    -0.351 OA
BRANCH  33  34
HETATM   34  C   UNL     1      44.824 -13.575   8.185  1.00  0.00     0.179 C 
BRANCH  34  35
HETATM   35  C   UNL     1      44.789 -12.139   8.735  1.00  0.00     0.002 C 
HETATM   36  C   UNL     1      44.025 -12.058  10.057  1.00  0.00     0.011 C 
HETATM   37  C   UNL     1      46.205 -11.587   8.917  1.00  0.00     0.011 C 
ENDBRANCH  34  35
ENDBRANCH  33  34
ENDBRANCH  29  33
ENDBRANCH  24  27
ENDBRANCH  21  23
ENDBRANCH   1  21
TORSDOF 9
ENDMDL
MODEL 10
REMARK VINA RESULT:      -7.9      4.890      8.548
REMARK  9 active torsions:
REMARK  status: ('A' for Active; 'I' for Inactive)
REMARK    1  A    between atoms: C_7  and  C_8 
REMARK    2  A    between atoms: C_9  and  O_10 
REMARK    3  A    between atoms: C_12  and  N_13 
REMARK    4  A    between atoms: N_13  and  C_14 
REMARK    5  A    between atoms: C_14  and  N_15 
REMARK       I    between atoms: N_15  and  C_16 
REMARK    6  A    between atoms: C_16  and  C_17 
REMARK    7  A    between atoms: C_19  and  O_20 
REMARK    8  A    between atoms: O_20  and  C_21 
REMARK    9  A    between atoms: C_21  and  C_22 
ROOT
HETATM    1  N   UNL     1      40.407 -12.431   3.314  1.00  0.00    -0.337 N 
HETATM    2  H   UNL     1      39.460 -12.314   2.966  1.00  0.00     0.168 HD
ENDROOT
BRANCH   1   3
HETATM    3  C   UNL     1      40.583 -12.026   4.653  1.00  0.00     0.036 A 
HETATM    4  C   UNL     1      39.782 -12.650   5.614  1.00  0.00     0.067 A 
HETATM    5  C   UNL     1      39.847 -12.267   6.956  1.00  0.00     0.082 A 
HETATM    6  C   UNL     1      40.695 -11.231   7.376  1.00  0.00     0.050 A 
HETATM    7  C   UNL     1      41.485 -10.604   6.395  1.00  0.00     0.021 A 
HETATM    8  C   UNL     1      41.432 -10.996   5.049  1.00  0.00     0.030 A 
BRANCH   5   9
HETATM    9  O   UNL     1      39.020 -12.967   7.797  1.00  0.00    -0.360 OA
HETATM   10  H   UNL     1      38.229 -13.241   7.297  1.00  0.00     0.217 HD
ENDBRANCH   5   9
BRANCH   6  11
HETATM   11  C   UNL     1      40.786 -10.758   8.756  1.00  0.00     0.183 A 
HETATM   12  N   UNL     1      39.820 -10.380   9.576  1.00  0.00    -0.221 NA
HETATM   13  C   UNL     1      40.478 -10.055  10.735  1.00  0.00     0.093 A 
HETATM   14  C   UNL     1      41.839 -10.243  10.572  1.00  0.00     0.107 A 
HETATM   15  C   UNL     1      40.004  -9.592  11.967  1.00  0.00     0.035 A 
HETATM   16  C   UNL     1      42.798 -10.004  11.548  1.00  0.00     0.046 A 
HETATM   17  O   UNL     1      42.048 -10.697   9.303  1.00  0.00    -0.289 OA
HETATM   18  C   UNL     1      42.318  -9.546  12.787  1.00  0.00    -0.059 A 
HETATM   19  C   UNL     1      43.280  -9.233  13.899  1.00  0.00     0.048 C 
HETATM   20  C   UNL     1      40.939  -9.339  12.984  1.00  0.00     0.009 A 
ENDBRANCH   6  11
ENDBRANCH   1   3
BRANCH   1  21
HETATM   21  C   UNL     1      41.310 -12.675   2.343  1.00  0.00     0.157 C 
HETATM   22  S   UNL     1      41.463 -11.576   1.087  1.00  0.00    -0.047 SA
BRANCH  21  23
HETATM   23  N   UNL     1      42.050 -13.813   2.272  1.00  0.00    -0.201 NA
HETATM   24  C   UNL     1      43.015 -14.118   3.225  1.00  0.00     0.237 C 
HETATM   25  O   UNL     1      44.028 -13.468   3.452  1.00  0.00    -0.274 OA
HETATM   26  H   UNL     1      41.395 -14.563   2.104  1.00  0.00     0.139 HD
BRANCH  24  27
HETATM   27  C   UNL     1      42.793 -15.370   4.009  1.00  0.00     0.029 A 
HETATM   28  C   UNL     1      43.170 -16.643   3.551  1.00  0.00     0.053 A 
HETATM   29  C   UNL     1      42.852 -17.773   4.307  1.00  0.00     0.069 A 
HETATM   30  C   UNL     1      42.201 -17.625   5.536  1.00  0.00     0.037 A 
HETATM   31  C   UNL     1      41.855 -16.362   6.010  1.00  0.00     0.004 A 
HETATM   32  C   UNL     1      42.148 -15.236   5.247  1.00  0.00     0.017 A 
BRANCH  29  33
HETATM   33  O   UNL     1      43.119 -19.070   3.970  1.00  0.00    -0.351 OA
BRANCH  33  34
HETATM   34  C   UNL     1      43.399 -19.358   2.600  1.00  0.00     0.179 C 
BRANCH  34  35
HETATM   35  C   UNL     1      44.376 -20.544   2.512  1.00  0.00     0.002 C 
HETATM   36  C   UNL     1      44.824 -21.011   3.897  1.00  0.00     0.011 C 
HETATM   37  C   UNL     1      43.752 -21.712   1.744  1.00  0.00     0.011 C 
ENDBRANCH  34  35
ENDBRANCH  33  34
ENDBRANCH  29  33
ENDBRANCH  24  27
ENDBRANCH  21  23
ENDBRANCH   1  21
TORSDOF 9
ENDMDL
