MODEL 1
REMARK VINA RESULT:      -7.5      0.000      0.000
REMARK  8 active torsions:
REMARK  status: ('A' for Active; 'I' for Inactive)
REMARK    1  A    between atoms: C_4  and  C_5 
REMARK    2  A    between atoms: C_5  and  N_6 
REMARK    3  A    between atoms: N_6  and  C_9 
REMARK    4  A    between atoms: C_9  and  C_10 
REMARK    5  A    between atoms: C_10  and  C_11 
REMARK    6  A    between atoms: C_11  and  C_12 
REMARK    7  A    between atoms: C_17  and  O_18 
REMARK    8  A    between atoms: C_21  and  O_22 
ROOT
HETATM    1  C   UNL     1      41.831 -17.797   2.056  1.00  0.00     0.010 A 
HETATM    2  N   UNL     1      41.722 -17.473   3.389  1.00  0.00    -0.359 N 
HETATM    3  H   UNL     1      41.084 -16.795   3.784  1.00  0.00     0.166 HD
HETATM    4  C   UNL     1      42.636 -18.180   4.134  1.00  0.00     0.048 A 
HETATM    5  C   UNL     1      43.347 -18.998   3.260  1.00  0.00     0.026 A 
HETATM    6  C   UNL     1      44.364 -19.841   3.767  1.00  0.00     0.083 A 
HETATM    7  C   UNL     1      44.624 -19.811   5.150  1.00  0.00     0.074 A 
HETATM    8  C   UNL     1      43.905 -18.972   6.006  1.00  0.00     0.073 A 
HETATM    9  C   UNL     1      42.888 -18.151   5.508  1.00  0.00     0.067 A 
HETATM   10  C   UNL     1      42.829 -18.747   1.956  1.00  0.00     0.041 A 
ENDROOT
BRANCH   1  11
HETATM   11  C   UNL     1      41.001 -17.146   1.007  1.00  0.00     0.059 C 
BRANCH  11  12
HETATM   12  C   UNL     1      40.899 -15.633   1.224  1.00  0.00     0.033 C 
BRANCH  12  13
HETATM   13  C   UNL     1      39.535 -15.203   1.754  1.00  0.00     0.233 C 
BRANCH  13  14
HETATM   14  N   UNL     1      39.645 -14.790   3.185  1.00  0.00    -0.067 N 
HETATM   15  H   UNL     1      40.191 -15.502   3.692  1.00  0.00     0.277 HD
HETATM   16  H   UNL     1      38.725 -14.787   3.645  1.00  0.00     0.277 HD
BRANCH  14  17
HETATM   17  C   UNL     1      40.292 -13.461   3.467  1.00  0.00     0.223 C 
HETATM   18  C   UNL     1      39.402 -12.634   4.393  1.00  0.00     0.046 C 
BRANCH  17  19
HETATM   19  C   UNL     1      41.656 -13.650   4.059  1.00  0.00     0.032 A 
HETATM   20  S   UNL     1      41.888 -14.224   5.664  1.00  0.00    -0.076 SA
HETATM   21  C   UNL     1      43.590 -14.116   5.455  1.00  0.00     0.071 A 
HETATM   22  C   UNL     1      44.524 -14.498   6.552  1.00  0.00     0.078 C 
HETATM   23  N   UNL     1      43.977 -13.690   4.273  1.00  0.00    -0.257 NA
HETATM   24  C   UNL     1      42.886 -13.410   3.482  1.00  0.00     0.134 A 
ENDBRANCH  17  19
ENDBRANCH  14  17
ENDBRANCH  13  14
ENDBRANCH  12  13
ENDBRANCH  11  12
ENDBRANCH   1  11
BRANCH   6  25
HETATM   25  O   UNL     1      45.021 -20.627   2.857  1.00  0.00    -0.355 OA
HETATM   26  C   UNL     1      44.486 -21.920   2.605  1.00  0.00     0.210 C 
ENDBRANCH   6  25
BRANCH   8  27
HETATM   27  O   UNL     1      44.086 -18.863   7.360  1.00  0.00    -0.356 OA
HETATM   28  C   UNL     1      43.468 -17.760   8.012  1.00  0.00     0.210 C 
ENDBRANCH   8  27
TORSDOF 8
ENDMDL
MODEL 2
REMARK VINA RESULT:      -7.5      4.061      6.172
REMARK  8 active torsions:
REMARK  status: ('A' for Active; 'I' for Inactive)
REMARK    1  A    between atoms: C_4  and  C_5 
REMARK    2  A    between atoms: C_5  and  N_6 
REMARK    3  A    between atoms: N_6  and  C_9 
REMARK    4  A    between atoms: C_9  and  C_10 
REMARK    5  A    between atoms: C_10  and  C_11 
REMARK    6  A    between atoms: C_11  and  C_12 
REMARK    7  A    between atoms: C_17  and  O_18 
REMARK    8  A    between atoms: C_21  and  O_22 
ROOT
HETATM    1  C   UNL     1      43.899 -16.431   6.126  1.00  0.00     0.010 A 
HETATM    2  N   UNL     1      44.496 -17.670   6.129  1.00  0.00    -0.359 N 
HETATM    3  H   UNL     1      45.090 -18.040   6.858  1.00  0.00     0.166 HD
HETATM    4  C   UNL     1      44.204 -18.349   4.969  1.00  0.00     0.048 A 
HETATM    5  C   UNL     1      43.381 -17.531   4.199  1.00  0.00     0.026 A 
HETATM    6  C   UNL     1      42.928 -17.988   2.940  1.00  0.00     0.083 A 
HETATM    7  C   UNL     1      43.340 -19.262   2.507  1.00  0.00     0.074 A 
HETATM    8  C   UNL     1      44.177 -20.060   3.292  1.00  0.00     0.073 A 
HETATM    9  C   UNL     1      44.612 -19.616   4.544  1.00  0.00     0.067 A 
HETATM   10  C   UNL     1      43.196 -16.328   4.941  1.00  0.00     0.041 A 
ENDROOT
BRANCH   1  11
HETATM   11  C   UNL     1      44.084 -15.454   7.233  1.00  0.00     0.059 C 
BRANCH  11  12
HETATM   12  C   UNL     1      44.583 -14.101   6.717  1.00  0.00     0.033 C 
BRANCH  12  13
HETATM   13  C   UNL     1      45.194 -13.238   7.815  1.00  0.00     0.233 C 
BRANCH  13  14
HETATM   14  N   UNL     1      44.216 -13.056   8.930  1.00  0.00    -0.067 N 
HETATM   15  H   UNL     1      43.943 -13.984   9.283  1.00  0.00     0.277 HD
HETATM   16  H   UNL     1      43.341 -12.634   8.595  1.00  0.00     0.277 HD
BRANCH  14  17
HETATM   17  C   UNL     1      44.675 -12.255  10.120  1.00  0.00     0.223 C 
HETATM   18  C   UNL     1      45.647 -11.165   9.671  1.00  0.00     0.046 C 
BRANCH  17  19
HETATM   19  C   UNL     1      43.504 -11.667  10.847  1.00  0.00     0.032 A 
HETATM   20  S   UNL     1      42.312 -10.716  10.049  1.00  0.00    -0.076 SA
HETATM   21  C   UNL     1      41.477 -10.516  11.537  1.00  0.00     0.071 A 
HETATM   22  C   UNL     1      40.217  -9.724  11.609  1.00  0.00     0.078 C 
HETATM   23  N   UNL     1      42.031 -11.115  12.567  1.00  0.00    -0.257 NA
HETATM   24  C   UNL     1      43.188 -11.758  12.187  1.00  0.00     0.134 A 
ENDBRANCH  17  19
ENDBRANCH  14  17
ENDBRANCH  13  14
ENDBRANCH  12  13
ENDBRANCH  11  12
ENDBRANCH   1  11
BRANCH   6  25
HETATM   25  O   UNL     1      42.114 -17.139   2.235  1.00  0.00    -0.355 OA
HETATM   26  C   UNL     1      42.692 -16.441   1.140  1.00  0.00     0.210 C 
ENDBRANCH   6  25
BRANCH   8  27
HETATM   27  O   UNL     1      44.640 -21.306   2.958  1.00  0.00    -0.356 OA
HETATM   28  C   UNL     1      44.153 -21.878   1.750  1.00  0.00     0.210 C 
ENDBRANCH   8  27
TORSDOF 8
ENDMDL
MODEL 3
REMARK VINA RESULT:      -7.4      1.316      1.676
REMARK  8 active torsions:
REMARK  status: ('A' for Active; 'I' for Inactive)
REMARK    1  A    between atoms: C_4  and  C_5 
REMARK    2  A    between atoms: C_5  and  N_6 
REMARK    3  A    between atoms: N_6  and  C_9 
REMARK    4  A    between atoms: C_9  and  C_10 
REMARK    5  A    between atoms: C_10  and  C_11 
REMARK    6  A    between atoms: C_11  and  C_12 
REMARK    7  A    between atoms: C_17  and  O_18 
REMARK    8  A    between atoms: C_21  and  O_22 
ROOT
HETATM    1  C   UNL     1      41.922 -17.807   2.050  1.00  0.00     0.010 A 
HETATM    2  N   UNL     1      42.097 -17.304   3.318  1.00  0.00    -0.359 N 
HETATM    3  H   UNL     1      41.618 -16.505   3.711  1.00  0.00     0.166 HD
HETATM    4  C   UNL     1      43.054 -18.024   3.994  1.00  0.00     0.048 A 
HETATM    5  C   UNL     1      43.502 -19.032   3.144  1.00  0.00     0.026 A 
HETATM    6  C   UNL     1      44.501 -19.927   3.591  1.00  0.00     0.083 A 
HETATM    7  C   UNL     1      45.015 -19.755   4.890  1.00  0.00     0.074 A 
HETATM    8  C   UNL     1      44.560 -18.727   5.721  1.00  0.00     0.073 A 
HETATM    9  C   UNL     1      43.560 -17.851   5.286  1.00  0.00     0.067 A 
HETATM   10  C   UNL     1      42.779 -18.884   1.924  1.00  0.00     0.041 A 
ENDROOT
BRANCH   1  11
HETATM   11  C   UNL     1      40.984 -17.193   1.072  1.00  0.00     0.059 C 
BRANCH  11  12
HETATM   12  C   UNL     1      41.726 -16.362   0.021  1.00  0.00     0.033 C 
BRANCH  12  13
HETATM   13  C   UNL     1      40.912 -15.172  -0.474  1.00  0.00     0.233 C 
BRANCH  13  14
HETATM   14  N   UNL     1      39.798 -14.877   0.478  1.00  0.00    -0.067 N 
HETATM   15  H   UNL     1      39.730 -15.652   1.153  1.00  0.00     0.277 HD
HETATM   16  H   UNL     1      38.889 -14.865  -0.002  1.00  0.00     0.277 HD
BRANCH  14  17
HETATM   17  C   UNL     1      39.900 -13.608   1.280  1.00  0.00     0.223 C 
HETATM   18  C   UNL     1      38.502 -13.086   1.608  1.00  0.00     0.046 C 
BRANCH  17  19
HETATM   19  C   UNL     1      40.699 -13.831   2.528  1.00  0.00     0.032 A 
HETATM   20  S   UNL     1      42.373 -13.444   2.627  1.00  0.00    -0.076 SA
HETATM   21  C   UNL     1      42.402 -13.992   4.255  1.00  0.00     0.071 A 
HETATM   22  C   UNL     1      43.656 -13.946   5.058  1.00  0.00     0.078 C 
HETATM   23  N   UNL     1      41.250 -14.431   4.712  1.00  0.00    -0.257 NA
HETATM   24  C   UNL     1      40.284 -14.356   3.734  1.00  0.00     0.134 A 
ENDBRANCH  17  19
ENDBRANCH  14  17
ENDBRANCH  13  14
ENDBRANCH  12  13
ENDBRANCH  11  12
ENDBRANCH   1  11
BRANCH   6  25
HETATM   25  O   UNL     1      44.892 -20.901   2.710  1.00  0.00    -0.355 OA
HETATM   26  C   UNL     1      44.418 -22.221   2.945  1.00  0.00     0.210 C 
ENDBRANCH   6  25
BRANCH   8  27
HETATM   27  O   UNL     1      45.000 -18.471   6.993  1.00  0.00    -0.356 OA
HETATM   28  C   UNL     1      44.025 -18.460   8.029  1.00  0.00     0.210 C 
ENDBRANCH   8  27
TORSDOF 8
ENDMDL
MODEL 4
REMARK VINA RESULT:      -7.4      3.239      4.693
REMARK  8 active torsions:
REMARK  status: ('A' for Active; 'I' for Inactive)
REMARK    1  A    between atoms: C_4  and  C_5 
REMARK    2  A    between atoms: C_5  and  N_6 
REMARK    3  A    between atoms: N_6  and  C_9 
REMARK    4  A    between atoms: C_9  and  C_10 
REMARK    5  A    between atoms: C_10  and  C_11 
REMARK    6  A    between atoms: C_11  and  C_12 
REMARK    7  A    between atoms: C_17  and  O_18 
REMARK    8  A    between atoms: C_21  and  O_22 
ROOT
HETATM    1  C   UNL     1      42.133 -17.540   1.711  1.00  0.00     0.010 A 
HETATM    2  N   UNL     1      41.910 -17.301   3.047  1.00  0.00    -0.359 N 
HETATM    3  H   UNL     1      41.289 -16.601   3.430  1.00  0.00     0.166 HD
HETATM    4  C   UNL     1      42.683 -18.134   3.821  1.00  0.00     0.048 A 
HETATM    5  C   UNL     1      43.417 -18.947   2.961  1.00  0.00     0.026 A 
HETATM    6  C   UNL     1      44.306 -19.906   3.498  1.00  0.00     0.083 A 
HETATM    7  C   UNL     1      44.422 -19.995   4.898  1.00  0.00     0.074 A 
HETATM    8  C   UNL     1      43.684 -19.160   5.742  1.00  0.00     0.073 A 
HETATM    9  C   UNL     1      42.793 -18.222   5.211  1.00  0.00     0.067 A 
HETATM   10  C   UNL     1      43.059 -18.562   1.636  1.00  0.00     0.041 A 
ENDROOT
BRANCH   1  11
HETATM   11  C   UNL     1      41.470 -16.749   0.639  1.00  0.00     0.059 C 
BRANCH  11  12
HETATM   12  C   UNL     1      40.790 -15.496   1.199  1.00  0.00     0.033 C 
BRANCH  12  13
HETATM   13  C   UNL     1      41.594 -14.225   0.950  1.00  0.00     0.233 C 
BRANCH  13  14
HETATM   14  N   UNL     1      40.698 -13.136   0.456  1.00  0.00    -0.067 N 
HETATM   15  H   UNL     1      40.727 -12.356   1.129  1.00  0.00     0.277 HD
HETATM   16  H   UNL     1      39.715 -13.437   0.446  1.00  0.00     0.277 HD
BRANCH  14  17
HETATM   17  C   UNL     1      41.005 -12.556  -0.898  1.00  0.00     0.223 C 
HETATM   18  C   UNL     1      42.455 -12.075  -0.942  1.00  0.00     0.046 C 
BRANCH  17  19
HETATM   19  C   UNL     1      40.738 -13.560  -1.978  1.00  0.00     0.032 A 
HETATM   20  S   UNL     1      39.182 -14.253  -2.223  1.00  0.00    -0.076 SA
HETATM   21  C   UNL     1      39.801 -15.179  -3.531  1.00  0.00     0.071 A 
HETATM   22  C   UNL     1      38.921 -16.104  -4.300  1.00  0.00     0.078 C 
HETATM   23  N   UNL     1      41.077 -14.992  -3.786  1.00  0.00    -0.257 NA
HETATM   24  C   UNL     1      41.618 -14.087  -2.901  1.00  0.00     0.134 A 
ENDBRANCH  17  19
ENDBRANCH  14  17
ENDBRANCH  13  14
ENDBRANCH  12  13
ENDBRANCH  11  12
ENDBRANCH   1  11
BRANCH   6  25
HETATM   25  O   UNL     1      44.992 -20.680   2.599  1.00  0.00    -0.355 OA
HETATM   26  C   UNL     1      44.440 -21.950   2.276  1.00  0.00     0.210 C 
ENDBRANCH   6  25
BRANCH   8  27
HETATM   27  O   UNL     1      43.731 -19.161   7.111  1.00  0.00    -0.356 OA
HETATM   28  C   UNL     1      43.396 -17.948   7.774  1.00  0.00     0.210 C 
ENDBRANCH   8  27
TORSDOF 8
ENDMDL
MODEL 5
REMARK VINA RESULT:      -7.0      1.080      2.633
REMARK  8 active torsions:
REMARK  status: ('A' for Active; 'I' for Inactive)
REMARK    1  A    between atoms: C_4  and  C_5 
REMARK    2  A    between atoms: C_5  and  N_6 
REMARK    3  A    between atoms: N_6  and  C_9 
REMARK    4  A    between atoms: C_9  and  C_10 
REMARK    5  A    between atoms: C_10  and  C_11 
REMARK    6  A    between atoms: C_11  and  C_12 
REMARK    7  A    between atoms: C_17  and  O_18 
REMARK    8  A    between atoms: C_21  and  O_22 
ROOT
HETATM    1  C   UNL     1      42.127 -17.122   2.512  1.00  0.00     0.010 A 
HETATM    2  N   UNL     1      42.841 -18.261   2.219  1.00  0.00    -0.359 N 
HETATM    3  H   UNL     1      42.924 -18.692   1.308  1.00  0.00     0.166 HD
HETATM    4  C   UNL     1      43.417 -18.775   3.358  1.00  0.00     0.048 A 
HETATM    5  C   UNL     1      43.079 -17.935   4.416  1.00  0.00     0.026 A 
HETATM    6  C   UNL     1      43.543 -18.234   5.717  1.00  0.00     0.083 A 
HETATM    7  C   UNL     1      44.330 -19.388   5.894  1.00  0.00     0.074 A 
HETATM    8  C   UNL     1      44.646 -20.223   4.819  1.00  0.00     0.073 A 
HETATM    9  C   UNL     1      44.201 -19.919   3.528  1.00  0.00     0.067 A 
HETATM   10  C   UNL     1      42.268 -16.899   3.868  1.00  0.00     0.041 A 
ENDROOT
BRANCH   1  11
HETATM   11  C   UNL     1      41.354 -16.380   1.480  1.00  0.00     0.059 C 
BRANCH  11  12
HETATM   12  C   UNL     1      39.864 -16.313   1.829  1.00  0.00     0.033 C 
BRANCH  12  13
HETATM   13  C   UNL     1      39.469 -14.996   2.488  1.00  0.00     0.233 C 
BRANCH  13  14
HETATM   14  N   UNL     1      40.275 -13.874   1.919  1.00  0.00    -0.067 N 
HETATM   15  H   UNL     1      39.736 -13.433   1.160  1.00  0.00     0.277 HD
HETATM   16  H   UNL     1      41.131 -14.220   1.467  1.00  0.00     0.277 HD
BRANCH  14  17
HETATM   17  C   UNL     1      40.679 -12.773   2.863  1.00  0.00     0.223 C 
HETATM   18  C   UNL     1      39.512 -12.424   3.786  1.00  0.00     0.046 C 
BRANCH  17  19
HETATM   19  C   UNL     1      41.891 -13.166   3.650  1.00  0.00     0.032 A 
HETATM   20  S   UNL     1      41.867 -13.299   5.366  1.00  0.00    -0.076 SA
HETATM   21  C   UNL     1      43.525 -13.747   5.353  1.00  0.00     0.071 A 
HETATM   22  C   UNL     1      44.248 -14.050   6.621  1.00  0.00     0.078 C 
HETATM   23  N   UNL     1      44.074 -13.806   4.160  1.00  0.00    -0.257 NA
HETATM   24  C   UNL     1      43.158 -13.464   3.192  1.00  0.00     0.134 A 
ENDBRANCH  17  19
ENDBRANCH  14  17
ENDBRANCH  13  14
ENDBRANCH  12  13
ENDBRANCH  11  12
ENDBRANCH   1  11
BRANCH   6  25
HETATM   25  O   UNL     1      43.182 -17.364   6.713  1.00  0.00    -0.355 OA
HETATM   26  C   UNL     1      43.460 -17.754   8.052  1.00  0.00     0.210 C 
ENDBRANCH   6  25
BRANCH   8  27
HETATM   27  O   UNL     1      45.395 -21.368   4.887  1.00  0.00    -0.356 OA
HETATM   28  C   UNL     1      44.744 -22.590   4.560  1.00  0.00     0.210 C 
ENDBRANCH   8  27
TORSDOF 8
ENDMDL
MODEL 6
REMARK VINA RESULT:      -7.0      2.514      5.082
REMARK  8 active torsions:
REMARK  status: ('A' for Active; 'I' for Inactive)
REMARK    1  A    between atoms: C_4  and  C_5 
REMARK    2  A    between atoms: C_5  and  N_6 
REMARK    3  A    between atoms: N_6  and  C_9 
REMARK    4  A    between atoms: C_9  and  C_10 
REMARK    5  A    between atoms: C_10  and  C_11 
REMARK    6  A    between atoms: C_11  and  C_12 
REMARK    7  A    between atoms: C_17  and  O_18 
REMARK    8  A    between atoms: C_21  and  O_22 
ROOT
HETATM    1  C   UNL     1      43.276 -16.283   4.439  1.00  0.00     0.010 A 
HETATM    2  N   UNL     1      43.607 -16.979   3.300  1.00  0.00    -0.359 N 
HETATM    3  H   UNL     1      43.592 -16.614   2.356  1.00  0.00     0.166 HD
HETATM    4  C   UNL     1      43.937 -18.278   3.607  1.00  0.00     0.048 A 
HETATM    5  C   UNL     1      43.832 -18.423   4.987  1.00  0.00     0.026 A 
HETATM    6  C   UNL     1      44.116 -19.676   5.579  1.00  0.00     0.083 A 
HETATM    7  C   UNL     1      44.490 -20.740   4.737  1.00  0.00     0.074 A 
HETATM    8  C   UNL     1      44.576 -20.573   3.352  1.00  0.00     0.073 A 
HETATM    9  C   UNL     1      44.311 -19.331   2.767  1.00  0.00     0.067 A 
HETATM   10  C   UNL     1      43.416 -17.159   5.498  1.00  0.00     0.041 A 
ENDROOT
BRANCH   1  11
HETATM   11  C   UNL     1      42.825 -14.865   4.404  1.00  0.00     0.059 C 
BRANCH  11  12
HETATM   12  C   UNL     1      43.440 -14.105   3.225  1.00  0.00     0.033 C 
BRANCH  12  13
HETATM   13  C   UNL     1      42.390 -13.520   2.287  1.00  0.00     0.233 C 
BRANCH  13  14
HETATM   14  N   UNL     1      41.327 -14.533   2.008  1.00  0.00    -0.067 N 
HETATM   15  H   UNL     1      40.421 -14.048   1.939  1.00  0.00     0.277 HD
HETATM   16  H   UNL     1      41.217 -15.185   2.795  1.00  0.00     0.277 HD
BRANCH  14  17
HETATM   17  C   UNL     1      41.477 -15.357   0.758  1.00  0.00     0.223 C 
HETATM   18  C   UNL     1      41.125 -16.815   1.050  1.00  0.00     0.046 C 
BRANCH  17  19
HETATM   19  C   UNL     1      40.624 -14.808  -0.345  1.00  0.00     0.032 A 
HETATM   20  S   UNL     1      39.228 -13.851  -0.036  1.00  0.00    -0.076 SA
HETATM   21  C   UNL     1      38.951 -13.711  -1.725  1.00  0.00     0.071 A 
HETATM   22  C   UNL     1      37.792 -12.934  -2.251  1.00  0.00     0.078 C 
HETATM   23  N   UNL     1      39.832 -14.324  -2.484  1.00  0.00    -0.257 NA
HETATM   24  C   UNL     1      40.775 -14.959  -1.708  1.00  0.00     0.134 A 
ENDBRANCH  17  19
ENDBRANCH  14  17
ENDBRANCH  13  14
ENDBRANCH  12  13
ENDBRANCH  11  12
ENDBRANCH   1  11
BRANCH   6  25
HETATM   25  O   UNL     1      44.002 -19.751   6.943  1.00  0.00    -0.355 OA
HETATM   26  C   UNL     1      43.573 -20.990   7.495  1.00  0.00     0.210 C 
ENDBRANCH   6  25
BRANCH   8  27
HETATM   27  O   UNL     1      44.921 -21.544   2.448  1.00  0.00    -0.356 OA
HETATM   28  C   UNL     1      43.937 -21.920   1.492  1.00  0.00     0.210 C 
ENDBRANCH   8  27
TORSDOF 8
ENDMDL
MODEL 7
REMARK VINA RESULT:      -6.9      3.788      5.557
REMARK  8 active torsions:
REMARK  status: ('A' for Active; 'I' for Inactive)
REMARK    1  A    between atoms: C_4  and  C_5 
REMARK    2  A    between atoms: C_5  and  N_6 
REMARK    3  A    between atoms: N_6  and  C_9 
REMARK    4  A    between atoms: C_9  and  C_10 
REMARK    5  A    between atoms: C_10  and  C_11 
REMARK    6  A    between atoms: C_11  and  C_12 
REMARK    7  A    between atoms: C_17  and  O_18 
REMARK    8  A    between atoms: C_21  and  O_22 
ROOT
HETATM    1  C   UNL     1      40.869 -16.695   2.435  1.00  0.00     0.010 A 
HETATM    2  N   UNL     1      41.516 -17.621   1.649  1.00  0.00    -0.359 N 
HETATM    3  H   UNL     1      41.345 -17.789   0.667  1.00  0.00     0.166 HD
HETATM    4  C   UNL     1      42.429 -18.331   2.394  1.00  0.00     0.048 A 
HETATM    5  C   UNL     1      42.382 -17.841   3.696  1.00  0.00     0.026 A 
HETATM    6  C   UNL     1      43.226 -18.402   4.682  1.00  0.00     0.083 A 
HETATM    7  C   UNL     1      44.084 -19.452   4.304  1.00  0.00     0.074 A 
HETATM    8  C   UNL     1      44.104 -19.936   2.993  1.00  0.00     0.073 A 
HETATM    9  C   UNL     1      43.281 -19.371   2.014  1.00  0.00     0.067 A 
HETATM   10  C   UNL     1      41.397 -16.810   3.706  1.00  0.00     0.041 A 
ENDROOT
BRANCH   1  11
HETATM   11  C   UNL     1      39.789 -15.819   1.907  1.00  0.00     0.059 C 
BRANCH  11  12
HETATM   12  C   UNL     1      40.352 -14.678   1.054  1.00  0.00     0.033 C 
BRANCH  12  13
HETATM   13  C   UNL     1      39.293 -14.014   0.181  1.00  0.00     0.233 C 
BRANCH  13  14
HETATM   14  N   UNL     1      39.394 -14.514  -1.223  1.00  0.00    -0.067 N 
HETATM   15  H   UNL     1      38.943 -13.831  -1.849  1.00  0.00     0.277 HD
HETATM   16  H   UNL     1      38.857 -15.382  -1.350  1.00  0.00     0.277 HD
BRANCH  14  17
HETATM   17  C   UNL     1      40.776 -14.757  -1.766  1.00  0.00     0.223 C 
HETATM   18  C   UNL     1      40.739 -15.879  -2.802  1.00  0.00     0.046 C 
BRANCH  17  19
HETATM   19  C   UNL     1      41.344 -13.501  -2.352  1.00  0.00     0.032 A 
HETATM   20  S   UNL     1      40.531 -12.614  -3.583  1.00  0.00    -0.076 SA
HETATM   21  C   UNL     1      41.814 -11.471  -3.605  1.00  0.00     0.071 A 
HETATM   22  C   UNL     1      41.782 -10.299  -4.525  1.00  0.00     0.078 C 
HETATM   23  N   UNL     1      42.786 -11.714  -2.755  1.00  0.00    -0.257 NA
HETATM   24  C   UNL     1      42.534 -12.870  -2.052  1.00  0.00     0.134 A 
ENDBRANCH  17  19
ENDBRANCH  14  17
ENDBRANCH  13  14
ENDBRANCH  12  13
ENDBRANCH  11  12
ENDBRANCH   1  11
BRANCH   6  25
HETATM   25  O   UNL     1      43.137 -17.869   5.942  1.00  0.00    -0.355 OA
HETATM   26  C   UNL     1      44.294 -17.224   6.460  1.00  0.00     0.210 C 
ENDBRANCH   6  25
BRANCH   8  27
HETATM   27  O   UNL     1      44.892 -20.956   2.528  1.00  0.00    -0.356 OA
HETATM   28  C   UNL     1      44.264 -21.948   1.724  1.00  0.00     0.210 C 
ENDBRANCH   8  27
TORSDOF 8
ENDMDL
MODEL 8
REMARK VINA RESULT:      -6.9      2.889      4.319
REMARK  8 active torsions:
REMARK  status: ('A' for Active; 'I' for Inactive)
REMARK    1  A    between atoms: C_4  and  C_5 
REMARK    2  A    between atoms: C_5  and  N_6 
REMARK    3  A    between atoms: N_6  and  C_9 
REMARK    4  A    between atoms: C_9  and  C_10 
REMARK    5  A    between atoms: C_10  and  C_11 
REMARK    6  A    between atoms: C_11  and  C_12 
REMARK    7  A    between atoms: C_17  and  O_18 
REMARK    8  A    between atoms: C_21  and  O_22 
ROOT
HETATM    1  C   UNL     1      43.378 -16.760   3.141  1.00  0.00     0.010 A 
HETATM    2  N   UNL     1      44.007 -17.962   2.916  1.00  0.00    -0.359 N 
HETATM    3  H   UNL     1      44.397 -18.273   2.036  1.00  0.00     0.166 HD
HETATM    4  C   UNL     1      44.013 -18.725   4.060  1.00  0.00     0.048 A 
HETATM    5  C   UNL     1      43.382 -17.989   5.059  1.00  0.00     0.026 A 
HETATM    6  C   UNL     1      43.245 -18.545   6.352  1.00  0.00     0.083 A 
HETATM    7  C   UNL     1      43.752 -19.838   6.578  1.00  0.00     0.074 A 
HETATM    8  C   UNL     1      44.371 -20.563   5.556  1.00  0.00     0.073 A 
HETATM    9  C   UNL     1      44.520 -20.008   4.280  1.00  0.00     0.067 A 
HETATM   10  C   UNL     1      42.988 -16.754   4.466  1.00  0.00     0.041 A 
ENDROOT
BRANCH   1  11
HETATM   11  C   UNL     1      43.177 -15.753   2.065  1.00  0.00     0.059 C 
BRANCH  11  12
HETATM   12  C   UNL     1      42.302 -16.299   0.933  1.00  0.00     0.033 C 
BRANCH  12  13
HETATM   13  C   UNL     1      40.816 -16.285   1.275  1.00  0.00     0.233 C 
BRANCH  13  14
HETATM   14  N   UNL     1      40.084 -15.363   0.356  1.00  0.00    -0.067 N 
HETATM   15  H   UNL     1      39.163 -15.772   0.143  1.00  0.00     0.277 HD
HETATM   16  H   UNL     1      40.556 -15.290  -0.555  1.00  0.00     0.277 HD
BRANCH  14  17
HETATM   17  C   UNL     1      39.836 -13.961   0.846  1.00  0.00     0.223 C 
HETATM   18  C   UNL     1      39.820 -13.939   2.374  1.00  0.00     0.046 C 
BRANCH  17  19
HETATM   19  C   UNL     1      40.867 -13.019   0.304  1.00  0.00     0.032 A 
HETATM   20  S   UNL     1      40.923 -12.577  -1.358  1.00  0.00    -0.076 SA
HETATM   21  C   UNL     1      42.287 -11.580  -1.046  1.00  0.00     0.071 A 
HETATM   22  C   UNL     1      42.936 -10.803  -2.140  1.00  0.00     0.078 C 
HETATM   23  N   UNL     1      42.683 -11.561   0.207  1.00  0.00    -0.257 NA
HETATM   24  C   UNL     1      41.893 -12.385   0.975  1.00  0.00     0.134 A 
ENDBRANCH  17  19
ENDBRANCH  14  17
ENDBRANCH  13  14
ENDBRANCH  12  13
ENDBRANCH  11  12
ENDBRANCH   1  11
BRANCH   6  25
HETATM   25  O   UNL     1      42.622 -17.766   7.293  1.00  0.00    -0.355 OA
HETATM   26  C   UNL     1      43.422 -17.258   8.353  1.00  0.00     0.210 C 
ENDBRANCH   6  25
BRANCH   8  27
HETATM   27  O   UNL     1      44.887 -21.828   5.669  1.00  0.00    -0.356 OA
HETATM   28  C   UNL     1      44.753 -22.688   4.544  1.00  0.00     0.210 C 
ENDBRANCH   8  27
TORSDOF 8
ENDMDL
MODEL 9
REMARK VINA RESULT:      -6.9      3.500      5.495
REMARK  8 active torsions:
REMARK  status: ('A' for Active; 'I' for Inactive)
REMARK    1  A    between atoms: C_4  and  C_5 
REMARK    2  A    between atoms: C_5  and  N_6 
REMARK    3  A    between atoms: N_6  and  C_9 
REMARK    4  A    between atoms: C_9  and  C_10 
REMARK    5  A    between atoms: C_10  and  C_11 
REMARK    6  A    between atoms: C_11  and  C_12 
REMARK    7  A    between atoms: C_17  and  O_18 
REMARK    8  A    between atoms: C_21  and  O_22 
ROOT
HETATM    1  C   UNL     1      41.581 -16.546   1.786  1.00  0.00     0.010 A 
HETATM    2  N   UNL     1      42.111 -17.715   1.292  1.00  0.00    -0.359 N 
HETATM    3  H   UNL     1      41.954 -18.094   0.368  1.00  0.00     0.166 HD
HETATM    4  C   UNL     1      42.875 -18.340   2.250  1.00  0.00     0.048 A 
HETATM    5  C   UNL     1      42.852 -17.543   3.392  1.00  0.00     0.026 A 
HETATM    6  C   UNL     1      43.562 -17.956   4.543  1.00  0.00     0.083 A 
HETATM    7  C   UNL     1      44.265 -19.174   4.489  1.00  0.00     0.074 A 
HETATM    8  C   UNL     1      44.264 -19.963   3.336  1.00  0.00     0.073 A 
HETATM    9  C   UNL     1      43.575 -19.548   2.192  1.00  0.00     0.067 A 
HETATM   10  C   UNL     1      42.035 -16.417   3.084  1.00  0.00     0.041 A 
ENDROOT
BRANCH   1  11
HETATM   11  C   UNL     1      40.668 -15.685   0.986  1.00  0.00     0.059 C 
BRANCH  11  12
HETATM   12  C   UNL     1      40.455 -14.319   1.645  1.00  0.00     0.033 C 
BRANCH  12  13
HETATM   13  C   UNL     1      41.294 -13.218   1.007  1.00  0.00     0.233 C 
BRANCH  13  14
HETATM   14  N   UNL     1      40.466 -12.432   0.043  1.00  0.00    -0.067 N 
HETATM   15  H   UNL     1      40.270 -11.508   0.454  1.00  0.00     0.277 HD
HETATM   16  H   UNL     1      39.541 -12.861  -0.092  1.00  0.00     0.277 HD
BRANCH  14  17
HETATM   17  C   UNL     1      41.050 -12.188  -1.323  1.00  0.00     0.223 C 
HETATM   18  C   UNL     1      42.550 -11.916  -1.206  1.00  0.00     0.046 C 
BRANCH  17  19
HETATM   19  C   UNL     1      40.782 -13.349  -2.230  1.00  0.00     0.032 A 
HETATM   20  S   UNL     1      39.208 -14.014  -2.429  1.00  0.00    -0.076 SA
HETATM   21  C   UNL     1      39.836 -15.171  -3.533  1.00  0.00     0.071 A 
HETATM   22  C   UNL     1      38.947 -16.179  -4.177  1.00  0.00     0.078 C 
HETATM   23  N   UNL     1      41.128 -15.078  -3.755  1.00  0.00    -0.257 NA
HETATM   24  C   UNL     1      41.674 -14.057  -3.010  1.00  0.00     0.134 A 
ENDBRANCH  17  19
ENDBRANCH  14  17
ENDBRANCH  13  14
ENDBRANCH  12  13
ENDBRANCH  11  12
ENDBRANCH   1  11
BRANCH   6  25
HETATM   25  O   UNL     1      43.506 -17.124   5.631  1.00  0.00    -0.355 OA
HETATM   26  C   UNL     1      44.553 -17.230   6.587  1.00  0.00     0.210 C 
ENDBRANCH   6  25
BRANCH   8  27
HETATM   27  O   UNL     1      44.906 -21.164   3.185  1.00  0.00    -0.356 OA
HETATM   28  C   UNL     1      44.361 -22.080   2.243  1.00  0.00     0.210 C 
ENDBRANCH   8  27
TORSDOF 8
ENDMDL
MODEL 10
REMARK VINA RESULT:      -6.8      2.983      5.355
REMARK  8 active torsions:
REMARK  status: ('A' for Active; 'I' for Inactive)
REMARK    1  A    between atoms: C_4  and  C_5 
REMARK    2  A    between atoms: C_5  and  N_6 
REMARK    3  A    between atoms: N_6  and  C_9 
REMARK    4  A    between atoms: C_9  and  C_10 
REMARK    5  A    between atoms: C_10  and  C_11 
REMARK    6  A    between atoms: C_11  and  C_12 
REMARK    7  A    between atoms: C_17  and  O_18 
REMARK    8  A    between atoms: C_21  and  O_22 
ROOT
HETATM    1  C   UNL     1      41.088 -15.074   4.564  1.00  0.00     0.010 A 
HETATM    2  N   UNL     1      41.524 -16.267   4.038  1.00  0.00    -0.359 N 
HETATM    3  H   UNL     1      41.111 -16.757   3.255  1.00  0.00     0.166 HD
HETATM    4  C   UNL     1      42.600 -16.743   4.750  1.00  0.00     0.048 A 
HETATM    5  C   UNL     1      42.878 -15.823   5.756  1.00  0.00     0.026 A 
HETATM    6  C   UNL     1      43.948 -16.068   6.647  1.00  0.00     0.083 A 
HETATM    7  C   UNL     1      44.692 -17.252   6.484  1.00  0.00     0.074 A 
HETATM    8  C   UNL     1      44.386 -18.168   5.474  1.00  0.00     0.073 A 
HETATM    9  C   UNL     1      43.337 -17.918   4.582  1.00  0.00     0.067 A 
HETATM   10  C   UNL     1      41.919 -14.776   5.626  1.00  0.00     0.041 A 
ENDROOT
BRANCH   1  11
HETATM   11  C   UNL     1      39.902 -14.352   4.026  1.00  0.00     0.059 C 
BRANCH  11  12
HETATM   12  C   UNL     1      40.178 -13.763   2.640  1.00  0.00     0.033 C 
BRANCH  12  13
HETATM   13  C   UNL     1      39.219 -14.282   1.575  1.00  0.00     0.233 C 
BRANCH  13  14
HETATM   14  N   UNL     1      39.770 -15.519   0.944  1.00  0.00    -0.067 N 
HETATM   15  H   UNL     1      39.182 -15.766   0.135  1.00  0.00     0.277 HD
HETATM   16  H   UNL     1      39.697 -16.326   1.578  1.00  0.00     0.277 HD
BRANCH  14  17
HETATM   17  C   UNL     1      41.190 -15.463   0.450  1.00  0.00     0.223 C 
HETATM   18  C   UNL     1      41.814 -16.857   0.496  1.00  0.00     0.046 C 
BRANCH  17  19
HETATM   19  C   UNL     1      41.248 -14.892  -0.934  1.00  0.00     0.032 A 
HETATM   20  S   UNL     1      41.668 -13.251  -1.234  1.00  0.00    -0.076 SA
HETATM   21  C   UNL     1      41.479 -13.511  -2.921  1.00  0.00     0.071 A 
HETATM   22  C   UNL     1      41.711 -12.410  -3.898  1.00  0.00     0.078 C 
HETATM   23  N   UNL     1      41.133 -14.734  -3.257  1.00  0.00    -0.257 NA
HETATM   24  C   UNL     1      40.986 -15.518  -2.136  1.00  0.00     0.134 A 
ENDBRANCH  17  19
ENDBRANCH  14  17
ENDBRANCH  13  14
ENDBRANCH  12  13
ENDBRANCH  11  12
ENDBRANCH   1  11
BRANCH   6  25
HETATM   25  O   UNL     1      44.176 -15.119   7.611  1.00  0.00    -0.355 OA
HETATM   26  C   UNL     1      44.990 -14.010   7.254  1.00  0.00     0.210 C 
ENDBRANCH   6  25
BRANCH   8  27
HETATM   27  O   UNL     1      45.039 -19.349   5.238  1.00  0.00    -0.356 OA
HETATM   28  C   UNL     1      44.410 -20.542   5.689  1.00  0.00     0.210 C 
ENDBRANCH   8  27
TORSDOF 8
ENDMDL
