MODEL 1
REMARK VINA RESULT:      -8.0      0.000      0.000
REMARK  5 active torsions:
REMARK  status: ('A' for Active; 'I' for Inactive)
REMARK    1  A    between atoms: C_9  and  C_10 
REMARK       I    between atoms: C_10  and  N_11 
REMARK    2  A    between atoms: N_11  and  C_12 
REMARK    3  A    between atoms: C_12  and  C_13 
REMARK    4  A    between atoms: C_12  and  C_16 
REMARK    5  A    between atoms: C_19  and  O_20 
ROOT
HETATM    1  C   UNL     1      41.293 -16.916   1.707  1.00  0.00     0.273 C 
HETATM    2  N   UNL     1      40.881 -15.610   1.801  1.00  0.00    -0.346 N 
HETATM    3  O   UNL     1      40.957 -17.677   0.804  1.00  0.00    -0.266 OA
HETATM    4  H   UNL     1      41.256 -15.089   2.586  1.00  0.00     0.163 HD
ENDROOT
BRANCH   2   5
HETATM    5  C   UNL     1      40.061 -14.951   0.817  1.00  0.00     0.122 C 
BRANCH   5   6
HETATM    6  C   UNL     1      38.886 -14.226   1.437  1.00  0.00     0.013 A 
HETATM    7  C   UNL     1      38.174 -13.117   0.693  1.00  0.00     0.007 A 
HETATM    8  C   UNL     1      37.450 -14.401   0.989  1.00  0.00     0.007 A 
ENDBRANCH   5   6
BRANCH   5   9
HETATM    9  C   UNL     1      40.917 -13.988   0.010  1.00  0.00    -0.035 A 
HETATM   10  C   UNL     1      41.495 -12.874   0.635  1.00  0.00     0.012 A 
HETATM   11  C   UNL     1      42.260 -11.964  -0.099  1.00  0.00     0.037 A 
HETATM   12  C   UNL     1      42.457 -12.140  -1.469  1.00  0.00     0.068 A 
HETATM   13  C   UNL     1      41.884 -13.241  -2.103  1.00  0.00     0.037 A 
HETATM   14  C   UNL     1      41.119 -14.156  -1.369  1.00  0.00     0.012 A 
BRANCH  12  15
HETATM   15  O   UNL     1      43.221 -11.174  -2.066  1.00  0.00    -0.356 OA
HETATM   16  C   UNL     1      43.596 -10.065  -1.261  1.00  0.00     0.210 C 
ENDBRANCH  12  15
ENDBRANCH   5   9
ENDBRANCH   2   5
BRANCH   1  17
HETATM   17  C   UNL     1      42.194 -17.307   2.806  1.00  0.00     0.157 A 
HETATM   18  C   UNL     1      42.974 -18.496   2.907  1.00  0.00     0.029 A 
HETATM   19  C   UNL     1      43.182 -19.646   2.118  1.00  0.00     0.023 A 
HETATM   20  C   UNL     1      43.657 -18.379   4.111  1.00  0.00     0.063 A 
HETATM   21  C   UNL     1      44.067 -20.642   2.565  1.00  0.00    -0.061 A 
HETATM   22  C   UNL     1      44.309 -21.871   1.737  1.00  0.00     0.048 C 
HETATM   23  C   UNL     1      44.739 -20.481   3.783  1.00  0.00     0.009 A 
HETATM   24  C   UNL     1      44.548 -19.348   4.582  1.00  0.00     0.032 A 
HETATM   25  N   UNL     1      43.258 -17.183   4.637  1.00  0.00    -0.277 N 
HETATM   26  H   UNL     1      43.558 -16.769   5.512  1.00  0.00     0.189 HD
HETATM   27  N   UNL     1      42.374 -16.507   3.882  1.00  0.00    -0.168 NA
ENDBRANCH   1  17
TORSDOF 5
ENDMDL
MODEL 2
REMARK VINA RESULT:      -7.9      3.334      4.497
REMARK  5 active torsions:
REMARK  status: ('A' for Active; 'I' for Inactive)
REMARK    1  A    between atoms: C_9  and  C_10 
REMARK       I    between atoms: C_10  and  N_11 
REMARK    2  A    between atoms: N_11  and  C_12 
REMARK    3  A    between atoms: C_12  and  C_13 
REMARK    4  A    between atoms: C_12  and  C_16 
REMARK    5  A    between atoms: C_19  and  O_20 
ROOT
HETATM    1  C   UNL     1      43.061 -16.390   3.199  1.00  0.00     0.273 C 
HETATM    2  N   UNL     1      41.940 -15.760   3.679  1.00  0.00    -0.346 N 
HETATM    3  O   UNL     1      43.586 -16.125   2.121  1.00  0.00    -0.266 OA
HETATM    4  H   UNL     1      41.628 -16.063   4.595  1.00  0.00     0.163 HD
ENDROOT
BRANCH   2   5
HETATM    5  C   UNL     1      41.283 -14.665   3.014  1.00  0.00     0.122 C 
BRANCH   5   6
HETATM    6  C   UNL     1      40.163 -15.128   2.107  1.00  0.00     0.013 A 
HETATM    7  C   UNL     1      39.195 -14.139   1.496  1.00  0.00     0.007 A 
HETATM    8  C   UNL     1      40.138 -14.904   0.609  1.00  0.00     0.007 A 
ENDBRANCH   5   6
BRANCH   5   9
HETATM    9  C   UNL     1      40.758 -13.686   4.052  1.00  0.00    -0.035 A 
HETATM   10  C   UNL     1      39.882 -14.130   5.052  1.00  0.00     0.012 A 
HETATM   11  C   UNL     1      39.368 -13.236   5.995  1.00  0.00     0.037 A 
HETATM   12  C   UNL     1      39.709 -11.883   5.956  1.00  0.00     0.068 A 
HETATM   13  C   UNL     1      40.575 -11.429   4.963  1.00  0.00     0.037 A 
HETATM   14  C   UNL     1      41.093 -12.322   4.018  1.00  0.00     0.012 A 
BRANCH  12  15
HETATM   15  O   UNL     1      39.133 -11.119   6.934  1.00  0.00    -0.356 OA
HETATM   16  C   UNL     1      39.525 -11.389   8.273  1.00  0.00     0.210 C 
ENDBRANCH  12  15
ENDBRANCH   5   9
ENDBRANCH   2   5
BRANCH   1  17
HETATM   17  C   UNL     1      43.574 -17.417   4.122  1.00  0.00     0.157 A 
HETATM   18  C   UNL     1      43.882 -18.777   3.822  1.00  0.00     0.029 A 
HETATM   19  C   UNL     1      43.829 -19.604   2.682  1.00  0.00     0.023 A 
HETATM   20  C   UNL     1      44.345 -19.315   5.017  1.00  0.00     0.063 A 
HETATM   21  C   UNL     1      44.239 -20.945   2.778  1.00  0.00    -0.061 A 
HETATM   22  C   UNL     1      44.197 -21.842   1.574  1.00  0.00     0.048 C 
HETATM   23  C   UNL     1      44.703 -21.445   4.002  1.00  0.00     0.009 A 
HETATM   24  C   UNL     1      44.765 -20.641   5.146  1.00  0.00     0.032 A 
HETATM   25  N   UNL     1      44.283 -18.291   5.920  1.00  0.00    -0.277 N 
HETATM   26  H   UNL     1      44.547 -18.323   6.898  1.00  0.00     0.189 HD
HETATM   27  N   UNL     1      43.820 -17.132   5.421  1.00  0.00    -0.168 NA
ENDBRANCH   1  17
TORSDOF 5
ENDMDL
MODEL 3
REMARK VINA RESULT:      -7.8      3.696      5.621
REMARK  5 active torsions:
REMARK  status: ('A' for Active; 'I' for Inactive)
REMARK    1  A    between atoms: C_9  and  C_10 
REMARK       I    between atoms: C_10  and  N_11 
REMARK    2  A    between atoms: N_11  and  C_12 
REMARK    3  A    between atoms: C_12  and  C_13 
REMARK    4  A    between atoms: C_12  and  C_16 
REMARK    5  A    between atoms: C_19  and  O_20 
ROOT
HETATM    1  C   UNL     1      43.836 -18.061   2.409  1.00  0.00     0.273 C 
HETATM    2  N   UNL     1      42.942 -17.584   3.336  1.00  0.00    -0.346 N 
HETATM    3  O   UNL     1      44.338 -17.373   1.525  1.00  0.00    -0.266 OA
HETATM    4  H   UNL     1      42.626 -18.258   4.025  1.00  0.00     0.163 HD
ENDROOT
BRANCH   2   5
HETATM    5  C   UNL     1      42.535 -16.206   3.429  1.00  0.00     0.122 C 
BRANCH   5   6
HETATM    6  C   UNL     1      41.030 -16.046   3.419  1.00  0.00     0.013 A 
HETATM    7  C   UNL     1      40.374 -14.814   4.004  1.00  0.00     0.007 A 
HETATM    8  C   UNL     1      40.286 -15.075   2.525  1.00  0.00     0.007 A 
ENDBRANCH   5   6
BRANCH   5   9
HETATM    9  C   UNL     1      43.130 -15.588   4.684  1.00  0.00    -0.035 A 
HETATM   10  C   UNL     1      43.208 -16.341   5.865  1.00  0.00     0.012 A 
HETATM   11  C   UNL     1      43.725 -15.778   7.034  1.00  0.00     0.037 A 
HETATM   12  C   UNL     1      44.165 -14.454   7.054  1.00  0.00     0.068 A 
HETATM   13  C   UNL     1      44.088 -13.693   5.889  1.00  0.00     0.037 A 
HETATM   14  C   UNL     1      43.573 -14.256   4.715  1.00  0.00     0.012 A 
BRANCH  12  15
HETATM   15  O   UNL     1      44.643 -14.028   8.264  1.00  0.00    -0.356 OA
HETATM   16  C   UNL     1      44.799 -12.625   8.434  1.00  0.00     0.210 C 
ENDBRANCH  12  15
ENDBRANCH   5   9
ENDBRANCH   2   5
BRANCH   1  17
HETATM   17  C   UNL     1      44.138 -19.491   2.596  1.00  0.00     0.157 A 
HETATM   18  C   UNL     1      44.194 -20.212   3.825  1.00  0.00     0.029 A 
HETATM   19  C   UNL     1      44.020 -19.909   5.191  1.00  0.00     0.023 A 
HETATM   20  C   UNL     1      44.494 -21.520   3.464  1.00  0.00     0.063 A 
HETATM   21  C   UNL     1      44.154 -20.928   6.149  1.00  0.00    -0.061 A 
HETATM   22  C   UNL     1      43.966 -20.629   7.609  1.00  0.00     0.048 C 
HETATM   23  C   UNL     1      44.453 -22.234   5.741  1.00  0.00     0.009 A 
HETATM   24  C   UNL     1      44.631 -22.557   4.390  1.00  0.00     0.032 A 
HETATM   25  N   UNL     1      44.600 -21.502   2.101  1.00  0.00    -0.277 N 
HETATM   26  H   UNL     1      44.808 -22.285   1.494  1.00  0.00     0.189 HD
HETATM   27  N   UNL     1      44.395 -20.297   1.541  1.00  0.00    -0.168 NA
ENDBRANCH   1  17
TORSDOF 5
ENDMDL
MODEL 4
REMARK VINA RESULT:      -7.6      2.333      7.707
REMARK  5 active torsions:
REMARK  status: ('A' for Active; 'I' for Inactive)
REMARK    1  A    between atoms: C_9  and  C_10 
REMARK       I    between atoms: C_10  and  N_11 
REMARK    2  A    between atoms: N_11  and  C_12 
REMARK    3  A    between atoms: C_12  and  C_13 
REMARK    4  A    between atoms: C_12  and  C_16 
REMARK    5  A    between atoms: C_19  and  O_20 
ROOT
HETATM    1  C   UNL     1      42.090 -14.347   2.065  1.00  0.00     0.273 C 
HETATM    2  N   UNL     1      42.172 -15.532   2.754  1.00  0.00    -0.346 N 
HETATM    3  O   UNL     1      42.860 -13.405   2.228  1.00  0.00    -0.266 OA
HETATM    4  H   UNL     1      41.485 -16.234   2.501  1.00  0.00     0.163 HD
ENDROOT
BRANCH   2   5
HETATM    5  C   UNL     1      43.213 -15.843   3.700  1.00  0.00     0.122 C 
BRANCH   5   6
HETATM    6  C   UNL     1      42.794 -15.572   5.129  1.00  0.00     0.013 A 
HETATM    7  C   UNL     1      43.777 -15.019   6.137  1.00  0.00     0.007 A 
HETATM    8  C   UNL     1      42.602 -14.186   5.708  1.00  0.00     0.007 A 
ENDBRANCH   5   6
BRANCH   5   9
HETATM    9  C   UNL     1      43.629 -17.296   3.532  1.00  0.00    -0.035 A 
HETATM   10  C   UNL     1      43.600 -17.890   2.262  1.00  0.00     0.012 A 
HETATM   11  C   UNL     1      43.952 -19.231   2.096  1.00  0.00     0.037 A 
HETATM   12  C   UNL     1      44.329 -20.011   3.191  1.00  0.00     0.068 A 
HETATM   13  C   UNL     1      44.356 -19.434   4.460  1.00  0.00     0.037 A 
HETATM   14  C   UNL     1      44.007 -18.088   4.628  1.00  0.00     0.012 A 
BRANCH  12  15
HETATM   15  O   UNL     1      44.643 -21.308   2.890  1.00  0.00    -0.356 OA
HETATM   16  C   UNL     1      44.040 -21.860   1.727  1.00  0.00     0.210 C 
ENDBRANCH  12  15
ENDBRANCH   5   9
ENDBRANCH   2   5
BRANCH   1  17
HETATM   17  C   UNL     1      40.977 -14.330   1.100  1.00  0.00     0.157 A 
HETATM   18  C   UNL     1      40.995 -13.828  -0.235  1.00  0.00     0.029 A 
HETATM   19  C   UNL     1      41.944 -13.214  -1.078  1.00  0.00     0.023 A 
HETATM   20  C   UNL     1      39.716 -14.060  -0.726  1.00  0.00     0.063 A 
HETATM   21  C   UNL     1      41.577 -12.852  -2.386  1.00  0.00    -0.061 A 
HETATM   22  C   UNL     1      42.574 -12.203  -3.303  1.00  0.00     0.048 C 
HETATM   23  C   UNL     1      40.278 -13.109  -2.841  1.00  0.00     0.009 A 
HETATM   24  C   UNL     1      39.320 -13.717  -2.021  1.00  0.00     0.032 A 
HETATM   25  N   UNL     1      39.039 -14.656   0.301  1.00  0.00    -0.277 N 
HETATM   26  H   UNL     1      38.075 -14.969   0.297  1.00  0.00     0.189 HD
HETATM   27  N   UNL     1      39.762 -14.833   1.419  1.00  0.00    -0.168 NA
ENDBRANCH   1  17
TORSDOF 5
ENDMDL
MODEL 5
REMARK VINA RESULT:      -7.6      3.763      5.484
REMARK  5 active torsions:
REMARK  status: ('A' for Active; 'I' for Inactive)
REMARK    1  A    between atoms: C_9  and  C_10 
REMARK       I    between atoms: C_10  and  N_11 
REMARK    2  A    between atoms: N_11  and  C_12 
REMARK    3  A    between atoms: C_12  and  C_13 
REMARK    4  A    between atoms: C_12  and  C_16 
REMARK    5  A    between atoms: C_19  and  O_20 
ROOT
HETATM    1  C   UNL     1      43.133 -17.474   6.627  1.00  0.00     0.273 C 
HETATM    2  N   UNL     1      43.906 -16.372   6.355  1.00  0.00    -0.346 N 
HETATM    3  O   UNL     1      42.146 -17.455   7.356  1.00  0.00    -0.266 OA
HETATM    4  H   UNL     1      44.678 -16.526   5.716  1.00  0.00     0.163 HD
ENDROOT
BRANCH   2   5
HETATM    5  C   UNL     1      43.614 -15.046   6.834  1.00  0.00     0.122 C 
BRANCH   5   6
HETATM    6  C   UNL     1      44.809 -14.396   7.500  1.00  0.00     0.013 A 
HETATM    7  C   UNL     1      45.558 -13.267   6.827  1.00  0.00     0.007 A 
HETATM    8  C   UNL     1      44.794 -13.004   8.096  1.00  0.00     0.007 A 
ENDBRANCH   5   6
BRANCH   5   9
HETATM    9  C   UNL     1      43.116 -14.190   5.680  1.00  0.00    -0.035 A 
HETATM   10  C   UNL     1      42.153 -13.198   5.910  1.00  0.00     0.012 A 
HETATM   11  C   UNL     1      41.664 -12.424   4.855  1.00  0.00     0.037 A 
HETATM   12  C   UNL     1      42.117 -12.628   3.550  1.00  0.00     0.068 A 
HETATM   13  C   UNL     1      43.071 -13.615   3.308  1.00  0.00     0.037 A 
HETATM   14  C   UNL     1      43.565 -14.390   4.364  1.00  0.00     0.012 A 
BRANCH  12  15
HETATM   15  O   UNL     1      41.553 -11.806   2.613  1.00  0.00    -0.356 OA
HETATM   16  C   UNL     1      40.259 -11.295   2.904  1.00  0.00     0.210 C 
ENDBRANCH  12  15
ENDBRANCH   5   9
ENDBRANCH   2   5
BRANCH   1  17
HETATM   17  C   UNL     1      43.613 -18.685   5.940  1.00  0.00     0.157 A 
HETATM   18  C   UNL     1      43.774 -18.880   4.536  1.00  0.00     0.029 A 
HETATM   19  C   UNL     1      43.565 -18.113   3.372  1.00  0.00     0.023 A 
HETATM   20  C   UNL     1      44.268 -20.172   4.405  1.00  0.00     0.063 A 
HETATM   21  C   UNL     1      43.857 -18.668   2.115  1.00  0.00    -0.061 A 
HETATM   22  C   UNL     1      43.648 -17.865   0.862  1.00  0.00     0.048 C 
HETATM   23  C   UNL     1      44.358 -19.973   2.028  1.00  0.00     0.009 A 
HETATM   24  C   UNL     1      44.573 -20.753   3.171  1.00  0.00     0.032 A 
HETATM   25  N   UNL     1      44.364 -20.653   5.681  1.00  0.00    -0.277 N 
HETATM   26  H   UNL     1      44.691 -21.568   5.966  1.00  0.00     0.189 HD
HETATM   27  N   UNL     1      43.976 -19.789   6.634  1.00  0.00    -0.168 NA
ENDBRANCH   1  17
TORSDOF 5
ENDMDL
MODEL 6
REMARK VINA RESULT:      -7.5      6.622      8.864
REMARK  5 active torsions:
REMARK  status: ('A' for Active; 'I' for Inactive)
REMARK    1  A    between atoms: C_9  and  C_10 
REMARK       I    between atoms: C_10  and  N_11 
REMARK    2  A    between atoms: N_11  and  C_12 
REMARK    3  A    between atoms: C_12  and  C_13 
REMARK    4  A    between atoms: C_12  and  C_16 
REMARK    5  A    between atoms: C_19  and  O_20 
ROOT
HETATM    1  C   UNL     1      45.110 -13.183   7.932  1.00  0.00     0.273 C 
HETATM    2  N   UNL     1      44.255 -14.235   7.715  1.00  0.00    -0.346 N 
HETATM    3  O   UNL     1      46.060 -12.910   7.203  1.00  0.00    -0.266 OA
HETATM    4  H   UNL     1      43.499 -14.328   8.384  1.00  0.00     0.163 HD
ENDROOT
BRANCH   2   5
HETATM    5  C   UNL     1      44.324 -15.106   6.570  1.00  0.00     0.122 C 
BRANCH   5   6
HETATM    6  C   UNL     1      44.057 -16.552   6.927  1.00  0.00     0.013 A 
HETATM    7  C   UNL     1      43.960 -17.615   5.855  1.00  0.00     0.007 A 
HETATM    8  C   UNL     1      45.095 -17.652   6.840  1.00  0.00     0.007 A 
ENDBRANCH   5   6
BRANCH   5   9
HETATM    9  C   UNL     1      43.340 -14.627   5.513  1.00  0.00    -0.035 A 
HETATM   10  C   UNL     1      41.963 -14.802   5.709  1.00  0.00     0.012 A 
HETATM   11  C   UNL     1      41.049 -14.395   4.734  1.00  0.00     0.037 A 
HETATM   12  C   UNL     1      41.488 -13.814   3.543  1.00  0.00     0.068 A 
HETATM   13  C   UNL     1      42.855 -13.640   3.334  1.00  0.00     0.037 A 
HETATM   14  C   UNL     1      43.773 -14.045   4.310  1.00  0.00     0.012 A 
BRANCH  12  15
HETATM   15  O   UNL     1      40.489 -13.466   2.674  1.00  0.00    -0.356 OA
HETATM   16  C   UNL     1      39.471 -14.432   2.449  1.00  0.00     0.210 C 
ENDBRANCH  12  15
ENDBRANCH   5   9
ENDBRANCH   2   5
BRANCH   1  17
HETATM   17  C   UNL     1      44.760 -12.407   9.134  1.00  0.00     0.157 A 
HETATM   18  C   UNL     1      43.687 -11.479   9.286  1.00  0.00     0.029 A 
HETATM   19  C   UNL     1      42.657 -10.973   8.466  1.00  0.00     0.023 A 
HETATM   20  C   UNL     1      43.774 -11.037  10.600  1.00  0.00     0.063 A 
HETATM   21  C   UNL     1      41.750 -10.038   8.993  1.00  0.00    -0.061 A 
HETATM   22  C   UNL     1      40.641  -9.491   8.140  1.00  0.00     0.048 C 
HETATM   23  C   UNL     1      41.871  -9.623  10.325  1.00  0.00     0.009 A 
HETATM   24  C   UNL     1      42.886 -10.112  11.156  1.00  0.00     0.032 A 
HETATM   25  N   UNL     1      44.849 -11.694  11.131  1.00  0.00    -0.277 N 
HETATM   26  H   UNL     1      45.206 -11.617  12.076  1.00  0.00     0.189 HD
HETATM   27  N   UNL     1      45.471 -12.526  10.279  1.00  0.00    -0.168 NA
ENDBRANCH   1  17
TORSDOF 5
ENDMDL
MODEL 7
REMARK VINA RESULT:      -7.5      2.327      7.224
REMARK  5 active torsions:
REMARK  status: ('A' for Active; 'I' for Inactive)
REMARK    1  A    between atoms: C_9  and  C_10 
REMARK       I    between atoms: C_10  and  N_11 
REMARK    2  A    between atoms: N_11  and  C_12 
REMARK    3  A    between atoms: C_12  and  C_13 
REMARK    4  A    between atoms: C_12  and  C_16 
REMARK    5  A    between atoms: C_19  and  O_20 
ROOT
HETATM    1  C   UNL     1      41.433 -14.784   2.139  1.00  0.00     0.273 C 
HETATM    2  N   UNL     1      42.565 -15.229   2.776  1.00  0.00    -0.346 N 
HETATM    3  O   UNL     1      40.293 -15.093   2.474  1.00  0.00    -0.266 OA
HETATM    4  H   UNL     1      43.441 -14.875   2.408  1.00  0.00     0.163 HD
ENDROOT
BRANCH   2   5
HETATM    5  C   UNL     1      42.554 -16.055   3.955  1.00  0.00     0.122 C 
BRANCH   5   6
HETATM    6  C   UNL     1      41.186 -16.125   4.599  1.00  0.00     0.013 A 
HETATM    7  C   UNL     1      40.933 -17.015   5.797  1.00  0.00     0.007 A 
HETATM    8  C   UNL     1      40.852 -15.521   5.947  1.00  0.00     0.007 A 
ENDBRANCH   5   6
BRANCH   5   9
HETATM    9  C   UNL     1      43.049 -17.449   3.600  1.00  0.00    -0.035 A 
HETATM   10  C   UNL     1      43.977 -18.093   4.429  1.00  0.00     0.012 A 
HETATM   11  C   UNL     1      44.463 -19.361   4.100  1.00  0.00     0.037 A 
HETATM   12  C   UNL     1      44.042 -20.008   2.937  1.00  0.00     0.068 A 
HETATM   13  C   UNL     1      43.123 -19.375   2.102  1.00  0.00     0.037 A 
HETATM   14  C   UNL     1      42.632 -18.105   2.430  1.00  0.00     0.012 A 
BRANCH  12  15
HETATM   15  O   UNL     1      44.599 -21.241   2.734  1.00  0.00    -0.356 OA
HETATM   16  C   UNL     1      44.139 -21.974   1.606  1.00  0.00     0.210 C 
ENDBRANCH  12  15
ENDBRANCH   5   9
ENDBRANCH   2   5
BRANCH   1  17
HETATM   17  C   UNL     1      41.733 -13.886   1.011  1.00  0.00     0.157 A 
HETATM   18  C   UNL     1      41.474 -14.114  -0.373  1.00  0.00     0.029 A 
HETATM   19  C   UNL     1      40.910 -15.151  -1.144  1.00  0.00     0.023 A 
HETATM   20  C   UNL     1      41.922 -12.968  -1.019  1.00  0.00     0.063 A 
HETATM   21  C   UNL     1      40.816 -15.004  -2.538  1.00  0.00    -0.061 A 
HETATM   22  C   UNL     1      40.212 -16.092  -3.379  1.00  0.00     0.048 C 
HETATM   23  C   UNL     1      41.275 -13.829  -3.148  1.00  0.00     0.009 A 
HETATM   24  C   UNL     1      41.839 -12.788  -2.402  1.00  0.00     0.032 A 
HETATM   25  N   UNL     1      42.405 -12.161  -0.027  1.00  0.00    -0.277 N 
HETATM   26  H   UNL     1      42.811 -11.239  -0.133  1.00  0.00     0.189 HD
HETATM   27  N   UNL     1      42.313 -12.679   1.210  1.00  0.00    -0.168 NA
ENDBRANCH   1  17
TORSDOF 5
ENDMDL
MODEL 8
REMARK VINA RESULT:      -7.4      2.442      3.479
REMARK  5 active torsions:
REMARK  status: ('A' for Active; 'I' for Inactive)
REMARK    1  A    between atoms: C_9  and  C_10 
REMARK       I    between atoms: C_10  and  N_11 
REMARK    2  A    between atoms: N_11  and  C_12 
REMARK    3  A    between atoms: C_12  and  C_13 
REMARK    4  A    between atoms: C_12  and  C_16 
REMARK    5  A    between atoms: C_19  and  O_20 
ROOT
HETATM    1  C   UNL     1      41.260 -16.711   5.591  1.00  0.00     0.273 C 
HETATM    2  N   UNL     1      41.545 -15.993   4.456  1.00  0.00    -0.346 N 
HETATM    3  O   UNL     1      40.225 -16.584   6.240  1.00  0.00    -0.266 OA
HETATM    4  H   UNL     1      42.427 -16.217   4.007  1.00  0.00     0.163 HD
ENDROOT
BRANCH   2   5
HETATM    5  C   UNL     1      40.638 -15.056   3.846  1.00  0.00     0.122 C 
BRANCH   5   6
HETATM    6  C   UNL     1      40.902 -13.630   4.281  1.00  0.00     0.013 A 
HETATM    7  C   UNL     1      39.761 -12.682   4.577  1.00  0.00     0.007 A 
HETATM    8  C   UNL     1      40.676 -13.117   5.688  1.00  0.00     0.007 A 
ENDBRANCH   5   6
BRANCH   5   9
HETATM    9  C   UNL     1      40.728 -15.178   2.333  1.00  0.00    -0.035 A 
HETATM   10  C   UNL     1      41.254 -16.342   1.756  1.00  0.00     0.012 A 
HETATM   11  C   UNL     1      41.370 -16.457   0.369  1.00  0.00     0.037 A 
HETATM   12  C   UNL     1      40.975 -15.414  -0.470  1.00  0.00     0.068 A 
HETATM   13  C   UNL     1      40.456 -14.249   0.092  1.00  0.00     0.037 A 
HETATM   14  C   UNL     1      40.336 -14.131   1.482  1.00  0.00     0.012 A 
BRANCH  12  15
HETATM   15  O   UNL     1      41.148 -15.656  -1.806  1.00  0.00    -0.356 OA
HETATM   16  C   UNL     1      40.954 -14.557  -2.687  1.00  0.00     0.210 C 
ENDBRANCH  12  15
ENDBRANCH   5   9
ENDBRANCH   2   5
BRANCH   1  17
HETATM   17  C   UNL     1      42.330 -17.659   5.945  1.00  0.00     0.157 A 
HETATM   18  C   UNL     1      43.025 -18.549   5.073  1.00  0.00     0.029 A 
HETATM   19  C   UNL     1      42.985 -18.864   3.700  1.00  0.00     0.023 A 
HETATM   20  C   UNL     1      43.942 -19.208   5.884  1.00  0.00     0.063 A 
HETATM   21  C   UNL     1      43.865 -19.830   3.185  1.00  0.00    -0.061 A 
HETATM   22  C   UNL     1      43.845 -20.176   1.723  1.00  0.00     0.048 C 
HETATM   23  C   UNL     1      44.777 -20.467   4.037  1.00  0.00     0.009 A 
HETATM   24  C   UNL     1      44.834 -20.170   5.404  1.00  0.00     0.032 A 
HETATM   25  N   UNL     1      43.746 -18.698   7.137  1.00  0.00    -0.277 N 
HETATM   26  H   UNL     1      44.244 -18.948   7.983  1.00  0.00     0.189 HD
HETATM   27  N   UNL     1      42.781 -17.766   7.217  1.00  0.00    -0.168 NA
ENDBRANCH   1  17
TORSDOF 5
ENDMDL
MODEL 9
REMARK VINA RESULT:      -7.4      1.859      2.740
REMARK  5 active torsions:
REMARK  status: ('A' for Active; 'I' for Inactive)
REMARK    1  A    between atoms: C_9  and  C_10 
REMARK       I    between atoms: C_10  and  N_11 
REMARK    2  A    between atoms: N_11  and  C_12 
REMARK    3  A    between atoms: C_12  and  C_13 
REMARK    4  A    between atoms: C_12  and  C_16 
REMARK    5  A    between atoms: C_19  and  O_20 
ROOT
HETATM    1  C   UNL     1      40.846 -15.739   0.037  1.00  0.00     0.273 C 
HETATM    2  N   UNL     1      39.892 -14.845  -0.381  1.00  0.00    -0.346 N 
HETATM    3  O   UNL     1      41.671 -16.259  -0.709  1.00  0.00    -0.266 OA
HETATM    4  H   UNL     1      39.291 -14.475   0.348  1.00  0.00     0.163 HD
ENDROOT
BRANCH   2   5
HETATM    5  C   UNL     1      39.783 -14.353  -1.730  1.00  0.00     0.122 C 
BRANCH   5   6
HETATM    6  C   UNL     1      38.353 -14.044  -2.119  1.00  0.00     0.013 A 
HETATM    7  C   UNL     1      38.032 -13.379  -3.440  1.00  0.00     0.007 A 
HETATM    8  C   UNL     1      37.584 -14.793  -3.188  1.00  0.00     0.007 A 
ENDBRANCH   5   6
BRANCH   5   9
HETATM    9  C   UNL     1      40.659 -13.120  -1.889  1.00  0.00    -0.035 A 
HETATM   10  C   UNL     1      41.733 -13.137  -2.790  1.00  0.00     0.012 A 
HETATM   11  C   UNL     1      42.564 -12.022  -2.927  1.00  0.00     0.037 A 
HETATM   12  C   UNL     1      42.348 -10.874  -2.163  1.00  0.00     0.068 A 
HETATM   13  C   UNL     1      41.286 -10.846  -1.260  1.00  0.00     0.037 A 
HETATM   14  C   UNL     1      40.450 -11.961  -1.124  1.00  0.00     0.012 A 
BRANCH  12  15
HETATM   15  O   UNL     1      43.237  -9.859  -2.392  1.00  0.00    -0.356 OA
HETATM   16  C   UNL     1      43.998  -9.410  -1.279  1.00  0.00     0.210 C 
ENDBRANCH  12  15
ENDBRANCH   5   9
ENDBRANCH   2   5
BRANCH   1  17
HETATM   17  C   UNL     1      40.781 -16.002   1.485  1.00  0.00     0.157 A 
HETATM   18  C   UNL     1      41.539 -16.954   2.229  1.00  0.00     0.029 A 
HETATM   19  C   UNL     1      42.527 -17.917   1.938  1.00  0.00     0.023 A 
HETATM   20  C   UNL     1      41.124 -16.799   3.545  1.00  0.00     0.063 A 
HETATM   21  C   UNL     1      43.064 -18.694   2.979  1.00  0.00    -0.061 A 
HETATM   22  C   UNL     1      44.123 -19.720   2.694  1.00  0.00     0.048 C 
HETATM   23  C   UNL     1      42.620 -18.501   4.293  1.00  0.00     0.009 A 
HETATM   24  C   UNL     1      41.640 -17.550   4.604  1.00  0.00     0.032 A 
HETATM   25  N   UNL     1      40.180 -15.811   3.511  1.00  0.00    -0.277 N 
HETATM   26  H   UNL     1      39.661 -15.433   4.295  1.00  0.00     0.189 HD
HETATM   27  N   UNL     1      39.942 -15.308   2.287  1.00  0.00    -0.168 NA
ENDBRANCH   1  17
TORSDOF 5
ENDMDL
MODEL 10
REMARK VINA RESULT:      -7.3      3.280      7.306
REMARK  5 active torsions:
REMARK  status: ('A' for Active; 'I' for Inactive)
REMARK    1  A    between atoms: C_9  and  C_10 
REMARK       I    between atoms: C_10  and  N_11 
REMARK    2  A    between atoms: N_11  and  C_12 
REMARK    3  A    between atoms: C_12  and  C_13 
REMARK    4  A    between atoms: C_12  and  C_16 
REMARK    5  A    between atoms: C_19  and  O_20 
ROOT
HETATM    1  C   UNL     1      41.475 -15.461   1.521  1.00  0.00     0.273 C 
HETATM    2  N   UNL     1      42.621 -15.711   2.234  1.00  0.00    -0.346 N 
HETATM    3  O   UNL     1      40.420 -16.068   1.686  1.00  0.00    -0.266 OA
HETATM    4  H   UNL     1      43.413 -15.118   2.010  1.00  0.00     0.163 HD
ENDROOT
BRANCH   2   5
HETATM    5  C   UNL     1      42.710 -16.665   3.309  1.00  0.00     0.122 C 
BRANCH   5   6
HETATM    6  C   UNL     1      43.567 -17.860   2.952  1.00  0.00     0.013 A 
HETATM    7  C   UNL     1      43.004 -19.010   2.145  1.00  0.00     0.007 A 
HETATM    8  C   UNL     1      44.086 -18.146   1.558  1.00  0.00     0.007 A 
ENDBRANCH   5   6
BRANCH   5   9
HETATM    9  C   UNL     1      43.248 -15.975   4.552  1.00  0.00    -0.035 A 
HETATM   10  C   UNL     1      43.629 -16.737   5.666  1.00  0.00     0.012 A 
HETATM   11  C   UNL     1      44.098 -16.116   6.826  1.00  0.00     0.037 A 
HETATM   12  C   UNL     1      44.187 -14.725   6.904  1.00  0.00     0.068 A 
HETATM   13  C   UNL     1      43.806 -13.956   5.806  1.00  0.00     0.037 A 
HETATM   14  C   UNL     1      43.338 -14.576   4.641  1.00  0.00     0.012 A 
BRANCH  12  15
HETATM   15  O   UNL     1      44.657 -14.247   8.097  1.00  0.00    -0.356 OA
HETATM   16  C   UNL     1      45.003 -12.870   8.146  1.00  0.00     0.210 C 
ENDBRANCH  12  15
ENDBRANCH   5   9
ENDBRANCH   2   5
BRANCH   1  17
HETATM   17  C   UNL     1      41.644 -14.377   0.538  1.00  0.00     0.157 A 
HETATM   18  C   UNL     1      41.222 -14.368  -0.825  1.00  0.00     0.029 A 
HETATM   19  C   UNL     1      40.566 -15.265  -1.692  1.00  0.00     0.023 A 
HETATM   20  C   UNL     1      41.595 -13.121  -1.310  1.00  0.00     0.063 A 
HETATM   21  C   UNL     1      40.309 -14.882  -3.019  1.00  0.00    -0.061 A 
HETATM   22  C   UNL     1      39.605 -15.819  -3.959  1.00  0.00     0.048 C 
HETATM   23  C   UNL     1      40.698 -13.613  -3.466  1.00  0.00     0.009 A 
HETATM   24  C   UNL     1      41.351 -12.706  -2.622  1.00  0.00     0.032 A 
HETATM   25  N   UNL     1      42.196 -12.489  -0.257  1.00  0.00    -0.277 N 
HETATM   26  H   UNL     1      42.590 -11.556  -0.249  1.00  0.00     0.189 HD
HETATM   27  N   UNL     1      42.248 -13.214   0.873  1.00  0.00    -0.168 NA
ENDBRANCH   1  17
TORSDOF 5
ENDMDL
