MODEL 1
REMARK VINA RESULT:      -8.2      0.000      0.000
REMARK  4 active torsions:
REMARK  status: ('A' for Active; 'I' for Inactive)
REMARK    1  A    between atoms: C_3  and  N_4 
REMARK       I    between atoms: N_4  and  C_5 
REMARK    2  A    between atoms: C_5  and  C_6 
REMARK    3  A    between atoms: C_7  and  C_8 
REMARK    4  A    between atoms: C_16  and  C_17 
ROOT
HETATM    1  C   UNL     1      38.718 -14.401   1.332  1.00  0.00     0.003 A 
HETATM    2  C   UNL     1      39.220 -15.445   2.112  1.00  0.00     0.029 A 
HETATM    3  C   UNL     1      40.415 -16.070   1.761  1.00  0.00     0.035 A 
HETATM    4  C   UNL     1      41.095 -15.644   0.610  1.00  0.00     0.042 A 
HETATM    5  C   UNL     1      40.601 -14.599  -0.191  1.00  0.00    -0.021 A 
HETATM    6  C   UNL     1      39.405 -13.980   0.192  1.00  0.00     0.012 A 
ENDROOT
BRANCH   3   7
HETATM    7  N   UNL     1      41.013 -17.099   2.520  1.00  0.00    -0.327 N 
HETATM    8  C   UNL     1      41.863 -16.958   3.596  1.00  0.00     0.227 C 
HETATM    9  O   UNL     1      42.163 -15.923   4.173  1.00  0.00    -0.273 OA
HETATM   10  H   UNL     1      40.815 -18.043   2.218  1.00  0.00     0.169 HD
BRANCH   8  11
HETATM   11  C   UNL     1      42.473 -18.250   4.032  1.00  0.00     0.089 A 
HETATM   12  C   UNL     1      43.839 -18.603   3.452  1.00  0.00     0.057 A 
HETATM   13  C   UNL     1      43.672 -18.304   4.924  1.00  0.00     0.027 A 
BRANCH  12  14
HETATM   14  C   UNL     1      44.028 -20.032   2.991  1.00  0.00     0.057 A 
HETATM   15  O   UNL     1      44.628 -21.014   3.722  1.00  0.00    -0.327 OA
HETATM   16  C   UNL     1      44.577 -22.148   2.978  1.00  0.00     0.142 A 
HETATM   17  C   UNL     1      43.949 -21.909   1.778  1.00  0.00     0.027 A 
HETATM   18  C   UNL     1      43.597 -20.538   1.784  1.00  0.00     0.035 A 
ENDBRANCH  12  14
ENDBRANCH   8  11
ENDBRANCH   3   7
BRANCH   5  19
HETATM   19  C   UNL     1      41.331 -14.177  -1.380  1.00  0.00     0.010 A 
HETATM   20  C   UNL     1      42.170 -13.059  -1.607  1.00  0.00     0.152 A 
HETATM   21  N   UNL     1      42.673 -13.024  -2.844  1.00  0.00    -0.187 NA
HETATM   22  N   UNL     1      42.160 -14.119  -3.420  1.00  0.00    -0.289 N 
HETATM   23  H   UNL     1      42.404 -14.315  -4.386  1.00  0.00     0.188 HD
HETATM   24  C   UNL     1      41.354 -14.843  -2.589  1.00  0.00     0.123 A 
ENDBRANCH   5  19
TORSDOF 4
ENDMDL
MODEL 2
REMARK VINA RESULT:      -7.7      2.946      7.610
REMARK  4 active torsions:
REMARK  status: ('A' for Active; 'I' for Inactive)
REMARK    1  A    between atoms: C_3  and  N_4 
REMARK       I    between atoms: N_4  and  C_5 
REMARK    2  A    between atoms: C_5  and  C_6 
REMARK    3  A    between atoms: C_7  and  C_8 
REMARK    4  A    between atoms: C_16  and  C_17 
ROOT
HETATM    1  C   UNL     1      44.706 -18.018   6.570  1.00  0.00     0.003 A 
HETATM    2  C   UNL     1      44.056 -16.987   5.888  1.00  0.00     0.029 A 
HETATM    3  C   UNL     1      43.538 -17.206   4.614  1.00  0.00     0.035 A 
HETATM    4  C   UNL     1      43.689 -18.471   4.025  1.00  0.00     0.042 A 
HETATM    5  C   UNL     1      44.347 -19.519   4.693  1.00  0.00    -0.021 A 
HETATM    6  C   UNL     1      44.847 -19.274   5.978  1.00  0.00     0.012 A 
ENDROOT
BRANCH   3   7
HETATM    7  N   UNL     1      42.827 -16.234   3.879  1.00  0.00    -0.327 N 
HETATM    8  C   UNL     1      41.565 -15.744   4.140  1.00  0.00     0.227 C 
HETATM    9  O   UNL     1      40.872 -15.968   5.122  1.00  0.00    -0.273 OA
HETATM   10  H   UNL     1      43.290 -15.879   3.053  1.00  0.00     0.169 HD
BRANCH   8  11
HETATM   11  C   UNL     1      41.036 -14.878   3.045  1.00  0.00     0.089 A 
HETATM   12  C   UNL     1      40.098 -15.530   2.035  1.00  0.00     0.057 A 
HETATM   13  C   UNL     1      39.601 -14.462   2.980  1.00  0.00     0.027 A 
BRANCH  12  14
HETATM   14  C   UNL     1      40.335 -15.196   0.578  1.00  0.00     0.057 A 
HETATM   15  O   UNL     1      39.702 -14.200  -0.105  1.00  0.00    -0.327 OA
HETATM   16  C   UNL     1      40.207 -14.204  -1.366  1.00  0.00     0.142 A 
HETATM   17  C   UNL     1      41.158 -15.188  -1.501  1.00  0.00     0.027 A 
HETATM   18  C   UNL     1      41.239 -15.833  -0.244  1.00  0.00     0.035 A 
ENDBRANCH  12  14
ENDBRANCH   8  11
ENDBRANCH   3   7
BRANCH   5  19
HETATM   19  C   UNL     1      44.488 -20.822   4.056  1.00  0.00     0.010 A 
HETATM   20  C   UNL     1      44.370 -21.210   2.698  1.00  0.00     0.152 A 
HETATM   21  N   UNL     1      44.585 -22.514   2.505  1.00  0.00    -0.187 NA
HETATM   22  N   UNL     1      44.843 -22.973   3.738  1.00  0.00    -0.289 N 
HETATM   23  H   UNL     1      45.043 -23.961   3.852  1.00  0.00     0.188 HD
HETATM   24  C   UNL     1      44.800 -22.003   4.698  1.00  0.00     0.123 A 
ENDBRANCH   5  19
TORSDOF 4
ENDMDL
MODEL 3
REMARK VINA RESULT:      -7.4      2.869      8.319
REMARK  4 active torsions:
REMARK  status: ('A' for Active; 'I' for Inactive)
REMARK    1  A    between atoms: C_3  and  N_4 
REMARK       I    between atoms: N_4  and  C_5 
REMARK    2  A    between atoms: C_5  and  C_6 
REMARK    3  A    between atoms: C_7  and  C_8 
REMARK    4  A    between atoms: C_16  and  C_17 
ROOT
HETATM    1  C   UNL     1      44.735 -20.373   3.810  1.00  0.00     0.003 A 
HETATM    2  C   UNL     1      43.980 -19.726   2.830  1.00  0.00     0.029 A 
HETATM    3  C   UNL     1      43.182 -18.634   3.166  1.00  0.00     0.035 A 
HETATM    4  C   UNL     1      43.140 -18.206   4.502  1.00  0.00     0.042 A 
HETATM    5  C   UNL     1      43.887 -18.851   5.503  1.00  0.00    -0.021 A 
HETATM    6  C   UNL     1      44.691 -19.937   5.135  1.00  0.00     0.012 A 
ENDROOT
BRANCH   3   7
HETATM    7  N   UNL     1      42.428 -17.897   2.229  1.00  0.00    -0.327 N 
HETATM    8  C   UNL     1      41.361 -17.061   2.485  1.00  0.00     0.227 C 
HETATM    9  O   UNL     1      40.944 -16.706   3.578  1.00  0.00    -0.273 OA
HETATM   10  H   UNL     1      42.685 -18.020   1.258  1.00  0.00     0.169 HD
BRANCH   8  11
HETATM   11  C   UNL     1      40.666 -16.604   1.245  1.00  0.00     0.089 A 
HETATM   12  C   UNL     1      40.776 -15.124   0.893  1.00  0.00     0.057 A 
HETATM   13  C   UNL     1      41.413 -16.181   0.021  1.00  0.00     0.027 A 
BRANCH  12  14
HETATM   14  C   UNL     1      39.504 -14.441   0.439  1.00  0.00     0.057 A 
HETATM   15  O   UNL     1      39.255 -14.025  -0.836  1.00  0.00    -0.327 OA
HETATM   16  C   UNL     1      38.007 -13.491  -0.840  1.00  0.00     0.142 A 
HETATM   17  C   UNL     1      37.448 -13.561   0.414  1.00  0.00     0.027 A 
HETATM   18  C   UNL     1      38.418 -14.172   1.244  1.00  0.00     0.035 A 
ENDBRANCH  12  14
ENDBRANCH   8  11
ENDBRANCH   3   7
BRANCH   5  19
HETATM   19  C   UNL     1      43.824 -18.382   6.882  1.00  0.00     0.010 A 
HETATM   20  C   UNL     1      43.478 -17.117   7.419  1.00  0.00     0.152 A 
HETATM   21  N   UNL     1      43.528 -17.083   8.753  1.00  0.00    -0.187 NA
HETATM   22  N   UNL     1      43.906 -18.325   9.083  1.00  0.00    -0.289 N 
HETATM   23  H   UNL     1      44.015 -18.551  10.066  1.00  0.00     0.188 HD
HETATM   24  C   UNL     1      44.094 -19.141   8.004  1.00  0.00     0.123 A 
ENDBRANCH   5  19
TORSDOF 4
ENDMDL
MODEL 4
REMARK VINA RESULT:      -7.3      1.923      2.256
REMARK  4 active torsions:
REMARK  status: ('A' for Active; 'I' for Inactive)
REMARK    1  A    between atoms: C_3  and  N_4 
REMARK       I    between atoms: N_4  and  C_5 
REMARK    2  A    between atoms: C_5  and  C_6 
REMARK    3  A    between atoms: C_7  and  C_8 
REMARK    4  A    between atoms: C_16  and  C_17 
ROOT
HETATM    1  C   UNL     1      41.961 -12.933   0.875  1.00  0.00     0.003 A 
HETATM    2  C   UNL     1      42.204 -13.996   1.746  1.00  0.00     0.029 A 
HETATM    3  C   UNL     1      41.880 -15.299   1.373  1.00  0.00     0.035 A 
HETATM    4  C   UNL     1      41.296 -15.522   0.116  1.00  0.00     0.042 A 
HETATM    5  C   UNL     1      41.036 -14.463  -0.771  1.00  0.00    -0.021 A 
HETATM    6  C   UNL     1      41.384 -13.165  -0.375  1.00  0.00     0.012 A 
ENDROOT
BRANCH   3   7
HETATM    7  N   UNL     1      42.137 -16.431   2.174  1.00  0.00    -0.327 N 
HETATM    8  C   UNL     1      42.997 -17.474   1.899  1.00  0.00     0.227 C 
HETATM    9  O   UNL     1      43.787 -17.557   0.970  1.00  0.00    -0.273 OA
HETATM   10  H   UNL     1      41.608 -16.494   3.034  1.00  0.00     0.169 HD
BRANCH   8  11
HETATM   11  C   UNL     1      42.870 -18.606   2.864  1.00  0.00     0.089 A 
HETATM   12  C   UNL     1      44.119 -18.990   3.651  1.00  0.00     0.057 A 
HETATM   13  C   UNL     1      42.913 -18.401   4.344  1.00  0.00     0.027 A 
BRANCH  12  14
HETATM   14  C   UNL     1      44.410 -20.470   3.777  1.00  0.00     0.057 A 
HETATM   15  O   UNL     1      44.652 -21.120   4.951  1.00  0.00    -0.327 OA
HETATM   16  C   UNL     1      44.838 -22.430   4.646  1.00  0.00     0.142 A 
HETATM   17  C   UNL     1      44.717 -22.631   3.292  1.00  0.00     0.027 A 
HETATM   18  C   UNL     1      44.444 -21.363   2.727  1.00  0.00     0.035 A 
ENDBRANCH  12  14
ENDBRANCH   8  11
ENDBRANCH   3   7
BRANCH   5  19
HETATM   19  C   UNL     1      40.429 -14.726  -2.070  1.00  0.00     0.010 A 
HETATM   20  C   UNL     1      40.607 -15.798  -2.979  1.00  0.00     0.152 A 
HETATM   21  N   UNL     1      39.852 -15.687  -4.075  1.00  0.00    -0.187 NA
HETATM   22  N   UNL     1      39.184 -14.542  -3.878  1.00  0.00    -0.289 N 
HETATM   23  H   UNL     1      38.530 -14.237  -4.592  1.00  0.00     0.188 HD
HETATM   24  C   UNL     1      39.490 -13.931  -2.696  1.00  0.00     0.123 A 
ENDBRANCH   5  19
TORSDOF 4
ENDMDL
MODEL 5
REMARK VINA RESULT:      -7.3      3.223      7.663
REMARK  4 active torsions:
REMARK  status: ('A' for Active; 'I' for Inactive)
REMARK    1  A    between atoms: C_3  and  N_4 
REMARK       I    between atoms: N_4  and  C_5 
REMARK    2  A    between atoms: C_5  and  C_6 
REMARK    3  A    between atoms: C_7  and  C_8 
REMARK    4  A    between atoms: C_16  and  C_17 
ROOT
HETATM    1  C   UNL     1      43.936 -17.564   5.655  1.00  0.00     0.003 A 
HETATM    2  C   UNL     1      43.371 -16.515   4.927  1.00  0.00     0.029 A 
HETATM    3  C   UNL     1      43.005 -16.701   3.596  1.00  0.00     0.035 A 
HETATM    4  C   UNL     1      43.224 -17.952   2.997  1.00  0.00     0.042 A 
HETATM    5  C   UNL     1      43.798 -19.017   3.712  1.00  0.00    -0.021 A 
HETATM    6  C   UNL     1      44.145 -18.806   5.053  1.00  0.00     0.012 A 
ENDROOT
BRANCH   3   7
HETATM    7  N   UNL     1      42.386 -15.709   2.807  1.00  0.00    -0.327 N 
HETATM    8  C   UNL     1      42.761 -14.388   2.677  1.00  0.00     0.227 C 
HETATM    9  O   UNL     1      43.768 -13.857   3.123  1.00  0.00    -0.273 OA
HETATM   10  H   UNL     1      41.557 -15.996   2.303  1.00  0.00     0.169 HD
BRANCH   8  11
HETATM   11  C   UNL     1      41.765 -13.568   1.925  1.00  0.00     0.089 A 
HETATM   12  C   UNL     1      40.477 -13.199   2.654  1.00  0.00     0.057 A 
HETATM   13  C   UNL     1      41.484 -12.140   2.270  1.00  0.00     0.027 A 
BRANCH  12  14
HETATM   14  C   UNL     1      39.192 -13.336   1.866  1.00  0.00     0.057 A 
HETATM   15  O   UNL     1      38.608 -14.521   1.529  1.00  0.00    -0.327 OA
HETATM   16  C   UNL     1      37.467 -14.221   0.856  1.00  0.00     0.142 A 
HETATM   17  C   UNL     1      37.309 -12.859   0.759  1.00  0.00     0.027 A 
HETATM   18  C   UNL     1      38.427 -12.284   1.410  1.00  0.00     0.035 A 
ENDBRANCH  12  14
ENDBRANCH   8  11
ENDBRANCH   3   7
BRANCH   5  19
HETATM   19  C   UNL     1      44.013 -20.305   3.064  1.00  0.00     0.010 A 
HETATM   20  C   UNL     1      44.624 -21.493   3.536  1.00  0.00     0.152 A 
HETATM   21  N   UNL     1      44.618 -22.479   2.636  1.00  0.00    -0.187 NA
HETATM   22  N   UNL     1      44.003 -21.932   1.579  1.00  0.00    -0.289 N 
HETATM   23  H   UNL     1      43.875 -22.501   0.748  1.00  0.00     0.188 HD
HETATM   24  C   UNL     1      43.620 -20.637   1.783  1.00  0.00     0.123 A 
ENDBRANCH   5  19
TORSDOF 4
ENDMDL
MODEL 6
REMARK VINA RESULT:      -7.2      2.648      7.373
REMARK  4 active torsions:
REMARK  status: ('A' for Active; 'I' for Inactive)
REMARK    1  A    between atoms: C_3  and  N_4 
REMARK       I    between atoms: N_4  and  C_5 
REMARK    2  A    between atoms: C_5  and  C_6 
REMARK    3  A    between atoms: C_7  and  C_8 
REMARK    4  A    between atoms: C_16  and  C_17 
ROOT
HETATM    1  C   UNL     1      43.981 -17.628   5.636  1.00  0.00     0.003 A 
HETATM    2  C   UNL     1      43.524 -16.549   4.877  1.00  0.00     0.029 A 
HETATM    3  C   UNL     1      43.232 -16.715   3.525  1.00  0.00     0.035 A 
HETATM    4  C   UNL     1      43.415 -17.977   2.938  1.00  0.00     0.042 A 
HETATM    5  C   UNL     1      43.882 -19.074   3.685  1.00  0.00    -0.021 A 
HETATM    6  C   UNL     1      44.155 -18.881   5.045  1.00  0.00     0.012 A 
ENDROOT
BRANCH   3   7
HETATM    7  N   UNL     1      42.722 -15.690   2.701  1.00  0.00    -0.327 N 
HETATM    8  C   UNL     1      41.426 -15.218   2.657  1.00  0.00     0.227 C 
HETATM    9  O   UNL     1      40.505 -15.512   3.405  1.00  0.00    -0.273 OA
HETATM   10  H   UNL     1      43.377 -15.277   2.052  1.00  0.00     0.169 HD
BRANCH   8  11
HETATM   11  C   UNL     1      41.187 -14.272   1.527  1.00  0.00     0.089 A 
HETATM   12  C   UNL     1      40.437 -14.814   0.315  1.00  0.00     0.057 A 
HETATM   13  C   UNL     1      39.824 -13.752   1.197  1.00  0.00     0.027 A 
BRANCH  12  14
HETATM   14  C   UNL     1      40.987 -14.439  -1.044  1.00  0.00     0.057 A 
HETATM   15  O   UNL     1      41.786 -13.362  -1.291  1.00  0.00    -0.327 OA
HETATM   16  C   UNL     1      42.085 -13.388  -2.615  1.00  0.00     0.142 A 
HETATM   17  C   UNL     1      41.491 -14.468  -3.223  1.00  0.00     0.027 A 
HETATM   18  C   UNL     1      40.776 -15.148  -2.208  1.00  0.00     0.035 A 
ENDBRANCH  12  14
ENDBRANCH   8  11
ENDBRANCH   3   7
BRANCH   5  19
HETATM   19  C   UNL     1      44.061 -20.372   3.048  1.00  0.00     0.010 A 
HETATM   20  C   UNL     1      44.682 -21.558   3.514  1.00  0.00     0.152 A 
HETATM   21  N   UNL     1      44.634 -22.557   2.629  1.00  0.00    -0.187 NA
HETATM   22  N   UNL     1      43.982 -22.021   1.589  1.00  0.00    -0.289 N 
HETATM   23  H   UNL     1      43.817 -22.601   0.772  1.00  0.00     0.188 HD
HETATM   24  C   UNL     1      43.616 -20.720   1.789  1.00  0.00     0.123 A 
ENDBRANCH   5  19
TORSDOF 4
ENDMDL
MODEL 7
REMARK VINA RESULT:      -7.0      1.818      3.140
REMARK  4 active torsions:
REMARK  status: ('A' for Active; 'I' for Inactive)
REMARK    1  A    between atoms: C_3  and  N_4 
REMARK       I    between atoms: N_4  and  C_5 
REMARK    2  A    between atoms: C_5  and  C_6 
REMARK    3  A    between atoms: C_7  and  C_8 
REMARK    4  A    between atoms: C_16  and  C_17 
ROOT
HETATM    1  C   UNL     1      39.030 -14.562   1.662  1.00  0.00     0.003 A 
HETATM    2  C   UNL     1      39.946 -15.202   2.499  1.00  0.00     0.029 A 
HETATM    3  C   UNL     1      41.166 -15.647   1.994  1.00  0.00     0.035 A 
HETATM    4  C   UNL     1      41.452 -15.453   0.633  1.00  0.00     0.042 A 
HETATM    5  C   UNL     1      40.538 -14.817  -0.226  1.00  0.00    -0.021 A 
HETATM    6  C   UNL     1      39.325 -14.369   0.312  1.00  0.00     0.012 A 
ENDROOT
BRANCH   3   7
HETATM    7  N   UNL     1      42.164 -16.259   2.781  1.00  0.00    -0.327 N 
HETATM    8  C   UNL     1      42.646 -17.547   2.669  1.00  0.00     0.227 C 
HETATM    9  O   UNL     1      42.389 -18.360   1.794  1.00  0.00    -0.273 OA
HETATM   10  H   UNL     1      42.547 -15.695   3.528  1.00  0.00     0.169 HD
BRANCH   8  11
HETATM   11  C   UNL     1      43.550 -17.932   3.793  1.00  0.00     0.089 A 
HETATM   12  C   UNL     1      42.957 -18.803   4.895  1.00  0.00     0.057 A 
HETATM   13  C   UNL     1      44.036 -19.334   3.981  1.00  0.00     0.027 A 
BRANCH  12  14
HETATM   14  C   UNL     1      43.297 -18.419   6.319  1.00  0.00     0.057 A 
HETATM   15  O   UNL     1      44.266 -19.010   7.074  1.00  0.00    -0.327 OA
HETATM   16  C   UNL     1      44.279 -18.368   8.271  1.00  0.00     0.142 A 
HETATM   17  C   UNL     1      43.334 -17.370   8.293  1.00  0.00     0.027 A 
HETATM   18  C   UNL     1      42.694 -17.405   7.031  1.00  0.00     0.035 A 
ENDBRANCH  12  14
ENDBRANCH   8  11
ENDBRANCH   3   7
BRANCH   5  19
HETATM   19  C   UNL     1      40.864 -14.629  -1.634  1.00  0.00     0.010 A 
HETATM   20  C   UNL     1      40.327 -15.228  -2.800  1.00  0.00     0.152 A 
HETATM   21  N   UNL     1      40.887 -14.779  -3.926  1.00  0.00    -0.187 NA
HETATM   22  N   UNL     1      41.789 -13.888  -3.491  1.00  0.00    -0.289 N 
HETATM   23  H   UNL     1      42.355 -13.401  -4.178  1.00  0.00     0.188 HD
HETATM   24  C   UNL     1      41.813 -13.760  -2.132  1.00  0.00     0.123 A 
ENDBRANCH   5  19
TORSDOF 4
ENDMDL
MODEL 8
REMARK VINA RESULT:      -6.9      3.391      8.039
REMARK  4 active torsions:
REMARK  status: ('A' for Active; 'I' for Inactive)
REMARK    1  A    between atoms: C_3  and  N_4 
REMARK       I    between atoms: N_4  and  C_5 
REMARK    2  A    between atoms: C_5  and  C_6 
REMARK    3  A    between atoms: C_7  and  C_8 
REMARK    4  A    between atoms: C_16  and  C_17 
ROOT
HETATM    1  C   UNL     1      44.413 -17.804   5.723  1.00  0.00     0.003 A 
HETATM    2  C   UNL     1      43.322 -16.989   5.420  1.00  0.00     0.029 A 
HETATM    3  C   UNL     1      42.458 -17.329   4.382  1.00  0.00     0.035 A 
HETATM    4  C   UNL     1      42.709 -18.494   3.640  1.00  0.00     0.042 A 
HETATM    5  C   UNL     1      43.808 -19.323   3.925  1.00  0.00    -0.021 A 
HETATM    6  C   UNL     1      44.653 -18.964   4.983  1.00  0.00     0.012 A 
ENDROOT
BRANCH   3   7
HETATM    7  N   UNL     1      41.307 -16.585   4.043  1.00  0.00    -0.327 N 
HETATM    8  C   UNL     1      41.063 -15.913   2.864  1.00  0.00     0.227 C 
HETATM    9  O   UNL     1      41.739 -15.932   1.846  1.00  0.00    -0.273 OA
HETATM   10  H   UNL     1      40.597 -16.518   4.760  1.00  0.00     0.169 HD
BRANCH   8  11
HETATM   11  C   UNL     1      39.838 -15.061   2.921  1.00  0.00     0.089 A 
HETATM   12  C   UNL     1      39.913 -13.691   2.254  1.00  0.00     0.057 A 
HETATM   13  C   UNL     1      39.010 -14.773   1.710  1.00  0.00     0.027 A 
BRANCH  12  14
HETATM   14  C   UNL     1      39.319 -12.531   3.023  1.00  0.00     0.057 A 
HETATM   15  O   UNL     1      39.621 -12.216   4.314  1.00  0.00    -0.327 OA
HETATM   16  C   UNL     1      38.908 -11.103   4.627  1.00  0.00     0.142 A 
HETATM   17  C   UNL     1      38.152 -10.698   3.552  1.00  0.00     0.027 A 
HETATM   18  C   UNL     1      38.414 -11.623   2.514  1.00  0.00     0.035 A 
ENDBRANCH  12  14
ENDBRANCH   8  11
ENDBRANCH   3   7
BRANCH   5  19
HETATM   19  C   UNL     1      44.043 -20.527   3.138  1.00  0.00     0.010 A 
HETATM   20  C   UNL     1      44.630 -21.768   3.490  1.00  0.00     0.152 A 
HETATM   21  N   UNL     1      44.656 -22.641   2.480  1.00  0.00    -0.187 NA
HETATM   22  N   UNL     1      44.087 -21.967   1.471  1.00  0.00    -0.289 N 
HETATM   23  H   UNL     1      43.990 -22.432   0.574  1.00  0.00     0.188 HD
HETATM   24  C   UNL     1      43.701 -20.702   1.812  1.00  0.00     0.123 A 
ENDBRANCH   5  19
TORSDOF 4
ENDMDL
MODEL 9
REMARK VINA RESULT:      -6.8      2.786      8.113
REMARK  4 active torsions:
REMARK  status: ('A' for Active; 'I' for Inactive)
REMARK    1  A    between atoms: C_3  and  N_4 
REMARK       I    between atoms: N_4  and  C_5 
REMARK    2  A    between atoms: C_5  and  C_6 
REMARK    3  A    between atoms: C_7  and  C_8 
REMARK    4  A    between atoms: C_16  and  C_17 
ROOT
HETATM    1  C   UNL     1      43.892 -18.958   2.110  1.00  0.00     0.003 A 
HETATM    2  C   UNL     1      43.269 -17.871   1.496  1.00  0.00     0.029 A 
HETATM    3  C   UNL     1      42.686 -16.868   2.268  1.00  0.00     0.035 A 
HETATM    4  C   UNL     1      42.725 -16.976   3.667  1.00  0.00     0.042 A 
HETATM    5  C   UNL     1      43.343 -18.068   4.302  1.00  0.00    -0.021 A 
HETATM    6  C   UNL     1      43.932 -19.054   3.502  1.00  0.00     0.012 A 
ENDROOT
BRANCH   3   7
HETATM    7  N   UNL     1      42.080 -15.715   1.727  1.00  0.00    -0.327 N 
HETATM    8  C   UNL     1      40.735 -15.501   1.509  1.00  0.00     0.227 C 
HETATM    9  O   UNL     1      39.805 -16.217   1.853  1.00  0.00    -0.273 OA
HETATM   10  H   UNL     1      42.708 -14.976   1.443  1.00  0.00     0.169 HD
BRANCH   8  11
HETATM   11  C   UNL     1      40.459 -14.255   0.733  1.00  0.00     0.089 A 
HETATM   12  C   UNL     1      40.212 -14.409  -0.764  1.00  0.00     0.057 A 
HETATM   13  C   UNL     1      39.110 -13.953   0.164  1.00  0.00     0.027 A 
BRANCH  12  14
HETATM   14  C   UNL     1      40.897 -13.408  -1.669  1.00  0.00     0.057 A 
HETATM   15  O   UNL     1      40.568 -12.089  -1.761  1.00  0.00    -0.327 OA
HETATM   16  C   UNL     1      41.427 -11.530  -2.652  1.00  0.00     0.142 A 
HETATM   17  C   UNL     1      42.305 -12.472  -3.132  1.00  0.00     0.027 A 
HETATM   18  C   UNL     1      41.961 -13.690  -2.499  1.00  0.00     0.035 A 
ENDBRANCH  12  14
ENDBRANCH   8  11
ENDBRANCH   3   7
BRANCH   5  19
HETATM   19  C   UNL     1      43.369 -18.151   5.757  1.00  0.00     0.010 A 
HETATM   20  C   UNL     1      43.071 -17.184   6.749  1.00  0.00     0.152 A 
HETATM   21  N   UNL     1      43.202 -17.652   7.993  1.00  0.00    -0.187 NA
HETATM   22  N   UNL     1      43.585 -18.923   7.810  1.00  0.00    -0.289 N 
HETATM   23  H   UNL     1      43.751 -19.499   8.628  1.00  0.00     0.188 HD
HETATM   24  C   UNL     1      43.697 -19.271   6.494  1.00  0.00     0.123 A 
ENDBRANCH   5  19
TORSDOF 4
ENDMDL
MODEL 10
REMARK VINA RESULT:      -6.7      3.204      7.893
REMARK  4 active torsions:
REMARK  status: ('A' for Active; 'I' for Inactive)
REMARK    1  A    between atoms: C_3  and  N_4 
REMARK       I    between atoms: N_4  and  C_5 
REMARK    2  A    between atoms: C_5  and  C_6 
REMARK    3  A    between atoms: C_7  and  C_8 
REMARK    4  A    between atoms: C_16  and  C_17 
ROOT
HETATM    1  C   UNL     1      41.329 -16.560   5.976  1.00  0.00     0.003 A 
HETATM    2  C   UNL     1      41.139 -15.541   5.041  1.00  0.00     0.029 A 
HETATM    3  C   UNL     1      41.759 -15.606   3.795  1.00  0.00     0.035 A 
HETATM    4  C   UNL     1      42.586 -16.702   3.502  1.00  0.00     0.042 A 
HETATM    5  C   UNL     1      42.795 -17.734   4.434  1.00  0.00    -0.021 A 
HETATM    6  C   UNL     1      42.148 -17.649   5.673  1.00  0.00     0.012 A 
ENDROOT
BRANCH   3   7
HETATM    7  N   UNL     1      41.581 -14.643   2.780  1.00  0.00    -0.327 N 
HETATM    8  C   UNL     1      42.426 -13.602   2.455  1.00  0.00     0.227 C 
HETATM    9  O   UNL     1      43.544 -13.388   2.903  1.00  0.00    -0.273 OA
HETATM   10  H   UNL     1      40.722 -14.711   2.251  1.00  0.00     0.169 HD
BRANCH   8  11
HETATM   11  C   UNL     1      41.833 -12.653   1.467  1.00  0.00     0.089 A 
HETATM   12  C   UNL     1      42.146 -12.898  -0.005  1.00  0.00     0.057 A 
HETATM   13  C   UNL     1      40.741 -13.059   0.529  1.00  0.00     0.027 A 
BRANCH  12  14
HETATM   14  C   UNL     1      42.502 -11.682  -0.833  1.00  0.00     0.057 A 
HETATM   15  O   UNL     1      43.589 -10.887  -0.620  1.00  0.00    -0.327 OA
HETATM   16  C   UNL     1      43.571  -9.929  -1.582  1.00  0.00     0.142 A 
HETATM   17  C   UNL     1      42.488 -10.099  -2.412  1.00  0.00     0.027 A 
HETATM   18  C   UNL     1      41.793 -11.232  -1.925  1.00  0.00     0.035 A 
ENDBRANCH  12  14
ENDBRANCH   8  11
ENDBRANCH   3   7
BRANCH   5  19
HETATM   19  C   UNL     1      43.658 -18.860   4.100  1.00  0.00     0.010 A 
HETATM   20  C   UNL     1      44.347 -19.780   4.928  1.00  0.00     0.152 A 
HETATM   21  N   UNL     1      45.036 -20.693   4.237  1.00  0.00    -0.187 NA
HETATM   22  N   UNL     1      44.794 -20.365   2.961  1.00  0.00    -0.289 N 
HETATM   23  H   UNL     1      45.219 -20.927   2.230  1.00  0.00     0.188 HD
HETATM   24  C   UNL     1      43.976 -19.281   2.824  1.00  0.00     0.123 A 
ENDBRANCH   5  19
TORSDOF 4
ENDMDL
