MODEL 1
REMARK VINA RESULT:      -8.1      0.000      0.000
REMARK  3 active torsions:
REMARK  status: ('A' for Active; 'I' for Inactive)
REMARK    1  A    between atoms: C_6  and  N_7 
REMARK       I    between atoms: N_7  and  C_8 
REMARK    2  A    between atoms: C_8  and  C_9 
REMARK    3  A    between atoms: C_9  and  C_10 
ROOT
HETATM    1  C   UNL     1      42.062 -16.785   4.353  1.00  0.00     0.286 C 
HETATM    2  N   UNL     1      41.836 -17.172   2.891  1.00  0.00    -0.056 N 
HETATM    3  H   UNL     1      42.728 -17.591   2.555  1.00  0.00     0.278 HD
HETATM    4  H   UNL     1      41.125 -17.910   2.820  1.00  0.00     0.278 HD
HETATM    5  C   UNL     1      41.464 -15.968   2.081  1.00  0.00     0.209 C 
HETATM    6  C   UNL     1      40.141 -15.398   2.642  1.00  0.00     0.115 C 
HETATM    7  N   UNL     1      40.202 -15.162   4.083  1.00  0.00    -0.353 N 
HETATM    8  C   UNL     1      40.854 -16.027   4.941  1.00  0.00     0.249 C 
HETATM    9  O   UNL     1      40.521 -16.101   6.117  1.00  0.00    -0.271 OA
HETATM   10  C   UNL     1      41.324 -16.334   0.610  1.00  0.00     0.035 C 
HETATM   11  C   UNL     1      40.912 -15.097  -0.193  1.00  0.00     0.002 C 
HETATM   12  C   UNL     1      39.654 -14.431   0.367  1.00  0.00     0.002 C 
HETATM   13  C   UNL     1      39.755 -14.139   1.867  1.00  0.00     0.027 C 
HETATM   14  H   UNL     1      39.401 -14.712   4.524  1.00  0.00     0.163 HD
ENDROOT
BRANCH   1  15
HETATM   15  C   UNL     1      42.445 -18.005   5.197  1.00  0.00     0.146 C 
BRANCH  15  16
HETATM   16  C   UNL     1      43.897 -17.912   5.590  1.00  0.00     0.224 C 
HETATM   17  N   UNL     1      44.773 -18.933   5.404  1.00  0.00    -0.327 N 
HETATM   18  H   UNL     1      45.663 -18.756   5.862  1.00  0.00     0.169 HD
HETATM   19  O   UNL     1      44.299 -16.865   6.118  1.00  0.00    -0.273 OA
BRANCH  17  20
HETATM   20  C   UNL     1      44.679 -20.174   4.746  1.00  0.00     0.036 A 
HETATM   21  C   UNL     1      44.496 -20.344   3.374  1.00  0.00     0.053 A 
HETATM   22  C   UNL     1      44.419 -21.630   2.829  1.00  0.00     0.036 A 
HETATM   23  C   UNL     1      44.532 -22.758   3.636  1.00  0.00     0.024 A 
HETATM   24 CL   UNL     1      44.195 -21.816   1.132  1.00  0.00    -0.084 Cl
HETATM   25  C   UNL     1      44.742 -22.599   5.002  1.00  0.00     0.004 A 
HETATM   26  C   UNL     1      44.826 -21.316   5.550  1.00  0.00     0.029 A 
ENDBRANCH  17  20
ENDBRANCH  15  16
ENDBRANCH   1  15
TORSDOF 3
ENDMDL
MODEL 2
REMARK VINA RESULT:      -8.0      3.101      7.645
REMARK  3 active torsions:
REMARK  status: ('A' for Active; 'I' for Inactive)
REMARK    1  A    between atoms: C_6  and  N_7 
REMARK       I    between atoms: N_7  and  C_8 
REMARK    2  A    between atoms: C_8  and  C_9 
REMARK    3  A    between atoms: C_9  and  C_10 
ROOT
HETATM    1  C   UNL     1      42.593 -17.805   2.357  1.00  0.00     0.286 C 
HETATM    2  N   UNL     1      43.345 -19.007   1.788  1.00  0.00    -0.056 N 
HETATM    3  H   UNL     1      42.764 -19.377   1.007  1.00  0.00     0.278 HD
HETATM    4  H   UNL     1      44.236 -18.711   1.371  1.00  0.00     0.278 HD
HETATM    5  C   UNL     1      43.551 -20.047   2.847  1.00  0.00     0.209 C 
HETATM    6  C   UNL     1      44.410 -19.425   3.973  1.00  0.00     0.115 C 
HETATM    7  N   UNL     1      43.860 -18.163   4.462  1.00  0.00    -0.353 N 
HETATM    8  C   UNL     1      43.282 -17.237   3.616  1.00  0.00     0.249 C 
HETATM    9  O   UNL     1      43.261 -16.051   3.916  1.00  0.00    -0.271 OA
HETATM   10  C   UNL     1      44.222 -21.282   2.264  1.00  0.00     0.035 C 
HETATM   11  C   UNL     1      44.453 -22.316   3.369  1.00  0.00     0.002 C 
HETATM   12  C   UNL     1      45.223 -21.738   4.557  1.00  0.00     0.002 C 
HETATM   13  C   UNL     1      44.602 -20.445   5.095  1.00  0.00     0.027 C 
HETATM   14  H   UNL     1      44.318 -17.724   5.260  1.00  0.00     0.163 HD
ENDROOT
BRANCH   1  15
HETATM   15  C   UNL     1      42.371 -16.731   1.286  1.00  0.00     0.146 C 
BRANCH  15  16
HETATM   16  C   UNL     1      40.900 -16.425   1.174  1.00  0.00     0.224 C 
HETATM   17  N   UNL     1      40.405 -15.523   0.288  1.00  0.00    -0.327 N 
HETATM   18  H   UNL     1      39.421 -15.332   0.453  1.00  0.00     0.169 HD
HETATM   19  O   UNL     1      40.116 -17.011   1.935  1.00  0.00    -0.273 OA
BRANCH  17  20
HETATM   20  C   UNL     1      40.984 -14.793  -0.768  1.00  0.00     0.036 A 
HETATM   21  C   UNL     1      41.689 -13.598  -0.625  1.00  0.00     0.053 A 
HETATM   22  C   UNL     1      42.223 -12.959  -1.749  1.00  0.00     0.036 A 
HETATM   23  C   UNL     1      42.072 -13.502  -3.022  1.00  0.00     0.024 A 
HETATM   24 CL   UNL     1      43.091 -11.485  -1.551  1.00  0.00    -0.084 Cl
HETATM   25  C   UNL     1      41.394 -14.708  -3.171  1.00  0.00     0.004 A 
HETATM   26  C   UNL     1      40.865 -15.353  -2.050  1.00  0.00     0.029 A 
ENDBRANCH  17  20
ENDBRANCH  15  16
ENDBRANCH   1  15
TORSDOF 3
ENDMDL
MODEL 3
REMARK VINA RESULT:      -8.0      2.325      3.218
REMARK  3 active torsions:
REMARK  status: ('A' for Active; 'I' for Inactive)
REMARK    1  A    between atoms: C_6  and  N_7 
REMARK       I    between atoms: N_7  and  C_8 
REMARK    2  A    between atoms: C_8  and  C_9 
REMARK    3  A    between atoms: C_9  and  C_10 
ROOT
HETATM    1  C   UNL     1      41.867 -16.064   4.422  1.00  0.00     0.286 C 
HETATM    2  N   UNL     1      40.960 -15.237   3.511  1.00  0.00    -0.056 N 
HETATM    3  H   UNL     1      41.489 -15.085   2.627  1.00  0.00     0.278 HD
HETATM    4  H   UNL     1      40.120 -15.772   3.257  1.00  0.00     0.278 HD
HETATM    5  C   UNL     1      40.608 -13.934   4.162  1.00  0.00     0.209 C 
HETATM    6  C   UNL     1      39.837 -14.240   5.466  1.00  0.00     0.115 C 
HETATM    7  N   UNL     1      40.552 -15.175   6.332  1.00  0.00    -0.353 N 
HETATM    8  C   UNL     1      41.255 -16.251   5.827  1.00  0.00     0.249 C 
HETATM    9  O   UNL     1      41.437 -17.249   6.511  1.00  0.00    -0.271 OA
HETATM   10  C   UNL     1      39.778 -13.072   3.222  1.00  0.00     0.035 C 
HETATM   11  C   UNL     1      39.402 -11.762   3.919  1.00  0.00     0.002 C 
HETATM   12  C   UNL     1      38.712 -11.994   5.264  1.00  0.00     0.002 C 
HETATM   13  C   UNL     1      39.501 -12.932   6.182  1.00  0.00     0.027 C 
HETATM   14  H   UNL     1      40.154 -15.370   7.250  1.00  0.00     0.163 HD
ENDROOT
BRANCH   1  15
HETATM   15  C   UNL     1      42.239 -17.400   3.772  1.00  0.00     0.146 C 
BRANCH  15  16
HETATM   16  C   UNL     1      43.341 -17.184   2.766  1.00  0.00     0.224 C 
HETATM   17  N   UNL     1      44.198 -18.169   2.396  1.00  0.00    -0.327 N 
HETATM   18  H   UNL     1      44.964 -17.812   1.832  1.00  0.00     0.169 HD
HETATM   19  O   UNL     1      43.475 -16.055   2.273  1.00  0.00    -0.273 OA
BRANCH  17  20
HETATM   20  C   UNL     1      44.251 -19.551   2.664  1.00  0.00     0.036 A 
HETATM   21  C   UNL     1      44.653 -20.119   3.872  1.00  0.00     0.053 A 
HETATM   22  C   UNL     1      44.665 -21.510   4.025  1.00  0.00     0.036 A 
HETATM   23  C   UNL     1      44.268 -22.348   2.987  1.00  0.00     0.024 A 
HETATM   24 CL   UNL     1      45.163 -22.191   5.526  1.00  0.00    -0.084 Cl
HETATM   25  C   UNL     1      43.839 -21.790   1.787  1.00  0.00     0.004 A 
HETATM   26  C   UNL     1      43.820 -20.401   1.633  1.00  0.00     0.029 A 
ENDBRANCH  17  20
ENDBRANCH  15  16
ENDBRANCH   1  15
TORSDOF 3
ENDMDL
MODEL 4
REMARK VINA RESULT:      -7.9      2.211      6.277
REMARK  3 active torsions:
REMARK  status: ('A' for Active; 'I' for Inactive)
REMARK    1  A    between atoms: C_6  and  N_7 
REMARK       I    between atoms: N_7  and  C_8 
REMARK    2  A    between atoms: C_8  and  C_9 
REMARK    3  A    between atoms: C_9  and  C_10 
ROOT
HETATM    1  C   UNL     1      43.391 -17.676   4.738  1.00  0.00     0.286 C 
HETATM    2  N   UNL     1      43.560 -18.178   3.304  1.00  0.00    -0.056 N 
HETATM    3  H   UNL     1      42.764 -17.788   2.759  1.00  0.00     0.278 HD
HETATM    4  H   UNL     1      44.415 -17.792   2.885  1.00  0.00     0.278 HD
HETATM    5  C   UNL     1      43.558 -19.677   3.269  1.00  0.00     0.209 C 
HETATM    6  C   UNL     1      44.757 -20.181   4.104  1.00  0.00     0.115 C 
HETATM    7  N   UNL     1      44.782 -19.607   5.448  1.00  0.00    -0.353 N 
HETATM    8  C   UNL     1      44.438 -18.292   5.691  1.00  0.00     0.249 C 
HETATM    9  O   UNL     1      44.890 -17.702   6.663  1.00  0.00    -0.271 OA
HETATM   10  C   UNL     1      43.638 -20.179   1.834  1.00  0.00     0.035 C 
HETATM   11  C   UNL     1      43.668 -21.710   1.824  1.00  0.00     0.002 C 
HETATM   12  C   UNL     1      44.781 -22.278   2.706  1.00  0.00     0.002 C 
HETATM   13  C   UNL     1      44.759 -21.709   4.129  1.00  0.00     0.027 C 
HETATM   14  H   UNL     1      45.493 -19.946   6.095  1.00  0.00     0.163 HD
ENDROOT
BRANCH   1  15
HETATM   15  C   UNL     1      43.390 -16.145   4.793  1.00  0.00     0.146 C 
BRANCH  15  16
HETATM   16  C   UNL     1      41.986 -15.649   5.025  1.00  0.00     0.224 C 
HETATM   17  N   UNL     1      41.141 -15.341   4.008  1.00  0.00    -0.327 N 
HETATM   18  H   UNL     1      40.298 -14.882   4.341  1.00  0.00     0.169 HD
HETATM   19  O   UNL     1      41.597 -15.503   6.193  1.00  0.00    -0.273 OA
BRANCH  17  20
HETATM   20  C   UNL     1      41.218 -15.498   2.610  1.00  0.00     0.036 A 
HETATM   21  C   UNL     1      41.564 -14.493   1.707  1.00  0.00     0.053 A 
HETATM   22  C   UNL     1      41.609 -14.766   0.336  1.00  0.00     0.036 A 
HETATM   23  C   UNL     1      41.323 -16.038  -0.151  1.00  0.00     0.024 A 
HETATM   24 CL   UNL     1      42.040 -13.512  -0.762  1.00  0.00    -0.084 Cl
HETATM   25  C   UNL     1      41.004 -17.054   0.744  1.00  0.00     0.004 A 
HETATM   26  C   UNL     1      40.964 -16.788   2.115  1.00  0.00     0.029 A 
ENDBRANCH  17  20
ENDBRANCH  15  16
ENDBRANCH   1  15
TORSDOF 3
ENDMDL
MODEL 5
REMARK VINA RESULT:      -7.9      2.203      3.018
REMARK  3 active torsions:
REMARK  status: ('A' for Active; 'I' for Inactive)
REMARK    1  A    between atoms: C_6  and  N_7 
REMARK       I    between atoms: N_7  and  C_8 
REMARK    2  A    between atoms: C_8  and  C_9 
REMARK    3  A    between atoms: C_9  and  C_10 
ROOT
HETATM    1  C   UNL     1      40.798 -16.631   3.439  1.00  0.00     0.286 C 
HETATM    2  N   UNL     1      40.964 -15.147   3.765  1.00  0.00    -0.056 N 
HETATM    3  H   UNL     1      41.020 -15.077   4.802  1.00  0.00     0.278 HD
HETATM    4  H   UNL     1      41.859 -14.797   3.403  1.00  0.00     0.278 HD
HETATM    5  C   UNL     1      39.807 -14.360   3.230  1.00  0.00     0.209 C 
HETATM    6  C   UNL     1      39.783 -14.520   1.693  1.00  0.00     0.115 C 
HETATM    7  N   UNL     1      39.805 -15.920   1.277  1.00  0.00    -0.353 N 
HETATM    8  C   UNL     1      40.567 -16.868   1.932  1.00  0.00     0.249 C 
HETATM    9  O   UNL     1      40.952 -17.869   1.342  1.00  0.00    -0.271 OA
HETATM   10  C   UNL     1      39.925 -12.895   3.628  1.00  0.00     0.035 C 
HETATM   11  C   UNL     1      38.751 -12.104   3.044  1.00  0.00     0.002 C 
HETATM   12  C   UNL     1      38.617 -12.291   1.532  1.00  0.00     0.002 C 
HETATM   13  C   UNL     1      38.585 -13.765   1.117  1.00  0.00     0.027 C 
HETATM   14  H   UNL     1      39.711 -16.121   0.282  1.00  0.00     0.163 HD
ENDROOT
BRANCH   1  15
HETATM   15  C   UNL     1      41.972 -17.454   3.980  1.00  0.00     0.146 C 
BRANCH  15  16
HETATM   16  C   UNL     1      43.235 -17.069   3.253  1.00  0.00     0.224 C 
HETATM   17  N   UNL     1      44.178 -17.977   2.893  1.00  0.00    -0.327 N 
HETATM   18  H   UNL     1      45.024 -17.528   2.552  1.00  0.00     0.169 HD
HETATM   19  O   UNL     1      43.422 -15.872   2.989  1.00  0.00    -0.273 OA
BRANCH  17  20
HETATM   20  C   UNL     1      44.225 -19.384   2.932  1.00  0.00     0.036 A 
HETATM   21  C   UNL     1      44.703 -20.142   4.000  1.00  0.00     0.053 A 
HETATM   22  C   UNL     1      44.700 -21.539   3.927  1.00  0.00     0.036 A 
HETATM   23  C   UNL     1      44.216 -22.196   2.800  1.00  0.00     0.024 A 
HETATM   24 CL   UNL     1      45.293 -22.456   5.258  1.00  0.00    -0.084 Cl
HETATM   25  C   UNL     1      43.712 -21.449   1.740  1.00  0.00     0.004 A 
HETATM   26  C   UNL     1      43.707 -20.054   1.812  1.00  0.00     0.029 A 
ENDBRANCH  17  20
ENDBRANCH  15  16
ENDBRANCH   1  15
TORSDOF 3
ENDMDL
MODEL 6
REMARK VINA RESULT:      -7.6      3.427      7.415
REMARK  3 active torsions:
REMARK  status: ('A' for Active; 'I' for Inactive)
REMARK    1  A    between atoms: C_6  and  N_7 
REMARK       I    between atoms: N_7  and  C_8 
REMARK    2  A    between atoms: C_8  and  C_9 
REMARK    3  A    between atoms: C_9  and  C_10 
ROOT
HETATM    1  C   UNL     1      41.041 -17.024   2.395  1.00  0.00     0.286 C 
HETATM    2  N   UNL     1      42.289 -17.679   1.804  1.00  0.00    -0.056 N 
HETATM    3  H   UNL     1      42.012 -18.057   0.874  1.00  0.00     0.278 HD
HETATM    4  H   UNL     1      43.016 -16.975   1.625  1.00  0.00     0.278 HD
HETATM    5  C   UNL     1      42.787 -18.768   2.705  1.00  0.00     0.209 C 
HETATM    6  C   UNL     1      43.169 -18.135   4.062  1.00  0.00     0.115 C 
HETATM    7  N   UNL     1      42.087 -17.330   4.627  1.00  0.00    -0.353 N 
HETATM    8  C   UNL     1      41.277 -16.535   3.840  1.00  0.00     0.249 C 
HETATM    9  O   UNL     1      40.726 -15.551   4.315  1.00  0.00    -0.271 OA
HETATM   10  C   UNL     1      43.978 -19.480   2.077  1.00  0.00     0.035 C 
HETATM   11  C   UNL     1      44.490 -20.566   3.028  1.00  0.00     0.002 C 
HETATM   12  C   UNL     1      44.803 -20.019   4.422  1.00  0.00     0.002 C 
HETATM   13  C   UNL     1      43.639 -19.226   5.024  1.00  0.00     0.027 C 
HETATM   14  H   UNL     1      42.223 -16.941   5.559  1.00  0.00     0.163 HD
ENDROOT
BRANCH   1  15
HETATM   15  C   UNL     1      40.516 -15.908   1.486  1.00  0.00     0.146 C 
BRANCH  15  16
HETATM   16  C   UNL     1      41.677 -15.183   0.855  1.00  0.00     0.224 C 
HETATM   17  N   UNL     1      41.693 -14.827  -0.455  1.00  0.00    -0.327 N 
HETATM   18  H   UNL     1      42.606 -14.487  -0.744  1.00  0.00     0.169 HD
HETATM   19  O   UNL     1      42.660 -14.917   1.561  1.00  0.00    -0.273 OA
BRANCH  17  20
HETATM   20  C   UNL     1      40.724 -14.868  -1.476  1.00  0.00     0.036 A 
HETATM   21  C   UNL     1      39.660 -13.976  -1.610  1.00  0.00     0.053 A 
HETATM   22  C   UNL     1      38.757 -14.114  -2.669  1.00  0.00     0.036 A 
HETATM   23  C   UNL     1      38.905 -15.129  -3.610  1.00  0.00     0.024 A 
HETATM   24 CL   UNL     1      37.452 -13.001  -2.817  1.00  0.00    -0.084 Cl
HETATM   25  C   UNL     1      39.978 -16.007  -3.500  1.00  0.00     0.004 A 
HETATM   26  C   UNL     1      40.887 -15.869  -2.447  1.00  0.00     0.029 A 
ENDBRANCH  17  20
ENDBRANCH  15  16
ENDBRANCH   1  15
TORSDOF 3
ENDMDL
MODEL 7
REMARK VINA RESULT:      -7.3      3.252      7.545
REMARK  3 active torsions:
REMARK  status: ('A' for Active; 'I' for Inactive)
REMARK    1  A    between atoms: C_6  and  N_7 
REMARK       I    between atoms: N_7  and  C_8 
REMARK    2  A    between atoms: C_8  and  C_9 
REMARK    3  A    between atoms: C_9  and  C_10 
ROOT
HETATM    1  C   UNL     1      43.285 -16.458   2.730  1.00  0.00     0.286 C 
HETATM    2  N   UNL     1      42.756 -17.059   4.032  1.00  0.00    -0.056 N 
HETATM    3  H   UNL     1      42.647 -16.268   4.700  1.00  0.00     0.278 HD
HETATM    4  H   UNL     1      41.816 -17.451   3.893  1.00  0.00     0.278 HD
HETATM    5  C   UNL     1      43.710 -18.087   4.561  1.00  0.00     0.209 C 
HETATM    6  C   UNL     1      43.826 -19.220   3.515  1.00  0.00     0.115 C 
HETATM    7  N   UNL     1      44.156 -18.718   2.182  1.00  0.00    -0.353 N 
HETATM    8  C   UNL     1      43.619 -17.545   1.687  1.00  0.00     0.249 C 
HETATM    9  O   UNL     1      43.507 -17.376   0.481  1.00  0.00    -0.271 OA
HETATM   10  C   UNL     1      43.229 -18.625   5.901  1.00  0.00     0.035 C 
HETATM   11  C   UNL     1      44.200 -19.696   6.406  1.00  0.00     0.002 C 
HETATM   12  C   UNL     1      44.430 -20.806   5.378  1.00  0.00     0.002 C 
HETATM   13  C   UNL     1      44.829 -20.266   4.001  1.00  0.00     0.027 C 
HETATM   14  H   UNL     1      44.331 -19.402   1.448  1.00  0.00     0.163 HD
ENDROOT
BRANCH   1  15
HETATM   15  C   UNL     1      42.322 -15.402   2.175  1.00  0.00     0.146 C 
BRANCH  15  16
HETATM   16  C   UNL     1      41.080 -16.077   1.653  1.00  0.00     0.224 C 
HETATM   17  N   UNL     1      40.574 -15.825   0.419  1.00  0.00    -0.327 N 
HETATM   18  H   UNL     1      39.658 -16.247   0.292  1.00  0.00     0.169 HD
HETATM   19  O   UNL     1      40.491 -16.881   2.390  1.00  0.00    -0.273 OA
BRANCH  17  20
HETATM   20  C   UNL     1      41.044 -15.083  -0.682  1.00  0.00     0.036 A 
HETATM   21  C   UNL     1      41.696 -13.853  -0.601  1.00  0.00     0.053 A 
HETATM   22  C   UNL     1      42.122 -13.205  -1.766  1.00  0.00     0.036 A 
HETATM   23  C   UNL     1      41.914 -13.775  -3.019  1.00  0.00     0.024 A 
HETATM   24 CL   UNL     1      42.927 -11.688  -1.644  1.00  0.00    -0.084 Cl
HETATM   25  C   UNL     1      41.288 -15.014  -3.108  1.00  0.00     0.004 A 
HETATM   26  C   UNL     1      40.868 -15.667  -1.947  1.00  0.00     0.029 A 
ENDBRANCH  17  20
ENDBRANCH  15  16
ENDBRANCH   1  15
TORSDOF 3
ENDMDL
MODEL 8
REMARK VINA RESULT:      -7.3      3.687      7.604
REMARK  3 active torsions:
REMARK  status: ('A' for Active; 'I' for Inactive)
REMARK    1  A    between atoms: C_6  and  N_7 
REMARK       I    between atoms: N_7  and  C_8 
REMARK    2  A    between atoms: C_8  and  C_9 
REMARK    3  A    between atoms: C_9  and  C_10 
ROOT
HETATM    1  C   UNL     1      42.573 -17.182   5.239  1.00  0.00     0.286 C 
HETATM    2  N   UNL     1      42.631 -17.518   3.749  1.00  0.00    -0.056 N 
HETATM    3  H   UNL     1      41.676 -17.348   3.371  1.00  0.00     0.278 HD
HETATM    4  H   UNL     1      43.257 -16.869   3.257  1.00  0.00     0.278 HD
HETATM    5  C   UNL     1      43.046 -18.944   3.549  1.00  0.00     0.209 C 
HETATM    6  C   UNL     1      44.463 -19.121   4.142  1.00  0.00     0.115 C 
HETATM    7  N   UNL     1      44.553 -18.654   5.523  1.00  0.00    -0.353 N 
HETATM    8  C   UNL     1      43.898 -17.518   5.957  1.00  0.00     0.249 C 
HETATM    9  O   UNL     1      44.323 -16.883   6.913  1.00  0.00    -0.271 OA
HETATM   10  C   UNL     1      43.020 -19.308   2.071  1.00  0.00     0.035 C 
HETATM   11  C   UNL     1      43.479 -20.757   1.887  1.00  0.00     0.002 C 
HETATM   12  C   UNL     1      44.841 -21.023   2.532  1.00  0.00     0.002 C 
HETATM   13  C   UNL     1      44.902 -20.578   3.996  1.00  0.00     0.027 C 
HETATM   14  H   UNL     1      45.430 -18.806   6.019  1.00  0.00     0.163 HD
ENDROOT
BRANCH   1  15
HETATM   15  C   UNL     1      42.148 -15.727   5.463  1.00  0.00     0.146 C 
BRANCH  15  16
HETATM   16  C   UNL     1      40.784 -15.692   6.104  1.00  0.00     0.224 C 
HETATM   17  N   UNL     1      40.049 -14.554   6.198  1.00  0.00    -0.327 N 
HETATM   18  H   UNL     1      39.231 -14.680   6.789  1.00  0.00     0.169 HD
HETATM   19  O   UNL     1      40.327 -16.743   6.575  1.00  0.00    -0.273 OA
BRANCH  17  20
HETATM   20  C   UNL     1      40.212 -13.256   5.679  1.00  0.00     0.036 A 
HETATM   21  C   UNL     1      40.776 -12.181   6.367  1.00  0.00     0.053 A 
HETATM   22  C   UNL     1      40.889 -10.932   5.747  1.00  0.00     0.036 A 
HETATM   23  C   UNL     1      40.454 -10.739   4.440  1.00  0.00     0.024 A 
HETATM   24 CL   UNL     1      41.590  -9.619   6.614  1.00  0.00    -0.084 Cl
HETATM   25  C   UNL     1      39.915 -11.811   3.736  1.00  0.00     0.004 A 
HETATM   26  C   UNL     1      39.806 -13.062   4.349  1.00  0.00     0.029 A 
ENDBRANCH  17  20
ENDBRANCH  15  16
ENDBRANCH   1  15
TORSDOF 3
ENDMDL
MODEL 9
REMARK VINA RESULT:      -7.3      2.809      4.030
REMARK  3 active torsions:
REMARK  status: ('A' for Active; 'I' for Inactive)
REMARK    1  A    between atoms: C_6  and  N_7 
REMARK       I    between atoms: N_7  and  C_8 
REMARK    2  A    between atoms: C_8  and  C_9 
REMARK    3  A    between atoms: C_9  and  C_10 
ROOT
HETATM    1  C   UNL     1      41.528 -15.953   1.017  1.00  0.00     0.286 C 
HETATM    2  N   UNL     1      41.370 -16.292  -0.465  1.00  0.00    -0.056 N 
HETATM    3  H   UNL     1      42.257 -16.751  -0.759  1.00  0.00     0.278 HD
HETATM    4  H   UNL     1      40.627 -16.989  -0.598  1.00  0.00     0.278 HD
HETATM    5  C   UNL     1      41.112 -15.050  -1.263  1.00  0.00     0.209 C 
HETATM    6  C   UNL     1      39.789 -14.423  -0.765  1.00  0.00     0.115 C 
HETATM    7  N   UNL     1      39.776 -14.225   0.683  1.00  0.00    -0.353 N 
HETATM    8  C   UNL     1      40.329 -15.144   1.554  1.00  0.00     0.249 C 
HETATM    9  O   UNL     1      39.923 -15.229   2.705  1.00  0.00    -0.271 OA
HETATM   10  C   UNL     1      41.040 -15.373  -2.749  1.00  0.00     0.035 C 
HETATM   11  C   UNL     1      40.743 -14.097  -3.541  1.00  0.00     0.002 C 
HETATM   12  C   UNL     1      39.491 -13.377  -3.038  1.00  0.00     0.002 C 
HETATM   13  C   UNL     1      39.517 -13.127  -1.527  1.00  0.00     0.027 C 
HETATM   14  H   UNL     1      38.975 -13.743   1.088  1.00  0.00     0.163 HD
ENDROOT
BRANCH   1  15
HETATM   15  C   UNL     1      41.795 -17.212   1.849  1.00  0.00     0.146 C 
BRANCH  15  16
HETATM   16  C   UNL     1      43.235 -17.627   1.690  1.00  0.00     0.224 C 
HETATM   17  N   UNL     1      44.028 -17.938   2.747  1.00  0.00    -0.327 N 
HETATM   18  H   UNL     1      45.001 -18.046   2.472  1.00  0.00     0.169 HD
HETATM   19  O   UNL     1      43.714 -17.669   0.548  1.00  0.00    -0.273 OA
BRANCH  17  20
HETATM   20  C   UNL     1      43.778 -18.103   4.123  1.00  0.00     0.036 A 
HETATM   21  C   UNL     1      43.833 -19.316   4.809  1.00  0.00     0.053 A 
HETATM   22  C   UNL     1      43.567 -19.360   6.182  1.00  0.00     0.036 A 
HETATM   23  C   UNL     1      43.253 -18.202   6.888  1.00  0.00     0.024 A 
HETATM   24 CL   UNL     1      43.641 -20.868   7.010  1.00  0.00    -0.084 Cl
HETATM   25  C   UNL     1      43.223 -16.983   6.218  1.00  0.00     0.004 A 
HETATM   26  C   UNL     1      43.495 -16.934   4.848  1.00  0.00     0.029 A 
ENDBRANCH  17  20
ENDBRANCH  15  16
ENDBRANCH   1  15
TORSDOF 3
ENDMDL
MODEL 10
REMARK VINA RESULT:      -7.3      2.090      2.540
REMARK  3 active torsions:
REMARK  status: ('A' for Active; 'I' for Inactive)
REMARK    1  A    between atoms: C_6  and  N_7 
REMARK       I    between atoms: N_7  and  C_8 
REMARK    2  A    between atoms: C_8  and  C_9 
REMARK    3  A    between atoms: C_9  and  C_10 
ROOT
HETATM    1  C   UNL     1      42.834 -15.275   4.719  1.00  0.00     0.286 C 
HETATM    2  N   UNL     1      42.030 -16.273   3.885  1.00  0.00    -0.056 N 
HETATM    3  H   UNL     1      42.417 -17.215   4.098  1.00  0.00     0.278 HD
HETATM    4  H   UNL     1      41.049 -16.287   4.188  1.00  0.00     0.278 HD
HETATM    5  C   UNL     1      42.152 -15.955   2.426  1.00  0.00     0.209 C 
HETATM    6  C   UNL     1      41.569 -14.543   2.189  1.00  0.00     0.115 C 
HETATM    7  N   UNL     1      42.154 -13.541   3.076  1.00  0.00    -0.353 N 
HETATM    8  C   UNL     1      42.451 -13.815   4.397  1.00  0.00     0.249 C 
HETATM    9  O   UNL     1      42.481 -12.914   5.226  1.00  0.00    -0.271 OA
HETATM   10  C   UNL     1      41.425 -16.997   1.587  1.00  0.00     0.035 C 
HETATM   11  C   UNL     1      41.535 -16.636   0.104  1.00  0.00     0.002 C 
HETATM   12  C   UNL     1      41.055 -15.212  -0.186  1.00  0.00     0.002 C 
HETATM   13  C   UNL     1      41.719 -14.167   0.715  1.00  0.00     0.027 C 
HETATM   14  H   UNL     1      41.886 -12.568   2.935  1.00  0.00     0.163 HD
ENDROOT
BRANCH   1  15
HETATM   15  C   UNL     1      42.722 -15.585   6.215  1.00  0.00     0.146 C 
BRANCH  15  16
HETATM   16  C   UNL     1      44.099 -15.623   6.828  1.00  0.00     0.224 C 
HETATM   17  N   UNL     1      44.780 -16.780   7.026  1.00  0.00    -0.327 N 
HETATM   18  H   UNL     1      45.618 -16.635   7.583  1.00  0.00     0.169 HD
HETATM   19  O   UNL     1      44.618 -14.553   7.177  1.00  0.00    -0.273 OA
BRANCH  17  20
HETATM   20  C   UNL     1      44.541 -18.116   6.649  1.00  0.00     0.036 A 
HETATM   21  C   UNL     1      44.841 -18.663   5.402  1.00  0.00     0.053 A 
HETATM   22  C   UNL     1      44.559 -20.008   5.139  1.00  0.00     0.036 A 
HETATM   23  C   UNL     1      43.988 -20.824   6.112  1.00  0.00     0.024 A 
HETATM   24 CL   UNL     1      44.939 -20.665   3.594  1.00  0.00    -0.084 Cl
HETATM   25  C   UNL     1      43.710 -20.294   7.368  1.00  0.00     0.004 A 
HETATM   26  C   UNL     1      43.996 -18.952   7.636  1.00  0.00     0.029 A 
ENDBRANCH  17  20
ENDBRANCH  15  16
ENDBRANCH   1  15
TORSDOF 3
ENDMDL
