MODEL 1
REMARK VINA RESULT:      -8.4      0.000      0.000
REMARK  7 active torsions:
REMARK  status: ('A' for Active; 'I' for Inactive)
REMARK    1  A    between atoms: C_6  and  N_7 
REMARK       I    between atoms: N_7  and  C_8 
REMARK       I    between atoms: C_8  and  N_9 
REMARK    2  A    between atoms: N_9  and  C_10 
REMARK    3  A    between atoms: C_10  and  C_11 
REMARK    4  A    between atoms: C_11  and  O_12 
REMARK    5  A    between atoms: C_11  and  C_13 
REMARK    6  A    between atoms: C_13  and  N_14 
REMARK       I    between atoms: N_14  and  C_15 
REMARK       I    between atoms: C_15  and  N_16 
REMARK    7  A    between atoms: N_16  and  C_17 
ROOT
HETATM    1  C   UNL     1      43.999 -14.678   6.631  1.00  0.00     0.153 C 
ENDROOT
BRANCH   1   2
HETATM    2  C   UNL     1      43.793 -16.032   7.334  1.00  0.00     0.157 C 
BRANCH   2   3
HETATM    3  N   UNL     1      44.608 -17.086   6.752  1.00  0.00    -0.340 N 
HETATM    4  C   UNL     1      44.052 -18.094   5.999  1.00  0.00     0.320 C 
HETATM    5  N   UNL     1      45.025 -18.829   5.360  1.00  0.00    -0.306 N 
HETATM    6  O   UNL     1      42.842 -18.249   5.906  1.00  0.00    -0.247 OA
HETATM    7  H   UNL     1      45.873 -18.312   5.185  1.00  0.00     0.171 HD
HETATM    8  H   UNL     1      45.545 -16.792   6.518  1.00  0.00     0.164 HD
BRANCH   5   9
HETATM    9  C   UNL     1      44.796 -19.948   4.524  1.00  0.00     0.077 A 
HETATM   10  C   UNL     1      44.471 -19.943   3.163  1.00  0.00     0.152 A 
HETATM   11  N   UNL     1      44.279 -21.070   2.426  1.00  0.00    -0.247 NA
HETATM   12 CL   UNL     1      44.006 -18.542   2.274  1.00  0.00    -0.060 Cl
HETATM   13  C   UNL     1      44.403 -22.251   3.061  1.00  0.00     0.118 A 
HETATM   14  C   UNL     1      44.676 -22.368   4.411  1.00  0.00     0.022 A 
HETATM   15  C   UNL     1      44.864 -21.203   5.149  1.00  0.00     0.034 A 
ENDBRANCH   5   9
ENDBRANCH   2   3
ENDBRANCH   1   2
BRANCH   1  16
HETATM   16  O   UNL     1      42.704 -14.126   6.340  1.00  0.00    -0.392 OA
HETATM   17  H   UNL     1      42.041 -14.606   6.884  1.00  0.00     0.210 HD
ENDBRANCH   1  16
BRANCH   1  18
HETATM   18  C   UNL     1      44.876 -13.715   7.455  1.00  0.00     0.157 C 
BRANCH  18  19
HETATM   19  N   UNL     1      44.361 -13.505   8.806  1.00  0.00    -0.340 N 
HETATM   20  C   UNL     1      43.997 -12.253   9.244  1.00  0.00     0.320 C 
HETATM   21  N   UNL     1      43.442 -12.314  10.499  1.00  0.00    -0.306 N 
HETATM   22  O   UNL     1      44.125 -11.259   8.542  1.00  0.00    -0.247 OA
HETATM   23  H   UNL     1      42.972 -13.191  10.673  1.00  0.00     0.171 HD
HETATM   24  H   UNL     1      44.611 -14.181   9.512  1.00  0.00     0.164 HD
BRANCH  21  25
HETATM   25  C   UNL     1      42.980 -11.198  11.240  1.00  0.00     0.077 A 
HETATM   26  C   UNL     1      41.699 -10.632  11.215  1.00  0.00     0.152 A 
HETATM   27 CL   UNL     1      40.486 -11.016  10.051  1.00  0.00    -0.060 Cl
HETATM   28  N   UNL     1      41.324  -9.570  11.976  1.00  0.00    -0.247 NA
HETATM   29  C   UNL     1      42.255  -9.033  12.787  1.00  0.00     0.118 A 
HETATM   30  C   UNL     1      43.561  -9.483  12.853  1.00  0.00     0.022 A 
HETATM   31  C   UNL     1      43.926 -10.571  12.062  1.00  0.00     0.034 A 
ENDBRANCH  21  25
ENDBRANCH  18  19
ENDBRANCH   1  18
TORSDOF 7
ENDMDL
MODEL 2
REMARK VINA RESULT:      -8.2      4.751      9.168
REMARK  7 active torsions:
REMARK  status: ('A' for Active; 'I' for Inactive)
REMARK    1  A    between atoms: C_6  and  N_7 
REMARK       I    between atoms: N_7  and  C_8 
REMARK       I    between atoms: C_8  and  N_9 
REMARK    2  A    between atoms: N_9  and  C_10 
REMARK    3  A    between atoms: C_10  and  C_11 
REMARK    4  A    between atoms: C_11  and  O_12 
REMARK    5  A    between atoms: C_11  and  C_13 
REMARK    6  A    between atoms: C_13  and  N_14 
REMARK       I    between atoms: N_14  and  C_15 
REMARK       I    between atoms: C_15  and  N_16 
REMARK    7  A    between atoms: N_16  and  C_17 
ROOT
HETATM    1  C   UNL     1      44.360 -15.209   6.938  1.00  0.00     0.153 C 
ENDROOT
BRANCH   1   2
HETATM    2  C   UNL     1      44.067 -14.277   5.748  1.00  0.00     0.157 C 
BRANCH   2   3
HETATM    3  N   UNL     1      42.913 -14.711   4.977  1.00  0.00    -0.340 N 
HETATM    4  C   UNL     1      42.815 -14.465   3.627  1.00  0.00     0.320 C 
HETATM    5  N   UNL     1      41.770 -15.168   3.071  1.00  0.00    -0.306 N 
HETATM    6  O   UNL     1      43.605 -13.742   3.034  1.00  0.00    -0.247 OA
HETATM    7  H   UNL     1      41.537 -16.011   3.572  1.00  0.00     0.171 HD
HETATM    8  H   UNL     1      42.483 -15.553   5.330  1.00  0.00     0.164 HD
BRANCH   5   9
HETATM    9  C   UNL     1      41.380 -15.125   1.711  1.00  0.00     0.077 A 
HETATM   10  C   UNL     1      41.821 -15.953   0.672  1.00  0.00     0.152 A 
HETATM   11  N   UNL     1      41.385 -15.854  -0.613  1.00  0.00    -0.247 NA
HETATM   12 CL   UNL     1      43.158 -17.035   0.785  1.00  0.00    -0.060 Cl
HETATM   13  C   UNL     1      40.483 -14.892  -0.886  1.00  0.00     0.118 A 
HETATM   14  C   UNL     1      40.016 -13.993   0.055  1.00  0.00     0.022 A 
HETATM   15  C   UNL     1      40.479 -14.108   1.363  1.00  0.00     0.034 A 
ENDBRANCH   5   9
ENDBRANCH   2   3
ENDBRANCH   1   2
BRANCH   1  16
HETATM   16  O   UNL     1      44.281 -14.430   8.143  1.00  0.00    -0.392 OA
HETATM   17  H   UNL     1      44.735 -14.930   8.857  1.00  0.00     0.210 HD
ENDBRANCH   1  16
BRANCH   1  18
HETATM   18  C   UNL     1      43.427 -16.434   6.968  1.00  0.00     0.157 C 
BRANCH  18  19
HETATM   19  N   UNL     1      44.095 -17.659   6.536  1.00  0.00    -0.340 N 
HETATM   20  C   UNL     1      43.707 -18.320   5.394  1.00  0.00     0.320 C 
HETATM   21  N   UNL     1      44.544 -19.376   5.129  1.00  0.00    -0.306 N 
HETATM   22  O   UNL     1      42.765 -17.937   4.714  1.00  0.00    -0.247 OA
HETATM   23  H   UNL     1      45.484 -19.220   5.464  1.00  0.00     0.171 HD
HETATM   24  H   UNL     1      44.572 -18.205   7.240  1.00  0.00     0.164 HD
BRANCH  21  25
HETATM   25  C   UNL     1      44.408 -20.267   4.036  1.00  0.00     0.077 A 
HETATM   26  C   UNL     1      44.621 -21.653   4.037  1.00  0.00     0.152 A 
HETATM   27 CL   UNL     1      45.373 -22.522   5.321  1.00  0.00    -0.060 Cl
HETATM   28  N   UNL     1      44.446 -22.447   2.948  1.00  0.00    -0.247 NA
HETATM   29  C   UNL     1      44.056 -21.851   1.806  1.00  0.00     0.118 A 
HETATM   30  C   UNL     1      43.865 -20.487   1.683  1.00  0.00     0.022 A 
HETATM   31  C   UNL     1      44.053 -19.689   2.810  1.00  0.00     0.034 A 
ENDBRANCH  21  25
ENDBRANCH  18  19
ENDBRANCH   1  18
TORSDOF 7
ENDMDL
MODEL 3
REMARK VINA RESULT:      -8.1      2.984      4.029
REMARK  7 active torsions:
REMARK  status: ('A' for Active; 'I' for Inactive)
REMARK    1  A    between atoms: C_6  and  N_7 
REMARK       I    between atoms: N_7  and  C_8 
REMARK       I    between atoms: C_8  and  N_9 
REMARK    2  A    between atoms: N_9  and  C_10 
REMARK    3  A    between atoms: C_10  and  C_11 
REMARK    4  A    between atoms: C_11  and  O_12 
REMARK    5  A    between atoms: C_11  and  C_13 
REMARK    6  A    between atoms: C_13  and  N_14 
REMARK       I    between atoms: N_14  and  C_15 
REMARK       I    between atoms: C_15  and  N_16 
REMARK    7  A    between atoms: N_16  and  C_17 
ROOT
HETATM    1  C   UNL     1      39.468 -11.889   7.001  1.00  0.00     0.153 C 
ENDROOT
BRANCH   1   2
HETATM    2  C   UNL     1      39.545 -12.881   5.827  1.00  0.00     0.157 C 
BRANCH   2   3
HETATM    3  N   UNL     1      39.968 -14.207   6.250  1.00  0.00    -0.340 N 
HETATM    4  C   UNL     1      41.154 -14.756   5.821  1.00  0.00     0.320 C 
HETATM    5  N   UNL     1      41.455 -15.897   6.531  1.00  0.00    -0.306 N 
HETATM    6  O   UNL     1      41.838 -14.237   4.950  1.00  0.00    -0.247 OA
HETATM    7  H   UNL     1      41.055 -15.917   7.456  1.00  0.00     0.171 HD
HETATM    8  H   UNL     1      39.642 -14.462   7.171  1.00  0.00     0.164 HD
BRANCH   5   9
HETATM    9  C   UNL     1      42.592 -16.716   6.327  1.00  0.00     0.077 A 
HETATM   10  C   UNL     1      43.912 -16.454   6.713  1.00  0.00     0.152 A 
HETATM   11  N   UNL     1      44.949 -17.304   6.491  1.00  0.00    -0.247 NA
HETATM   12 CL   UNL     1      44.478 -14.928   7.280  1.00  0.00    -0.060 Cl
HETATM   13  C   UNL     1      44.675 -18.458   5.852  1.00  0.00     0.118 A 
HETATM   14  C   UNL     1      43.417 -18.796   5.389  1.00  0.00     0.022 A 
HETATM   15  C   UNL     1      42.370 -17.909   5.623  1.00  0.00     0.034 A 
ENDBRANCH   5   9
ENDBRANCH   2   3
ENDBRANCH   1   2
BRANCH   1  16
HETATM   16  O   UNL     1      39.185 -12.636   8.197  1.00  0.00    -0.392 OA
HETATM   17  H   UNL     1      39.818 -12.347   8.891  1.00  0.00     0.210 HD
ENDBRANCH   1  16
BRANCH   1  18
HETATM   18  C   UNL     1      40.742 -11.032   7.132  1.00  0.00     0.157 C 
BRANCH  18  19
HETATM   19  N   UNL     1      41.539 -11.387   8.303  1.00  0.00    -0.340 N 
HETATM   20  C   UNL     1      41.415 -10.698   9.487  1.00  0.00     0.320 C 
HETATM   21  N   UNL     1      42.178 -11.275  10.473  1.00  0.00    -0.306 N 
HETATM   22  O   UNL     1      40.667  -9.737   9.601  1.00  0.00    -0.247 OA
HETATM   23  H   UNL     1      42.287 -12.271  10.346  1.00  0.00     0.171 HD
HETATM   24  H   UNL     1      42.411 -11.872   8.145  1.00  0.00     0.164 HD
BRANCH  21  25
HETATM   25  C   UNL     1      42.284 -10.797  11.803  1.00  0.00     0.077 A 
HETATM   26  C   UNL     1      41.453 -11.108  12.888  1.00  0.00     0.152 A 
HETATM   27 CL   UNL     1      39.944 -11.930  12.754  1.00  0.00    -0.060 Cl
HETATM   28  N   UNL     1      41.635 -10.625  14.144  1.00  0.00    -0.247 NA
HETATM   29  C   UNL     1      42.673  -9.790  14.340  1.00  0.00     0.118 A 
HETATM   30  C   UNL     1      43.524  -9.380  13.331  1.00  0.00     0.022 A 
HETATM   31  C   UNL     1      43.318  -9.884  12.048  1.00  0.00     0.034 A 
ENDBRANCH  21  25
ENDBRANCH  18  19
ENDBRANCH   1  18
TORSDOF 7
ENDMDL
MODEL 4
REMARK VINA RESULT:      -7.9      2.196      2.501
REMARK  7 active torsions:
REMARK  status: ('A' for Active; 'I' for Inactive)
REMARK    1  A    between atoms: C_6  and  N_7 
REMARK       I    between atoms: N_7  and  C_8 
REMARK       I    between atoms: C_8  and  N_9 
REMARK    2  A    between atoms: N_9  and  C_10 
REMARK    3  A    between atoms: C_10  and  C_11 
REMARK    4  A    between atoms: C_11  and  O_12 
REMARK    5  A    between atoms: C_11  and  C_13 
REMARK    6  A    between atoms: C_13  and  N_14 
REMARK       I    between atoms: N_14  and  C_15 
REMARK       I    between atoms: C_15  and  N_16 
REMARK    7  A    between atoms: N_16  and  C_17 
ROOT
HETATM    1  C   UNL     1      44.985 -13.765   7.336  1.00  0.00     0.153 C 
ENDROOT
BRANCH   1   2
HETATM    2  C   UNL     1      43.523 -13.745   6.851  1.00  0.00     0.157 C 
BRANCH   2   3
HETATM    3  N   UNL     1      43.039 -15.071   6.504  1.00  0.00    -0.340 N 
HETATM    4  C   UNL     1      43.237 -15.605   5.251  1.00  0.00     0.320 C 
HETATM    5  N   UNL     1      42.912 -16.943   5.227  1.00  0.00    -0.306 N 
HETATM    6  O   UNL     1      43.686 -14.946   4.323  1.00  0.00    -0.247 OA
HETATM    7  H   UNL     1      43.002 -17.397   6.122  1.00  0.00     0.171 HD
HETATM    8  H   UNL     1      43.012 -15.711   7.284  1.00  0.00     0.164 HD
BRANCH   5   9
HETATM    9  C   UNL     1      42.980 -17.785   4.091  1.00  0.00     0.077 A 
HETATM   10  C   UNL     1      42.186 -17.730   2.940  1.00  0.00     0.152 A 
HETATM   11  N   UNL     1      42.327 -18.574   1.882  1.00  0.00    -0.247 NA
HETATM   12 CL   UNL     1      40.756 -16.782   2.784  1.00  0.00    -0.060 Cl
HETATM   13  C   UNL     1      43.283 -19.517   1.968  1.00  0.00     0.118 A 
HETATM   14  C   UNL     1      44.091 -19.688   3.077  1.00  0.00     0.022 A 
HETATM   15  C   UNL     1      43.928 -18.817   4.151  1.00  0.00     0.034 A 
ENDBRANCH   5   9
ENDBRANCH   2   3
ENDBRANCH   1   2
BRANCH   1  16
HETATM   16  O   UNL     1      45.834 -13.547   6.197  1.00  0.00    -0.392 OA
HETATM   17  H   UNL     1      45.703 -14.295   5.574  1.00  0.00     0.210 HD
ENDBRANCH   1  16
BRANCH   1  18
HETATM   18  C   UNL     1      45.244 -12.749   8.465  1.00  0.00     0.157 C 
BRANCH  18  19
HETATM   19  N   UNL     1      44.033 -12.420   9.213  1.00  0.00    -0.340 N 
HETATM   20  C   UNL     1      44.098 -11.859  10.467  1.00  0.00     0.320 C 
HETATM   21  N   UNL     1      42.844 -11.538  10.927  1.00  0.00    -0.306 N 
HETATM   22  O   UNL     1      45.165 -11.648  11.026  1.00  0.00    -0.247 OA
HETATM   23  H   UNL     1      42.203 -11.310  10.180  1.00  0.00     0.171 HD
HETATM   24  H   UNL     1      43.189 -12.925   8.981  1.00  0.00     0.164 HD
BRANCH  21  25
HETATM   25  C   UNL     1      42.564 -10.961  12.191  1.00  0.00     0.077 A 
HETATM   26  C   UNL     1      41.491 -11.258  13.042  1.00  0.00     0.152 A 
HETATM   27 CL   UNL     1      40.120 -12.200  12.589  1.00  0.00    -0.060 Cl
HETATM   28  N   UNL     1      41.304 -10.676  14.255  1.00  0.00    -0.247 NA
HETATM   29  C   UNL     1      42.204  -9.752  14.643  1.00  0.00     0.118 A 
HETATM   30  C   UNL     1      43.271  -9.351  13.860  1.00  0.00     0.022 A 
HETATM   31  C   UNL     1      43.444  -9.957  12.617  1.00  0.00     0.034 A 
ENDBRANCH  21  25
ENDBRANCH  18  19
ENDBRANCH   1  18
TORSDOF 7
ENDMDL
MODEL 5
REMARK VINA RESULT:      -7.9      2.767     10.086
REMARK  7 active torsions:
REMARK  status: ('A' for Active; 'I' for Inactive)
REMARK    1  A    between atoms: C_6  and  N_7 
REMARK       I    between atoms: N_7  and  C_8 
REMARK       I    between atoms: C_8  and  N_9 
REMARK    2  A    between atoms: N_9  and  C_10 
REMARK    3  A    between atoms: C_10  and  C_11 
REMARK    4  A    between atoms: C_11  and  O_12 
REMARK    5  A    between atoms: C_11  and  C_13 
REMARK    6  A    between atoms: C_13  and  N_14 
REMARK       I    between atoms: N_14  and  C_15 
REMARK       I    between atoms: C_15  and  N_16 
REMARK    7  A    between atoms: N_16  and  C_17 
ROOT
HETATM    1  C   UNL     1      40.018 -11.726   7.124  1.00  0.00     0.153 C 
ENDROOT
BRANCH   1   2
HETATM    2  C   UNL     1      41.435 -11.124   7.108  1.00  0.00     0.157 C 
BRANCH   2   3
HETATM    3  N   UNL     1      42.159 -11.383   8.343  1.00  0.00    -0.340 N 
HETATM    4  C   UNL     1      41.882 -10.689   9.498  1.00  0.00     0.320 C 
HETATM    5  N   UNL     1      42.511 -11.261  10.581  1.00  0.00    -0.306 N 
HETATM    6  O   UNL     1      41.133  -9.722   9.517  1.00  0.00    -0.247 OA
HETATM    7  H   UNL     1      42.691 -12.247  10.471  1.00  0.00     0.171 HD
HETATM    8  H   UNL     1      42.474 -12.337   8.437  1.00  0.00     0.164 HD
BRANCH   5   9
HETATM    9  C   UNL     1      42.454 -10.784  11.913  1.00  0.00     0.077 A 
HETATM   10  C   UNL     1      41.488 -11.079  12.883  1.00  0.00     0.152 A 
HETATM   11  N   UNL     1      41.514 -10.587  14.150  1.00  0.00    -0.247 NA
HETATM   12 CL   UNL     1      39.996 -11.880  12.564  1.00  0.00    -0.060 Cl
HETATM   13  C   UNL     1      42.528  -9.762  14.472  1.00  0.00     0.118 A 
HETATM   14  C   UNL     1      43.507  -9.370  13.579  1.00  0.00     0.022 A 
HETATM   15  C   UNL     1      43.460  -9.881  12.284  1.00  0.00     0.034 A 
ENDBRANCH   5   9
ENDBRANCH   2   3
ENDBRANCH   1   2
BRANCH   1  16
HETATM   16  O   UNL     1      39.074 -10.642   7.130  1.00  0.00    -0.392 OA
HETATM   17  H   UNL     1      39.571  -9.807   6.984  1.00  0.00     0.210 HD
ENDBRANCH   1  16
BRANCH   1  18
HETATM   18  C   UNL     1      39.782 -12.704   5.957  1.00  0.00     0.157 C 
BRANCH  18  19
HETATM   19  N   UNL     1      39.975 -14.099   6.346  1.00  0.00    -0.340 N 
HETATM   20  C   UNL     1      41.143 -14.765   6.059  1.00  0.00     0.320 C 
HETATM   21  N   UNL     1      41.141 -16.022   6.614  1.00  0.00    -0.306 N 
HETATM   22  O   UNL     1      42.052 -14.236   5.434  1.00  0.00    -0.247 OA
HETATM   23  H   UNL     1      40.593 -16.071   7.461  1.00  0.00     0.171 HD
HETATM   24  H   UNL     1      39.149 -14.663   6.485  1.00  0.00     0.164 HD
BRANCH  21  25
HETATM   25  C   UNL     1      42.189 -16.967   6.489  1.00  0.00     0.077 A 
HETATM   26  C   UNL     1      42.592 -17.641   5.328  1.00  0.00     0.152 A 
HETATM   27 CL   UNL     1      41.698 -17.661   3.854  1.00  0.00    -0.060 Cl
HETATM   28  N   UNL     1      43.626 -18.521   5.283  1.00  0.00    -0.247 NA
HETATM   29  C   UNL     1      44.286 -18.758   6.433  1.00  0.00     0.118 A 
HETATM   30  C   UNL     1      43.940 -18.185   7.643  1.00  0.00     0.022 A 
HETATM   31  C   UNL     1      42.874 -17.288   7.669  1.00  0.00     0.034 A 
ENDBRANCH  21  25
ENDBRANCH  18  19
ENDBRANCH   1  18
TORSDOF 7
ENDMDL
MODEL 6
REMARK VINA RESULT:      -7.9      4.903      9.524
REMARK  7 active torsions:
REMARK  status: ('A' for Active; 'I' for Inactive)
REMARK    1  A    between atoms: C_6  and  N_7 
REMARK       I    between atoms: N_7  and  C_8 
REMARK       I    between atoms: C_8  and  N_9 
REMARK    2  A    between atoms: N_9  and  C_10 
REMARK    3  A    between atoms: C_10  and  C_11 
REMARK    4  A    between atoms: C_11  and  O_12 
REMARK    5  A    between atoms: C_11  and  C_13 
REMARK    6  A    between atoms: C_13  and  N_14 
REMARK       I    between atoms: N_14  and  C_15 
REMARK       I    between atoms: C_15  and  N_16 
REMARK    7  A    between atoms: N_16  and  C_17 
ROOT
HETATM    1  C   UNL     1      42.223 -14.950   5.963  1.00  0.00     0.153 C 
ENDROOT
BRANCH   1   2
HETATM    2  C   UNL     1      40.691 -14.814   6.042  1.00  0.00     0.157 C 
BRANCH   2   3
HETATM    3  N   UNL     1      40.031 -15.300   4.841  1.00  0.00    -0.340 N 
HETATM    4  C   UNL     1      39.943 -14.528   3.705  1.00  0.00     0.320 C 
HETATM    5  N   UNL     1      39.497 -15.272   2.636  1.00  0.00    -0.306 N 
HETATM    6  O   UNL     1      40.271 -13.350   3.688  1.00  0.00    -0.247 OA
HETATM    7  H   UNL     1      39.710 -16.255   2.710  1.00  0.00     0.171 HD
HETATM    8  H   UNL     1      40.091 -16.300   4.722  1.00  0.00     0.164 HD
BRANCH   5   9
HETATM    9  C   UNL     1      39.276 -14.781   1.327  1.00  0.00     0.077 A 
HETATM   10  C   UNL     1      40.197 -14.713   0.275  1.00  0.00     0.152 A 
HETATM   11  N   UNL     1      39.898 -14.237  -0.963  1.00  0.00    -0.247 NA
HETATM   12 CL   UNL     1      41.894 -14.964   0.444  1.00  0.00    -0.060 Cl
HETATM   13  C   UNL     1      38.641 -13.800  -1.170  1.00  0.00     0.118 A 
HETATM   14  C   UNL     1      37.668 -13.780  -0.188  1.00  0.00     0.022 A 
HETATM   15  C   UNL     1      37.995 -14.268   1.074  1.00  0.00     0.034 A 
ENDBRANCH   5   9
ENDBRANCH   2   3
ENDBRANCH   1   2
BRANCH   1  16
HETATM   16  O   UNL     1      42.804 -13.712   6.405  1.00  0.00    -0.392 OA
HETATM   17  H   UNL     1      42.791 -13.085   5.649  1.00  0.00     0.210 HD
ENDBRANCH   1  16
BRANCH   1  18
HETATM   18  C   UNL     1      42.747 -16.161   6.759  1.00  0.00     0.157 C 
BRANCH  18  19
HETATM   19  N   UNL     1      43.703 -16.961   5.998  1.00  0.00    -0.340 N 
HETATM   20  C   UNL     1      43.299 -18.056   5.270  1.00  0.00     0.320 C 
HETATM   21  N   UNL     1      44.346 -18.583   4.553  1.00  0.00    -0.306 N 
HETATM   22  O   UNL     1      42.135 -18.432   5.260  1.00  0.00    -0.247 OA
HETATM   23  H   UNL     1      45.028 -17.886   4.293  1.00  0.00     0.171 HD
HETATM   24  H   UNL     1      44.669 -16.939   6.291  1.00  0.00     0.164 HD
BRANCH  21  25
HETATM   25  C   UNL     1      44.265 -19.724   3.717  1.00  0.00     0.077 A 
HETATM   26  C   UNL     1      43.800 -19.780   2.397  1.00  0.00     0.152 A 
HETATM   27 CL   UNL     1      42.958 -18.501   1.606  1.00  0.00    -0.060 Cl
HETATM   28  N   UNL     1      43.776 -20.914   1.649  1.00  0.00    -0.247 NA
HETATM   29  C   UNL     1      44.217 -22.046   2.230  1.00  0.00     0.118 A 
HETATM   30  C   UNL     1      44.652 -22.112   3.541  1.00  0.00     0.022 A 
HETATM   31  C   UNL     1      44.665 -20.938   4.292  1.00  0.00     0.034 A 
ENDBRANCH  21  25
ENDBRANCH  18  19
ENDBRANCH   1  18
TORSDOF 7
ENDMDL
MODEL 7
REMARK VINA RESULT:      -7.9      2.709      9.965
REMARK  7 active torsions:
REMARK  status: ('A' for Active; 'I' for Inactive)
REMARK    1  A    between atoms: C_6  and  N_7 
REMARK       I    between atoms: N_7  and  C_8 
REMARK       I    between atoms: C_8  and  N_9 
REMARK    2  A    between atoms: N_9  and  C_10 
REMARK    3  A    between atoms: C_10  and  C_11 
REMARK    4  A    between atoms: C_11  and  O_12 
REMARK    5  A    between atoms: C_11  and  C_13 
REMARK    6  A    between atoms: C_13  and  N_14 
REMARK       I    between atoms: N_14  and  C_15 
REMARK       I    between atoms: C_15  and  N_16 
REMARK    7  A    between atoms: N_16  and  C_17 
ROOT
HETATM    1  C   UNL     1      45.039 -11.464   9.311  1.00  0.00     0.153 C 
ENDROOT
BRANCH   1   2
HETATM    2  C   UNL     1      44.717 -11.926  10.744  1.00  0.00     0.157 C 
BRANCH   2   3
HETATM    3  N   UNL     1      43.288 -12.080  10.968  1.00  0.00    -0.340 N 
HETATM    4  C   UNL     1      42.438 -10.999  10.957  1.00  0.00     0.320 C 
HETATM    5  N   UNL     1      41.122 -11.406  10.949  1.00  0.00    -0.306 N 
HETATM    6  O   UNL     1      42.845  -9.846  10.915  1.00  0.00    -0.247 OA
HETATM    7  H   UNL     1      40.982 -12.316  10.540  1.00  0.00     0.171 HD
HETATM    8  H   UNL     1      42.921 -12.966  10.652  1.00  0.00     0.164 HD
BRANCH   5   9
HETATM    9  C   UNL     1      39.996 -10.548  10.958  1.00  0.00     0.077 A 
HETATM   10  C   UNL     1      39.311 -10.029   9.853  1.00  0.00     0.152 A 
HETATM   11  N   UNL     1      38.223  -9.218   9.948  1.00  0.00    -0.247 NA
HETATM   12 CL   UNL     1      39.878 -10.108   8.227  1.00  0.00    -0.060 Cl
HETATM   13  C   UNL     1      37.799  -8.898  11.186  1.00  0.00     0.118 A 
HETATM   14  C   UNL     1      38.429  -9.319  12.342  1.00  0.00     0.022 A 
HETATM   15  C   UNL     1      39.544 -10.144  12.223  1.00  0.00     0.034 A 
ENDBRANCH   5   9
ENDBRANCH   2   3
ENDBRANCH   1   2
BRANCH   1  16
HETATM   16  O   UNL     1      46.008 -10.406   9.392  1.00  0.00    -0.392 OA
HETATM   17  H   UNL     1      46.763 -10.727   9.932  1.00  0.00     0.210 HD
ENDBRANCH   1  16
BRANCH   1  18
HETATM   18  C   UNL     1      45.509 -12.623   8.411  1.00  0.00     0.157 C 
BRANCH  18  19
HETATM   19  N   UNL     1      44.560 -13.733   8.386  1.00  0.00    -0.340 N 
HETATM   20  C   UNL     1      44.351 -14.468   7.242  1.00  0.00     0.320 C 
HETATM   21  N   UNL     1      43.504 -15.523   7.483  1.00  0.00    -0.306 N 
HETATM   22  O   UNL     1      44.915 -14.201   6.190  1.00  0.00    -0.247 OA
HETATM   23  H   UNL     1      43.567 -15.861   8.432  1.00  0.00     0.171 HD
HETATM   24  H   UNL     1      43.815 -13.728   9.068  1.00  0.00     0.164 HD
BRANCH  21  25
HETATM   25  C   UNL     1      43.073 -16.458   6.510  1.00  0.00     0.077 A 
HETATM   26  C   UNL     1      43.744 -17.613   6.085  1.00  0.00     0.152 A 
HETATM   27 CL   UNL     1      45.384 -17.983   6.468  1.00  0.00    -0.060 Cl
HETATM   28  N   UNL     1      43.253 -18.478   5.160  1.00  0.00    -0.247 NA
HETATM   29  C   UNL     1      42.055 -18.187   4.618  1.00  0.00     0.118 A 
HETATM   30  C   UNL     1      41.332 -17.050   4.930  1.00  0.00     0.022 A 
HETATM   31  C   UNL     1      41.855 -16.174   5.879  1.00  0.00     0.034 A 
ENDBRANCH  21  25
ENDBRANCH  18  19
ENDBRANCH   1  18
TORSDOF 7
ENDMDL
MODEL 8
REMARK VINA RESULT:      -7.8      4.574      9.288
REMARK  7 active torsions:
REMARK  status: ('A' for Active; 'I' for Inactive)
REMARK    1  A    between atoms: C_6  and  N_7 
REMARK       I    between atoms: N_7  and  C_8 
REMARK       I    between atoms: C_8  and  N_9 
REMARK    2  A    between atoms: N_9  and  C_10 
REMARK    3  A    between atoms: C_10  and  C_11 
REMARK    4  A    between atoms: C_11  and  O_12 
REMARK    5  A    between atoms: C_11  and  C_13 
REMARK    6  A    between atoms: C_13  and  N_14 
REMARK       I    between atoms: N_14  and  C_15 
REMARK       I    between atoms: C_15  and  N_16 
REMARK    7  A    between atoms: N_16  and  C_17 
ROOT
HETATM    1  C   UNL     1      41.476 -14.853   0.017  1.00  0.00     0.153 C 
ENDROOT
BRANCH   1   2
HETATM    2  C   UNL     1      42.315 -14.224   1.144  1.00  0.00     0.157 C 
BRANCH   2   3
HETATM    3  N   UNL     1      41.807 -14.561   2.465  1.00  0.00    -0.340 N 
HETATM    4  C   UNL     1      42.610 -15.147   3.417  1.00  0.00     0.320 C 
HETATM    5  N   UNL     1      41.993 -15.152   4.647  1.00  0.00    -0.306 N 
HETATM    6  O   UNL     1      43.735 -15.555   3.163  1.00  0.00    -0.247 OA
HETATM    7  H   UNL     1      41.320 -14.410   4.766  1.00  0.00     0.171 HD
HETATM    8  H   UNL     1      41.074 -13.946   2.787  1.00  0.00     0.164 HD
BRANCH   5   9
HETATM    9  C   UNL     1      42.534 -15.697   5.836  1.00  0.00     0.077 A 
HETATM   10  C   UNL     1      43.558 -15.165   6.629  1.00  0.00     0.152 A 
HETATM   11  N   UNL     1      44.013 -15.749   7.770  1.00  0.00    -0.247 NA
HETATM   12 CL   UNL     1      44.576 -13.856   6.161  1.00  0.00    -0.060 Cl
HETATM   13  C   UNL     1      43.440 -16.910   8.141  1.00  0.00     0.118 A 
HETATM   14  C   UNL     1      42.453 -17.543   7.408  1.00  0.00     0.022 A 
HETATM   15  C   UNL     1      42.005 -16.932   6.240  1.00  0.00     0.034 A 
ENDBRANCH   5   9
ENDBRANCH   2   3
ENDBRANCH   1   2
BRANCH   1  16
HETATM   16  O   UNL     1      42.083 -14.503  -1.238  1.00  0.00    -0.392 OA
HETATM   17  H   UNL     1      42.982 -14.900  -1.262  1.00  0.00     0.210 HD
ENDBRANCH   1  16
BRANCH   1  18
HETATM   18  C   UNL     1      41.313 -16.376   0.185  1.00  0.00     0.157 C 
BRANCH  18  19
HETATM   19  N   UNL     1      42.550 -17.029   0.609  1.00  0.00    -0.340 N 
HETATM   20  C   UNL     1      42.563 -17.924   1.653  1.00  0.00     0.320 C 
HETATM   21  N   UNL     1      43.807 -18.490   1.798  1.00  0.00    -0.306 N 
HETATM   22  O   UNL     1      41.555 -18.182   2.296  1.00  0.00    -0.247 OA
HETATM   23  H   UNL     1      44.309 -18.551   0.925  1.00  0.00     0.171 HD
HETATM   24  H   UNL     1      43.421 -16.566   0.392  1.00  0.00     0.164 HD
BRANCH  21  25
HETATM   25  C   UNL     1      44.157 -19.438   2.792  1.00  0.00     0.077 A 
HETATM   26  C   UNL     1      44.317 -20.820   2.630  1.00  0.00     0.152 A 
HETATM   27 CL   UNL     1      43.840 -21.698   1.225  1.00  0.00    -0.060 Cl
HETATM   28  N   UNL     1      44.679 -21.664   3.631  1.00  0.00    -0.247 NA
HETATM   29  C   UNL     1      44.881 -21.126   4.849  1.00  0.00     0.118 A 
HETATM   30  C   UNL     1      44.704 -19.783   5.129  1.00  0.00     0.022 A 
HETATM   31  C   UNL     1      44.328 -18.935   4.089  1.00  0.00     0.034 A 
ENDBRANCH  21  25
ENDBRANCH  18  19
ENDBRANCH   1  18
TORSDOF 7
ENDMDL
MODEL 9
REMARK VINA RESULT:      -7.8      3.213     11.106
REMARK  7 active torsions:
REMARK  status: ('A' for Active; 'I' for Inactive)
REMARK    1  A    between atoms: C_6  and  N_7 
REMARK       I    between atoms: N_7  and  C_8 
REMARK       I    between atoms: C_8  and  N_9 
REMARK    2  A    between atoms: N_9  and  C_10 
REMARK    3  A    between atoms: C_10  and  C_11 
REMARK    4  A    between atoms: C_11  and  O_12 
REMARK    5  A    between atoms: C_11  and  C_13 
REMARK    6  A    between atoms: C_13  and  N_14 
REMARK       I    between atoms: N_14  and  C_15 
REMARK       I    between atoms: C_15  and  N_16 
REMARK    7  A    between atoms: N_16  and  C_17 
ROOT
HETATM    1  C   UNL     1      40.389 -14.643   5.499  1.00  0.00     0.153 C 
ENDROOT
BRANCH   1   2
HETATM    2  C   UNL     1      39.540 -13.386   5.765  1.00  0.00     0.157 C 
BRANCH   2   3
HETATM    3  N   UNL     1      39.447 -13.071   7.182  1.00  0.00    -0.340 N 
HETATM    4  C   UNL     1      39.726 -11.811   7.659  1.00  0.00     0.320 C 
HETATM    5  N   UNL     1      39.343 -11.685   8.975  1.00  0.00    -0.306 N 
HETATM    6  O   UNL     1      40.212 -10.937   6.954  1.00  0.00    -0.247 OA
HETATM    7  H   UNL     1      38.589 -12.302   9.238  1.00  0.00     0.171 HD
HETATM    8  H   UNL     1      38.750 -13.612   7.672  1.00  0.00     0.164 HD
BRANCH   5   9
HETATM    9  C   UNL     1      39.506 -10.527   9.773  1.00  0.00     0.077 A 
HETATM   10  C   UNL     1      40.644 -10.138  10.488  1.00  0.00     0.152 A 
HETATM   11  N   UNL     1      40.724  -8.997  11.223  1.00  0.00    -0.247 NA
HETATM   12 CL   UNL     1      42.012 -11.147  10.771  1.00  0.00    -0.060 Cl
HETATM   13  C   UNL     1      39.631  -8.211  11.262  1.00  0.00     0.118 A 
HETATM   14  C   UNL     1      38.442  -8.523  10.630  1.00  0.00     0.022 A 
HETATM   15  C   UNL     1      38.380  -9.698   9.887  1.00  0.00     0.034 A 
ENDBRANCH   5   9
ENDBRANCH   2   3
ENDBRANCH   1   2
BRANCH   1  16
HETATM   16  O   UNL     1      39.800 -15.737   6.222  1.00  0.00    -0.392 OA
HETATM   17  H   UNL     1      38.823 -15.651   6.160  1.00  0.00     0.210 HD
ENDBRANCH   1  16
BRANCH   1  18
HETATM   18  C   UNL     1      40.539 -14.944   3.996  1.00  0.00     0.157 C 
BRANCH  18  19
HETATM   19  N   UNL     1      41.814 -15.581   3.676  1.00  0.00    -0.340 N 
HETATM   20  C   UNL     1      41.990 -16.938   3.819  1.00  0.00     0.320 C 
HETATM   21  N   UNL     1      43.225 -17.324   3.357  1.00  0.00    -0.306 N 
HETATM   22  O   UNL     1      41.107 -17.662   4.256  1.00  0.00    -0.247 OA
HETATM   23  H   UNL     1      43.563 -16.732   2.613  1.00  0.00     0.171 HD
HETATM   24  H   UNL     1      42.644 -15.007   3.707  1.00  0.00     0.164 HD
BRANCH  21  25
HETATM   25  C   UNL     1      43.723 -18.651   3.379  1.00  0.00     0.077 A 
HETATM   26  C   UNL     1      44.418 -19.281   4.420  1.00  0.00     0.152 A 
HETATM   27 CL   UNL     1      45.061 -18.465   5.796  1.00  0.00    -0.060 Cl
HETATM   28  N   UNL     1      44.845 -20.570   4.375  1.00  0.00    -0.247 NA
HETATM   29  C   UNL     1      44.587 -21.267   3.252  1.00  0.00     0.118 A 
HETATM   30  C   UNL     1      43.952 -20.728   2.149  1.00  0.00     0.022 A 
HETATM   31  C   UNL     1      43.525 -19.402   2.214  1.00  0.00     0.034 A 
ENDBRANCH  21  25
ENDBRANCH  18  19
ENDBRANCH   1  18
TORSDOF 7
ENDMDL
MODEL 10
REMARK VINA RESULT:      -7.6      4.496      7.285
REMARK  7 active torsions:
REMARK  status: ('A' for Active; 'I' for Inactive)
REMARK    1  A    between atoms: C_6  and  N_7 
REMARK       I    between atoms: N_7  and  C_8 
REMARK       I    between atoms: C_8  and  N_9 
REMARK    2  A    between atoms: N_9  and  C_10 
REMARK    3  A    between atoms: C_10  and  C_11 
REMARK    4  A    between atoms: C_11  and  O_12 
REMARK    5  A    between atoms: C_11  and  C_13 
REMARK    6  A    between atoms: C_13  and  N_14 
REMARK       I    between atoms: N_14  and  C_15 
REMARK       I    between atoms: C_15  and  N_16 
REMARK    7  A    between atoms: N_16  and  C_17 
ROOT
HETATM    1  C   UNL     1      43.652 -14.448   6.394  1.00  0.00     0.153 C 
ENDROOT
BRANCH   1   2
HETATM    2  C   UNL     1      43.011 -15.845   6.496  1.00  0.00     0.157 C 
BRANCH   2   3
HETATM    3  N   UNL     1      43.955 -16.909   6.191  1.00  0.00    -0.340 N 
HETATM    4  C   UNL     1      43.574 -18.032   5.493  1.00  0.00     0.320 C 
HETATM    5  N   UNL     1      44.669 -18.776   5.117  1.00  0.00    -0.306 N 
HETATM    6  O   UNL     1      42.403 -18.272   5.229  1.00  0.00    -0.247 OA
HETATM    7  H   UNL     1      45.512 -18.232   5.015  1.00  0.00     0.171 HD
HETATM    8  H   UNL     1      44.905 -16.587   6.073  1.00  0.00     0.164 HD
BRANCH   5   9
HETATM    9  C   UNL     1      44.628 -19.999   4.406  1.00  0.00     0.077 A 
HETATM   10  C   UNL     1      44.459 -20.179   3.028  1.00  0.00     0.152 A 
HETATM   11  N   UNL     1      44.445 -21.394   2.419  1.00  0.00    -0.247 NA
HETATM   12 CL   UNL     1      43.982 -18.937   1.932  1.00  0.00    -0.060 Cl
HETATM   13  C   UNL     1      44.594 -22.479   3.203  1.00  0.00     0.118 A 
HETATM   14  C   UNL     1      44.723 -22.417   4.577  1.00  0.00     0.022 A 
HETATM   15  C   UNL     1      44.730 -21.163   5.182  1.00  0.00     0.034 A 
ENDBRANCH   5   9
ENDBRANCH   2   3
ENDBRANCH   1   2
BRANCH   1  16
HETATM   16  O   UNL     1      45.001 -14.541   6.881  1.00  0.00    -0.392 OA
HETATM   17  H   UNL     1      45.407 -15.350   6.497  1.00  0.00     0.210 HD
ENDBRANCH   1  16
BRANCH   1  18
HETATM   18  C   UNL     1      43.580 -13.871   4.968  1.00  0.00     0.157 C 
BRANCH  18  19
HETATM   19  N   UNL     1      42.490 -14.446   4.184  1.00  0.00    -0.340 N 
HETATM   20  C   UNL     1      42.259 -14.053   2.886  1.00  0.00     0.320 C 
HETATM   21  N   UNL     1      41.259 -14.804   2.316  1.00  0.00    -0.306 N 
HETATM   22  O   UNL     1      42.924 -13.179   2.347  1.00  0.00    -0.247 OA
HETATM   23  H   UNL     1      41.210 -15.737   2.697  1.00  0.00     0.171 HD
HETATM   24  H   UNL     1      41.709 -14.841   4.688  1.00  0.00     0.164 HD
BRANCH  21  25
HETATM   25  C   UNL     1      40.769 -14.637   0.997  1.00  0.00     0.077 A 
HETATM   26  C   UNL     1      39.695 -13.838   0.584  1.00  0.00     0.152 A 
HETATM   27 CL   UNL     1      38.561 -13.101   1.653  1.00  0.00    -0.060 Cl
HETATM   28  N   UNL     1      39.298 -13.712  -0.709  1.00  0.00    -0.247 NA
HETATM   29  C   UNL     1      39.980 -14.412  -1.635  1.00  0.00     0.118 A 
HETATM   30  C   UNL     1      41.023 -15.267  -1.331  1.00  0.00     0.022 A 
HETATM   31  C   UNL     1      41.412 -15.385   0.002  1.00  0.00     0.034 A 
ENDBRANCH  21  25
ENDBRANCH  18  19
ENDBRANCH   1  18
TORSDOF 7
ENDMDL
