MODEL 1
REMARK VINA RESULT:      -9.8      0.000      0.000
REMARK  7 active torsions:
REMARK  status: ('A' for Active; 'I' for Inactive)
REMARK    1  A    between atoms: N_2  and  C_4 
REMARK    2  A    between atoms: C_4  and  C_5 
REMARK    3  A    between atoms: C_5  and  C_6 
REMARK    4  A    between atoms: C_6  and  N_7 
REMARK    5  A    between atoms: N_7  and  C_8 
REMARK    6  A    between atoms: C_23  and  N_24 
REMARK    7  A    between atoms: N_27  and  C_29 
ROOT
HETATM    1  C   UNL     1      43.142 -15.654   4.631  1.00  0.00     0.025 A 
HETATM    2  C   UNL     1      43.313 -16.946   4.093  1.00  0.00     0.052 A 
HETATM    3  C   UNL     1      42.718 -17.057   2.862  1.00  0.00     0.050 A 
HETATM    4  C   UNL     1      42.769 -18.223   2.181  1.00  0.00     0.126 A 
HETATM    5  C   UNL     1      43.426 -19.438   2.592  1.00  0.00     0.015 A 
HETATM    6  C   UNL     1      44.054 -19.393   3.866  1.00  0.00     0.028 A 
HETATM    7  C   UNL     1      43.985 -18.127   4.689  1.00  0.00     0.196 A 
HETATM    8  O   UNL     1      44.437 -18.049   5.826  1.00  0.00    -0.287 OA
HETATM    9  C   UNL     1      43.484 -20.599   1.825  1.00  0.00     0.015 A 
HETATM   10  C   UNL     1      44.169 -21.712   2.322  1.00  0.00     0.001 A 
HETATM   11  C   UNL     1      44.788 -21.668   3.577  1.00  0.00     0.001 A 
HETATM   12  C   UNL     1      44.732 -20.509   4.355  1.00  0.00     0.016 A 
HETATM   13  C   UNL     1      42.012 -16.112   2.084  1.00  0.00     0.125 A 
HETATM   14  N   UNL     1      41.599 -16.748   0.959  1.00  0.00    -0.125 NA
HETATM   15  O   UNL     1      42.093 -18.063   1.019  1.00  0.00    -0.211 OA
HETATM   16  C   UNL     1      41.841 -14.776   2.558  1.00  0.00     0.064 A 
HETATM   17  C   UNL     1      42.464 -14.624   3.858  1.00  0.00     0.056 A 
ENDROOT
BRANCH  16  18
HETATM   18  N   UNL     1      41.253 -13.696   1.891  1.00  0.00    -0.376 N 
HETATM   19  C   UNL     1      39.790 -13.649   1.756  1.00  0.00     0.150 C 
HETATM   20  C   UNL     1      39.331 -14.298   0.431  1.00  0.00     0.255 C 
HETATM   21  N   UNL     1      40.025 -13.663  -0.789  1.00  0.00    -0.064 N 
HETATM   22  H   UNL     1      39.781 -12.666  -0.793  1.00  0.00     0.280 HD
HETATM   23  C   UNL     1      41.562 -13.729  -0.589  1.00  0.00     0.255 C 
HETATM   24  C   UNL     1      41.964 -13.077   0.754  1.00  0.00     0.150 C 
BRANCH  21  25
HETATM   25  C   UNL     1      39.561 -14.279  -2.123  1.00  0.00     0.188 C 
HETATM   26  C   UNL     1      38.041 -14.108  -2.316  1.00  0.00     0.033 C 
HETATM   27  C   UNL     1      37.625 -12.643  -2.466  1.00  0.00     0.002 C 
HETATM   28  C   UNL     1      38.379 -11.963  -3.606  1.00  0.00     0.000 C 
HETATM   29  C   UNL     1      39.891 -12.153  -3.503  1.00  0.00     0.002 C 
HETATM   30  C   UNL     1      40.265 -13.625  -3.325  1.00  0.00     0.033 C 
ENDBRANCH  21  25
ENDBRANCH  16  18
BRANCH   1  31
HETATM   31  N   UNL     1      43.736 -15.354   5.888  1.00  0.00    -0.292 NA
HETATM   32  H   UNL     1      43.176 -15.849   6.606  1.00  0.00     0.127 HD
BRANCH  31  33
HETATM   33  C   UNL     1      43.937 -13.945   6.200  1.00  0.00     0.094 C 
BRANCH  33  34
HETATM   34  C   UNL     1      45.079 -13.785   7.208  1.00  0.00     0.042 C 
BRANCH  34  35
HETATM   35  C   UNL     1      44.680 -12.923   8.404  1.00  0.00     0.235 C 
BRANCH  35  36
HETATM   36  N   UNL     1      45.899 -12.240   9.004  1.00  0.00    -0.079 N 
HETATM   37  C   UNL     1      45.582 -10.980   9.763  1.00  0.00     0.269 C 
HETATM   38  H   UNL     1      46.330 -12.898   9.667  1.00  0.00     0.278 HD
HETATM   39  C   UNL     1      46.950 -11.977   7.952  1.00  0.00     0.269 C 
ENDBRANCH  35  36
ENDBRANCH  34  35
ENDBRANCH  33  34
ENDBRANCH  31  33
ENDBRANCH   1  31
TORSDOF 7
ENDMDL
MODEL 2
REMARK VINA RESULT:      -9.4      1.402      1.974
REMARK  7 active torsions:
REMARK  status: ('A' for Active; 'I' for Inactive)
REMARK    1  A    between atoms: N_2  and  C_4 
REMARK    2  A    between atoms: C_4  and  C_5 
REMARK    3  A    between atoms: C_5  and  C_6 
REMARK    4  A    between atoms: C_6  and  N_7 
REMARK    5  A    between atoms: N_7  and  C_8 
REMARK    6  A    between atoms: C_23  and  N_24 
REMARK    7  A    between atoms: N_27  and  C_29 
ROOT
HETATM    1  C   UNL     1      42.588 -15.312   4.524  1.00  0.00     0.025 A 
HETATM    2  C   UNL     1      42.942 -16.616   4.123  1.00  0.00     0.052 A 
HETATM    3  C   UNL     1      42.462 -16.901   2.870  1.00  0.00     0.050 A 
HETATM    4  C   UNL     1      42.695 -18.107   2.306  1.00  0.00     0.126 A 
HETATM    5  C   UNL     1      43.446 -19.197   2.874  1.00  0.00     0.015 A 
HETATM    6  C   UNL     1      43.963 -18.971   4.178  1.00  0.00     0.028 A 
HETATM    7  C   UNL     1      43.691 -17.656   4.872  1.00  0.00     0.196 A 
HETATM    8  O   UNL     1      44.040 -17.429   6.025  1.00  0.00    -0.287 OA
HETATM    9  C   UNL     1      43.692 -20.405   2.225  1.00  0.00     0.015 A 
HETATM   10  C   UNL     1      44.453 -21.384   2.870  1.00  0.00     0.001 A 
HETATM   11  C   UNL     1      44.963 -21.161   4.155  1.00  0.00     0.001 A 
HETATM   12  C   UNL     1      44.719 -19.954   4.814  1.00  0.00     0.016 A 
HETATM   13  C   UNL     1      41.720 -16.114   1.960  1.00  0.00     0.125 A 
HETATM   14  N   UNL     1      41.469 -16.888   0.874  1.00  0.00    -0.125 NA
HETATM   15  O   UNL     1      42.099 -18.127   1.091  1.00  0.00    -0.211 OA
HETATM   16  C   UNL     1      41.367 -14.772   2.294  1.00  0.00     0.064 A 
HETATM   17  C   UNL     1      41.865 -14.437   3.614  1.00  0.00     0.056 A 
ENDROOT
BRANCH  16  18
HETATM   18  N   UNL     1      40.718 -13.828   1.490  1.00  0.00    -0.376 N 
HETATM   19  C   UNL     1      40.366 -14.187   0.108  1.00  0.00     0.150 C 
HETATM   20  C   UNL     1      41.484 -13.778  -0.877  1.00  0.00     0.255 C 
HETATM   21  N   UNL     1      41.832 -12.282  -0.760  1.00  0.00    -0.064 N 
HETATM   22  H   UNL     1      40.977 -11.754  -0.972  1.00  0.00     0.280 HD
HETATM   23  C   UNL     1      42.183 -11.957   0.716  1.00  0.00     0.255 C 
HETATM   24  C   UNL     1      41.037 -12.397   1.657  1.00  0.00     0.150 C 
BRANCH  21  25
HETATM   25  C   UNL     1      42.927 -11.848  -1.753  1.00  0.00     0.188 C 
HETATM   26  C   UNL     1      42.491 -12.105  -3.209  1.00  0.00     0.033 C 
HETATM   27  C   UNL     1      41.302 -11.241  -3.632  1.00  0.00     0.002 C 
HETATM   28  C   UNL     1      41.588  -9.756  -3.423  1.00  0.00     0.000 C 
HETATM   29  C   UNL     1      42.086  -9.448  -2.012  1.00  0.00     0.002 C 
HETATM   30  C   UNL     1      43.255 -10.351  -1.617  1.00  0.00     0.033 C 
ENDBRANCH  21  25
ENDBRANCH  16  18
BRANCH   1  31
HETATM   31  N   UNL     1      43.045 -14.839   5.785  1.00  0.00    -0.292 NA
HETATM   32  H   UNL     1      42.212 -14.484   6.288  1.00  0.00     0.127 HD
BRANCH  31  33
HETATM   33  C   UNL     1      44.146 -13.883   5.769  1.00  0.00     0.094 C 
BRANCH  33  34
HETATM   34  C   UNL     1      44.999 -14.040   7.031  1.00  0.00     0.042 C 
BRANCH  34  35
HETATM   35  C   UNL     1      44.603 -13.052   8.125  1.00  0.00     0.235 C 
BRANCH  35  36
HETATM   36  N   UNL     1      45.839 -12.461   8.788  1.00  0.00    -0.079 N 
HETATM   37  C   UNL     1      45.564 -11.226   9.603  1.00  0.00     0.269 C 
HETATM   38  H   UNL     1      46.218 -13.172   9.427  1.00  0.00     0.278 HD
HETATM   39  C   UNL     1      46.928 -12.200   7.777  1.00  0.00     0.269 C 
ENDBRANCH  35  36
ENDBRANCH  34  35
ENDBRANCH  33  34
ENDBRANCH  31  33
ENDBRANCH   1  31
TORSDOF 7
ENDMDL
MODEL 3
REMARK VINA RESULT:      -9.0      3.230      6.859
REMARK  7 active torsions:
REMARK  status: ('A' for Active; 'I' for Inactive)
REMARK    1  A    between atoms: N_2  and  C_4 
REMARK    2  A    between atoms: C_4  and  C_5 
REMARK    3  A    between atoms: C_5  and  C_6 
REMARK    4  A    between atoms: C_6  and  N_7 
REMARK    5  A    between atoms: N_7  and  C_8 
REMARK    6  A    between atoms: C_23  and  N_24 
REMARK    7  A    between atoms: N_27  and  C_29 
ROOT
HETATM    1  C   UNL     1      40.610 -15.710   2.704  1.00  0.00     0.025 A 
HETATM    2  C   UNL     1      41.530 -16.753   2.929  1.00  0.00     0.052 A 
HETATM    3  C   UNL     1      42.185 -16.592   4.123  1.00  0.00     0.050 A 
HETATM    4  C   UNL     1      43.113 -17.490   4.522  1.00  0.00     0.126 A 
HETATM    5  C   UNL     1      43.518 -18.683   3.823  1.00  0.00     0.015 A 
HETATM    6  C   UNL     1      42.885 -18.904   2.570  1.00  0.00     0.028 A 
HETATM    7  C   UNL     1      41.874 -17.904   2.058  1.00  0.00     0.196 A 
HETATM    8  O   UNL     1      41.352 -17.995   0.952  1.00  0.00    -0.287 OA
HETATM    9  C   UNL     1      44.450 -19.599   4.305  1.00  0.00     0.015 A 
HETATM   10  C   UNL     1      44.750 -20.734   3.545  1.00  0.00     0.001 A 
HETATM   11  C   UNL     1      44.126 -20.951   2.311  1.00  0.00     0.001 A 
HETATM   12  C   UNL     1      43.192 -20.037   1.818  1.00  0.00     0.016 A 
HETATM   13  C   UNL     1      42.065 -15.597   5.121  1.00  0.00     0.125 A 
HETATM   14  N   UNL     1      42.972 -15.887   6.087  1.00  0.00    -0.125 NA
HETATM   15  O   UNL     1      43.610 -17.084   5.713  1.00  0.00    -0.211 OA
HETATM   16  C   UNL     1      41.121 -14.537   4.967  1.00  0.00     0.064 A 
HETATM   17  C   UNL     1      40.407 -14.682   3.713  1.00  0.00     0.056 A 
ENDROOT
BRANCH  16  18
HETATM   18  N   UNL     1      40.808 -13.526   5.881  1.00  0.00    -0.376 N 
HETATM   19  C   UNL     1      39.402 -13.132   6.060  1.00  0.00     0.150 C 
HETATM   20  C   UNL     1      39.030 -11.957   5.128  1.00  0.00     0.255 C 
HETATM   21  N   UNL     1      39.975 -10.755   5.316  1.00  0.00    -0.064 N 
HETATM   22  H   UNL     1      39.895 -10.456   6.295  1.00  0.00     0.280 HD
HETATM   23  C   UNL     1      41.441 -11.229   5.130  1.00  0.00     0.255 C 
HETATM   24  C   UNL     1      41.755 -12.411   6.076  1.00  0.00     0.150 C 
BRANCH  21  25
HETATM   25  C   UNL     1      39.605  -9.562   4.414  1.00  0.00     0.188 C 
HETATM   26  C   UNL     1      38.236  -8.971   4.808  1.00  0.00     0.033 C 
HETATM   27  C   UNL     1      38.243  -8.342   6.202  1.00  0.00     0.002 C 
HETATM   28  C   UNL     1      39.331  -7.278   6.329  1.00  0.00     0.000 C 
HETATM   29  C   UNL     1      40.702  -7.788   5.892  1.00  0.00     0.002 C 
HETATM   30  C   UNL     1      40.649  -8.435   4.507  1.00  0.00     0.033 C 
ENDBRANCH  21  25
ENDBRANCH  16  18
BRANCH   1  31
HETATM   31  N   UNL     1      39.813 -15.746   1.526  1.00  0.00    -0.292 NA
HETATM   32  H   UNL     1      40.457 -15.607   0.727  1.00  0.00     0.127 HD
BRANCH  31  33
HETATM   33  C   UNL     1      38.661 -14.854   1.485  1.00  0.00     0.094 C 
BRANCH  33  34
HETATM   34  C   UNL     1      38.906 -13.722   0.483  1.00  0.00     0.042 C 
BRANCH  34  35
HETATM   35  C   UNL     1      40.114 -13.992  -0.411  1.00  0.00     0.235 C 
BRANCH  35  36
HETATM   36  N   UNL     1      39.729 -14.889  -1.578  1.00  0.00    -0.079 N 
HETATM   37  C   UNL     1      40.901 -15.543  -2.260  1.00  0.00     0.269 C 
HETATM   38  H   UNL     1      39.131 -15.640  -1.208  1.00  0.00     0.278 HD
HETATM   39  C   UNL     1      38.878 -14.147  -2.579  1.00  0.00     0.269 C 
ENDBRANCH  35  36
ENDBRANCH  34  35
ENDBRANCH  33  34
ENDBRANCH  31  33
ENDBRANCH   1  31
TORSDOF 7
ENDMDL
MODEL 4
REMARK VINA RESULT:      -9.0      2.414      6.362
REMARK  7 active torsions:
REMARK  status: ('A' for Active; 'I' for Inactive)
REMARK    1  A    between atoms: N_2  and  C_4 
REMARK    2  A    between atoms: C_4  and  C_5 
REMARK    3  A    between atoms: C_5  and  C_6 
REMARK    4  A    between atoms: C_6  and  N_7 
REMARK    5  A    between atoms: N_7  and  C_8 
REMARK    6  A    between atoms: C_23  and  N_24 
REMARK    7  A    between atoms: N_27  and  C_29 
ROOT
HETATM    1  C   UNL     1      42.999 -16.689   2.237  1.00  0.00     0.025 A 
HETATM    2  C   UNL     1      43.411 -17.884   2.861  1.00  0.00     0.052 A 
HETATM    3  C   UNL     1      43.451 -17.747   4.225  1.00  0.00     0.050 A 
HETATM    4  C   UNL     1      43.825 -18.785   5.006  1.00  0.00     0.126 A 
HETATM    5  C   UNL     1      44.191 -20.108   4.570  1.00  0.00     0.015 A 
HETATM    6  C   UNL     1      44.181 -20.314   3.165  1.00  0.00     0.028 A 
HETATM    7  C   UNL     1      43.816 -19.172   2.245  1.00  0.00     0.196 A 
HETATM    8  O   UNL     1      43.864 -19.262   1.022  1.00  0.00    -0.287 OA
HETATM    9  C   UNL     1      44.525 -21.154   5.427  1.00  0.00     0.015 A 
HETATM   10  C   UNL     1      44.845 -22.404   4.888  1.00  0.00     0.001 A 
HETATM   11  C   UNL     1      44.835 -22.607   3.503  1.00  0.00     0.001 A 
HETATM   12  C   UNL     1      44.504 -21.563   2.635  1.00  0.00     0.016 A 
HETATM   13  C   UNL     1      43.137 -16.648   5.057  1.00  0.00     0.125 A 
HETATM   14  N   UNL     1      43.384 -17.030   6.335  1.00  0.00    -0.125 NA
HETATM   15  O   UNL     1      43.795 -18.374   6.296  1.00  0.00    -0.211 OA
HETATM   16  C   UNL     1      42.677 -15.424   4.484  1.00  0.00     0.064 A 
HETATM   17  C   UNL     1      42.619 -15.537   3.040  1.00  0.00     0.056 A 
ENDROOT
BRANCH  16  18
HETATM   18  N   UNL     1      42.242 -14.273   5.152  1.00  0.00    -0.376 N 
HETATM   19  C   UNL     1      40.856 -14.210   5.640  1.00  0.00     0.150 C 
HETATM   20  C   UNL     1      39.925 -13.561   4.592  1.00  0.00     0.255 C 
HETATM   21  N   UNL     1      40.428 -12.170   4.160  1.00  0.00    -0.064 N 
HETATM   22  H   UNL     1      40.460 -11.583   5.002  1.00  0.00     0.280 HD
HETATM   23  C   UNL     1      41.894 -12.294   3.666  1.00  0.00     0.255 C 
HETATM   24  C   UNL     1      42.778 -12.959   4.747  1.00  0.00     0.150 C 
BRANCH  21  25
HETATM   25  C   UNL     1      39.499 -11.495   3.134  1.00  0.00     0.188 C 
HETATM   26  C   UNL     1      38.270 -10.869   3.825  1.00  0.00     0.033 C 
HETATM   27  C   UNL     1      38.639  -9.709   4.751  1.00  0.00     0.002 C 
HETATM   28  C   UNL     1      39.430  -8.633   4.010  1.00  0.00     0.000 C 
HETATM   29  C   UNL     1      40.627  -9.204   3.253  1.00  0.00     0.002 C 
HETATM   30  C   UNL     1      40.223 -10.379   2.361  1.00  0.00     0.033 C 
ENDBRANCH  21  25
ENDBRANCH  16  18
BRANCH   1  31
HETATM   31  N   UNL     1      42.862 -16.672   0.821  1.00  0.00    -0.292 NA
HETATM   32  H   UNL     1      43.413 -15.864   0.480  1.00  0.00     0.127 HD
BRANCH  31  33
HETATM   33  C   UNL     1      41.504 -16.693   0.292  1.00  0.00     0.094 C 
BRANCH  33  34
HETATM   34  C   UNL     1      41.207 -15.387  -0.451  1.00  0.00     0.042 C 
BRANCH  34  35
HETATM   35  C   UNL     1      41.022 -15.604  -1.951  1.00  0.00     0.235 C 
BRANCH  35  36
HETATM   36  N   UNL     1      39.602 -15.255  -2.373  1.00  0.00    -0.079 N 
HETATM   37  C   UNL     1      39.285 -15.606  -3.802  1.00  0.00     0.269 C 
HETATM   38  H   UNL     1      38.960 -15.792  -1.775  1.00  0.00     0.278 HD
HETATM   39  C   UNL     1      39.294 -13.804  -2.101  1.00  0.00     0.269 C 
ENDBRANCH  35  36
ENDBRANCH  34  35
ENDBRANCH  33  34
ENDBRANCH  31  33
ENDBRANCH   1  31
TORSDOF 7
ENDMDL
MODEL 5
REMARK VINA RESULT:      -8.9      1.667      2.333
REMARK  7 active torsions:
REMARK  status: ('A' for Active; 'I' for Inactive)
REMARK    1  A    between atoms: N_2  and  C_4 
REMARK    2  A    between atoms: C_4  and  C_5 
REMARK    3  A    between atoms: C_5  and  C_6 
REMARK    4  A    between atoms: C_6  and  N_7 
REMARK    5  A    between atoms: N_7  and  C_8 
REMARK    6  A    between atoms: C_23  and  N_24 
REMARK    7  A    between atoms: N_27  and  C_29 
ROOT
HETATM    1  C   UNL     1      42.816 -15.372   4.537  1.00  0.00     0.025 A 
HETATM    2  C   UNL     1      43.197 -16.690   4.214  1.00  0.00     0.052 A 
HETATM    3  C   UNL     1      43.025 -16.945   2.877  1.00  0.00     0.050 A 
HETATM    4  C   UNL     1      43.334 -18.158   2.367  1.00  0.00     0.126 A 
HETATM    5  C   UNL     1      43.873 -19.286   3.083  1.00  0.00     0.015 A 
HETATM    6  C   UNL     1      44.065 -19.091   4.477  1.00  0.00     0.028 A 
HETATM    7  C   UNL     1      43.691 -17.768   5.105  1.00  0.00     0.196 A 
HETATM    8  O   UNL     1      43.759 -17.563   6.312  1.00  0.00    -0.287 OA
HETATM    9  C   UNL     1      44.215 -20.501   2.494  1.00  0.00     0.015 A 
HETATM   10  C   UNL     1      44.750 -21.519   3.289  1.00  0.00     0.001 A 
HETATM   11  C   UNL     1      44.939 -21.327   4.663  1.00  0.00     0.001 A 
HETATM   12  C   UNL     1      44.597 -20.113   5.263  1.00  0.00     0.016 A 
HETATM   13  C   UNL     1      42.565 -16.119   1.826  1.00  0.00     0.125 A 
HETATM   14  N   UNL     1      42.552 -16.875   0.699  1.00  0.00    -0.125 NA
HETATM   15  O   UNL     1      43.052 -18.143   1.043  1.00  0.00    -0.211 OA
HETATM   16  C   UNL     1      42.202 -14.763   2.086  1.00  0.00     0.064 A 
HETATM   17  C   UNL     1      42.377 -14.459   3.492  1.00  0.00     0.056 A 
ENDROOT
BRANCH  16  18
HETATM   18  N   UNL     1      41.813 -13.786   1.163  1.00  0.00    -0.376 N 
HETATM   19  C   UNL     1      41.777 -12.378   1.584  1.00  0.00     0.150 C 
HETATM   20  C   UNL     1      40.374 -11.986   2.100  1.00  0.00     0.255 C 
HETATM   21  N   UNL     1      39.277 -12.285   1.061  1.00  0.00    -0.064 N 
HETATM   22  H   UNL     1      39.498 -11.741   0.219  1.00  0.00     0.280 HD
HETATM   23  C   UNL     1      39.369 -13.778   0.644  1.00  0.00     0.255 C 
HETATM   24  C   UNL     1      40.793 -14.117   0.148  1.00  0.00     0.150 C 
BRANCH  21  25
HETATM   25  C   UNL     1      37.873 -11.877   1.546  1.00  0.00     0.188 C 
HETATM   26  C   UNL     1      37.799 -10.363   1.824  1.00  0.00     0.033 C 
HETATM   27  C   UNL     1      37.970  -9.520   0.559  1.00  0.00     0.002 C 
HETATM   28  C   UNL     1      36.952  -9.908  -0.511  1.00  0.00     0.000 C 
HETATM   29  C   UNL     1      36.935 -11.410  -0.786  1.00  0.00     0.002 C 
HETATM   30  C   UNL     1      36.792 -12.218   0.505  1.00  0.00     0.033 C 
ENDBRANCH  21  25
ENDBRANCH  16  18
BRANCH   1  31
HETATM   31  N   UNL     1      42.971 -14.927   5.880  1.00  0.00    -0.292 NA
HETATM   32  H   UNL     1      42.043 -14.586   6.188  1.00  0.00     0.127 HD
BRANCH  31  33
HETATM   33  C   UNL     1      44.039 -13.968   6.134  1.00  0.00     0.094 C 
BRANCH  33  34
HETATM   34  C   UNL     1      44.637 -14.201   7.525  1.00  0.00     0.042 C 
BRANCH  34  35
HETATM   35  C   UNL     1      45.147 -12.910   8.160  1.00  0.00     0.235 C 
BRANCH  35  36
HETATM   36  N   UNL     1      44.195 -12.432   9.245  1.00  0.00    -0.079 N 
HETATM   37  C   UNL     1      43.334 -11.267   8.834  1.00  0.00     0.269 C 
HETATM   38  H   UNL     1      43.566 -13.214   9.473  1.00  0.00     0.278 HD
HETATM   39  C   UNL     1      44.935 -12.122  10.523  1.00  0.00     0.269 C 
ENDBRANCH  35  36
ENDBRANCH  34  35
ENDBRANCH  33  34
ENDBRANCH  31  33
ENDBRANCH   1  31
TORSDOF 7
ENDMDL
MODEL 6
REMARK VINA RESULT:      -8.7      3.079      8.008
REMARK  7 active torsions:
REMARK  status: ('A' for Active; 'I' for Inactive)
REMARK    1  A    between atoms: N_2  and  C_4 
REMARK    2  A    between atoms: C_4  and  C_5 
REMARK    3  A    between atoms: C_5  and  C_6 
REMARK    4  A    between atoms: C_6  and  N_7 
REMARK    5  A    between atoms: N_7  and  C_8 
REMARK    6  A    between atoms: C_23  and  N_24 
REMARK    7  A    between atoms: N_27  and  C_29 
ROOT
HETATM    1  C   UNL     1      40.940 -15.196   1.730  1.00  0.00     0.025 A 
HETATM    2  C   UNL     1      41.762 -16.046   2.497  1.00  0.00     0.052 A 
HETATM    3  C   UNL     1      41.971 -15.539   3.754  1.00  0.00     0.050 A 
HETATM    4  C   UNL     1      42.737 -16.208   4.644  1.00  0.00     0.126 A 
HETATM    5  C   UNL     1      43.390 -17.476   4.442  1.00  0.00     0.015 A 
HETATM    6  C   UNL     1      43.222 -18.053   3.154  1.00  0.00     0.028 A 
HETATM    7  C   UNL     1      42.414 -17.321   2.107  1.00  0.00     0.196 A 
HETATM    8  O   UNL     1      42.298 -17.725   0.955  1.00  0.00    -0.287 OA
HETATM    9  C   UNL     1      44.132 -18.142   5.414  1.00  0.00     0.015 A 
HETATM   10  C   UNL     1      44.704 -19.381   5.107  1.00  0.00     0.001 A 
HETATM   11  C   UNL     1      44.539 -19.949   3.839  1.00  0.00     0.001 A 
HETATM   12  C   UNL     1      43.799 -19.286   2.856  1.00  0.00     0.016 A 
HETATM   13  C   UNL     1      41.492 -14.359   4.370  1.00  0.00     0.125 A 
HETATM   14  N   UNL     1      42.029 -14.312   5.615  1.00  0.00    -0.125 NA
HETATM   15  O   UNL     1      42.791 -15.481   5.785  1.00  0.00    -0.211 OA
HETATM   16  C   UNL     1      40.623 -13.479   3.657  1.00  0.00     0.064 A 
HETATM   17  C   UNL     1      40.379 -13.991   2.322  1.00  0.00     0.056 A 
ENDROOT
BRANCH  16  18
HETATM   18  N   UNL     1      39.990 -12.326   4.132  1.00  0.00    -0.376 N 
HETATM   19  C   UNL     1      40.765 -11.082   4.256  1.00  0.00     0.150 C 
HETATM   20  C   UNL     1      41.370 -10.941   5.671  1.00  0.00     0.255 C 
HETATM   21  N   UNL     1      40.292 -11.037   6.767  1.00  0.00    -0.064 N 
HETATM   22  H   UNL     1      39.622 -10.277   6.602  1.00  0.00     0.280 HD
HETATM   23  C   UNL     1      39.499 -12.358   6.582  1.00  0.00     0.255 C 
HETATM   24  C   UNL     1      38.927 -12.453   5.149  1.00  0.00     0.150 C 
BRANCH  21  25
HETATM   25  C   UNL     1      40.871 -10.872   8.184  1.00  0.00     0.188 C 
HETATM   26  C   UNL     1      41.608  -9.526   8.331  1.00  0.00     0.033 C 
HETATM   27  C   UNL     1      40.671  -8.323   8.215  1.00  0.00     0.002 C 
HETATM   28  C   UNL     1      39.527  -8.407   9.222  1.00  0.00     0.000 C 
HETATM   29  C   UNL     1      38.797  -9.748   9.167  1.00  0.00     0.002 C 
HETATM   30  C   UNL     1      39.769 -10.925   9.257  1.00  0.00     0.033 C 
ENDBRANCH  21  25
ENDBRANCH  16  18
BRANCH   1  31
HETATM   31  N   UNL     1      40.588 -15.595   0.411  1.00  0.00    -0.292 NA
HETATM   32  H   UNL     1      40.709 -16.623   0.370  1.00  0.00     0.127 HD
BRANCH  31  33
HETATM   33  C   UNL     1      41.256 -14.904  -0.685  1.00  0.00     0.094 C 
BRANCH  33  34
HETATM   34  C   UNL     1      40.891 -15.557  -2.021  1.00  0.00     0.042 C 
BRANCH  34  35
HETATM   35  C   UNL     1      39.947 -14.690  -2.851  1.00  0.00     0.235 C 
BRANCH  35  36
HETATM   36  N   UNL     1      38.516 -14.822  -2.350  1.00  0.00    -0.079 N 
HETATM   37  C   UNL     1      37.524 -15.187  -3.421  1.00  0.00     0.269 C 
HETATM   38  H   UNL     1      38.502 -15.575  -1.648  1.00  0.00     0.278 HD
HETATM   39  C   UNL     1      38.077 -13.578  -1.619  1.00  0.00     0.269 C 
ENDBRANCH  35  36
ENDBRANCH  34  35
ENDBRANCH  33  34
ENDBRANCH  31  33
ENDBRANCH   1  31
TORSDOF 7
ENDMDL
MODEL 7
REMARK VINA RESULT:      -8.6      3.109      7.377
REMARK  7 active torsions:
REMARK  status: ('A' for Active; 'I' for Inactive)
REMARK    1  A    between atoms: N_2  and  C_4 
REMARK    2  A    between atoms: C_4  and  C_5 
REMARK    3  A    between atoms: C_5  and  C_6 
REMARK    4  A    between atoms: C_6  and  N_7 
REMARK    5  A    between atoms: N_7  and  C_8 
REMARK    6  A    between atoms: C_23  and  N_24 
REMARK    7  A    between atoms: N_27  and  C_29 
ROOT
HETATM    1  C   UNL     1      42.044 -15.830   1.790  1.00  0.00     0.025 A 
HETATM    2  C   UNL     1      42.570 -16.841   2.619  1.00  0.00     0.052 A 
HETATM    3  C   UNL     1      42.180 -16.672   3.923  1.00  0.00     0.050 A 
HETATM    4  C   UNL     1      42.583 -17.540   4.877  1.00  0.00     0.126 A 
HETATM    5  C   UNL     1      43.406 -18.708   4.691  1.00  0.00     0.015 A 
HETATM    6  C   UNL     1      43.854 -18.937   3.362  1.00  0.00     0.028 A 
HETATM    7  C   UNL     1      43.470 -17.968   2.268  1.00  0.00     0.196 A 
HETATM    8  O   UNL     1      43.888 -18.064   1.118  1.00  0.00    -0.287 OA
HETATM    9  C   UNL     1      43.754 -19.595   5.707  1.00  0.00     0.015 A 
HETATM   10  C   UNL     1      44.543 -20.708   5.402  1.00  0.00     0.001 A 
HETATM   11  C   UNL     1      44.985 -20.933   4.093  1.00  0.00     0.001 A 
HETATM   12  C   UNL     1      44.643 -20.047   3.068  1.00  0.00     0.016 A 
HETATM   13  C   UNL     1      41.354 -15.695   4.525  1.00  0.00     0.125 A 
HETATM   14  N   UNL     1      41.319 -15.963   5.854  1.00  0.00    -0.125 NA
HETATM   15  O   UNL     1      42.076 -17.131   6.063  1.00  0.00    -0.211 OA
HETATM   16  C   UNL     1      40.760 -14.669   3.730  1.00  0.00     0.064 A 
HETATM   17  C   UNL     1      41.150 -14.823   2.342  1.00  0.00     0.056 A 
ENDROOT
BRANCH  16  18
HETATM   18  N   UNL     1      39.856 -13.682   4.136  1.00  0.00    -0.376 N 
HETATM   19  C   UNL     1      39.668 -12.492   3.293  1.00  0.00     0.150 C 
HETATM   20  C   UNL     1      40.612 -11.347   3.725  1.00  0.00     0.255 C 
HETATM   21  N   UNL     1      40.450 -11.004   5.218  1.00  0.00    -0.064 N 
HETATM   22  H   UNL     1      39.474 -10.717   5.360  1.00  0.00     0.280 HD
HETATM   23  C   UNL     1      40.646 -12.294   6.059  1.00  0.00     0.255 C 
HETATM   24  C   UNL     1      39.687 -13.407   5.577  1.00  0.00     0.150 C 
BRANCH  21  25
HETATM   25  C   UNL     1      41.364  -9.846   5.663  1.00  0.00     0.188 C 
HETATM   26  C   UNL     1      40.883  -8.503   5.080  1.00  0.00     0.033 C 
HETATM   27  C   UNL     1      39.520  -8.075   5.625  1.00  0.00     0.002 C 
HETATM   28  C   UNL     1      39.522  -8.015   7.151  1.00  0.00     0.000 C 
HETATM   29  C   UNL     1      40.050  -9.300   7.787  1.00  0.00     0.002 C 
HETATM   30  C   UNL     1      41.400  -9.709   7.196  1.00  0.00     0.033 C 
ENDBRANCH  21  25
ENDBRANCH  16  18
BRANCH   1  31
HETATM   31  N   UNL     1      42.318 -15.881   0.395  1.00  0.00    -0.292 NA
HETATM   32  H   UNL     1      42.878 -15.039   0.172  1.00  0.00     0.127 HD
BRANCH  31  33
HETATM   33  C   UNL     1      41.174 -16.050  -0.493  1.00  0.00     0.094 C 
BRANCH  33  34
HETATM   34  C   UNL     1      41.091 -14.879  -1.475  1.00  0.00     0.042 C 
BRANCH  34  35
HETATM   35  C   UNL     1      40.756 -15.335  -2.893  1.00  0.00     0.235 C 
BRANCH  35  36
HETATM   36  N   UNL     1      39.259 -15.558  -3.046  1.00  0.00    -0.079 N 
HETATM   37  C   UNL     1      38.869 -16.232  -4.335  1.00  0.00     0.269 C 
HETATM   38  H   UNL     1      38.956 -16.170  -2.276  1.00  0.00     0.278 HD
HETATM   39  C   UNL     1      38.494 -14.271  -2.866  1.00  0.00     0.269 C 
ENDBRANCH  35  36
ENDBRANCH  34  35
ENDBRANCH  33  34
ENDBRANCH  31  33
ENDBRANCH   1  31
TORSDOF 7
ENDMDL
MODEL 8
REMARK VINA RESULT:      -8.5      2.932      3.587
REMARK  7 active torsions:
REMARK  status: ('A' for Active; 'I' for Inactive)
REMARK    1  A    between atoms: N_2  and  C_4 
REMARK    2  A    between atoms: C_4  and  C_5 
REMARK    3  A    between atoms: C_5  and  C_6 
REMARK    4  A    between atoms: C_6  and  N_7 
REMARK    5  A    between atoms: N_7  and  C_8 
REMARK    6  A    between atoms: C_23  and  N_24 
REMARK    7  A    between atoms: N_27  and  C_29 
ROOT
HETATM    1  C   UNL     1      40.550 -14.800   4.797  1.00  0.00     0.025 A 
HETATM    2  C   UNL     1      41.361 -15.948   4.686  1.00  0.00     0.052 A 
HETATM    3  C   UNL     1      41.579 -16.280   3.373  1.00  0.00     0.050 A 
HETATM    4  C   UNL     1      42.333 -17.355   3.055  1.00  0.00     0.126 A 
HETATM    5  C   UNL     1      42.999 -18.246   3.971  1.00  0.00     0.015 A 
HETATM    6  C   UNL     1      42.805 -17.963   5.350  1.00  0.00     0.028 A 
HETATM    7  C   UNL     1      41.931 -16.800   5.758  1.00  0.00     0.196 A 
HETATM    8  O   UNL     1      41.659 -16.552   6.929  1.00  0.00    -0.287 OA
HETATM    9  C   UNL     1      43.804 -19.315   3.584  1.00  0.00     0.015 A 
HETATM   10  C   UNL     1      44.416 -20.100   4.565  1.00  0.00     0.001 A 
HETATM   11  C   UNL     1      44.224 -19.822   5.924  1.00  0.00     0.001 A 
HETATM   12  C   UNL     1      43.417 -18.754   6.322  1.00  0.00     0.016 A 
HETATM   13  C   UNL     1      41.150 -15.661   2.176  1.00  0.00     0.125 A 
HETATM   14  N   UNL     1      41.613 -16.415   1.148  1.00  0.00    -0.125 NA
HETATM   15  O   UNL     1      42.369 -17.462   1.707  1.00  0.00    -0.211 OA
HETATM   16  C   UNL     1      40.360 -14.473   2.225  1.00  0.00     0.064 A 
HETATM   17  C   UNL     1      40.115 -14.092   3.603  1.00  0.00     0.056 A 
ENDROOT
BRANCH  16  18
HETATM   18  N   UNL     1      39.925 -13.686   1.154  1.00  0.00    -0.376 N 
HETATM   19  C   UNL     1      39.948 -14.248  -0.204  1.00  0.00     0.150 C 
HETATM   20  C   UNL     1      41.276 -13.917  -0.922  1.00  0.00     0.255 C 
HETATM   21  N   UNL     1      41.555 -12.403  -0.942  1.00  0.00    -0.064 N 
HETATM   22  H   UNL     1      40.775 -11.956  -1.438  1.00  0.00     0.280 HD
HETATM   23  C   UNL     1      41.506 -11.860   0.511  1.00  0.00     0.255 C 
HETATM   24  C   UNL     1      40.164 -12.229   1.185  1.00  0.00     0.150 C 
BRANCH  21  25
HETATM   25  C   UNL     1      42.861 -12.049  -1.677  1.00  0.00     0.188 C 
HETATM   26  C   UNL     1      42.798 -12.473  -3.158  1.00  0.00     0.033 C 
HETATM   27  C   UNL     1      41.751 -11.692  -3.953  1.00  0.00     0.002 C 
HETATM   28  C   UNL     1      41.978 -10.186  -3.847  1.00  0.00     0.000 C 
HETATM   29  C   UNL     1      42.112  -9.715  -2.400  1.00  0.00     0.002 C 
HETATM   30  C   UNL     1      43.147 -10.538  -1.631  1.00  0.00     0.033 C 
ENDBRANCH  21  25
ENDBRANCH  16  18
BRANCH   1  31
HETATM   31  N   UNL     1      40.261 -14.293   6.094  1.00  0.00    -0.292 NA
HETATM   32  H   UNL     1      39.373 -14.735   6.395  1.00  0.00     0.127 HD
BRANCH  31  33
HETATM   33  C   UNL     1      40.249 -12.843   6.245  1.00  0.00     0.094 C 
BRANCH  33  34
HETATM   34  C   UNL     1      39.339 -12.441   7.410  1.00  0.00     0.042 C 
BRANCH  34  35
HETATM   35  C   UNL     1      39.804 -11.157   8.092  1.00  0.00     0.235 C 
BRANCH  35  36
HETATM   36  N   UNL     1      39.199 -11.038   9.483  1.00  0.00    -0.079 N 
HETATM   37  C   UNL     1      38.364  -9.801   9.683  1.00  0.00     0.269 C 
HETATM   38  H   UNL     1      38.584 -11.850   9.624  1.00  0.00     0.278 HD
HETATM   39  C   UNL     1      40.261 -11.142  10.550  1.00  0.00     0.269 C 
ENDBRANCH  35  36
ENDBRANCH  34  35
ENDBRANCH  33  34
ENDBRANCH  31  33
ENDBRANCH   1  31
TORSDOF 7
ENDMDL
MODEL 9
REMARK VINA RESULT:      -8.4      2.457      7.888
REMARK  7 active torsions:
REMARK  status: ('A' for Active; 'I' for Inactive)
REMARK    1  A    between atoms: N_2  and  C_4 
REMARK    2  A    between atoms: C_4  and  C_5 
REMARK    3  A    between atoms: C_5  and  C_6 
REMARK    4  A    between atoms: C_6  and  N_7 
REMARK    5  A    between atoms: N_7  and  C_8 
REMARK    6  A    between atoms: C_23  and  N_24 
REMARK    7  A    between atoms: N_27  and  C_29 
ROOT
HETATM    1  C   UNL     1      41.999 -13.522   2.233  1.00  0.00     0.025 A 
HETATM    2  C   UNL     1      41.825 -13.187   0.875  1.00  0.00     0.052 A 
HETATM    3  C   UNL     1      41.604 -14.303   0.109  1.00  0.00     0.050 A 
HETATM    4  C   UNL     1      41.414 -14.192  -1.224  1.00  0.00     0.126 A 
HETATM    5  C   UNL     1      41.391 -12.976  -1.996  1.00  0.00     0.015 A 
HETATM    6  C   UNL     1      41.624 -11.781  -1.264  1.00  0.00     0.028 A 
HETATM    7  C   UNL     1      41.889 -11.856   0.222  1.00  0.00     0.196 A 
HETATM    8  O   UNL     1      42.174 -10.872   0.896  1.00  0.00    -0.287 OA
HETATM    9  C   UNL     1      41.145 -12.919  -3.366  1.00  0.00     0.015 A 
HETATM   10  C   UNL     1      41.128 -11.675  -4.006  1.00  0.00     0.001 A 
HETATM   11  C   UNL     1      41.357 -10.498  -3.284  1.00  0.00     0.001 A 
HETATM   12  C   UNL     1      41.607 -10.546  -1.910  1.00  0.00     0.016 A 
HETATM   13  C   UNL     1      41.511 -15.669   0.464  1.00  0.00     0.125 A 
HETATM   14  N   UNL     1      41.320 -16.369  -0.682  1.00  0.00    -0.125 NA
HETATM   15  O   UNL     1      41.241 -15.435  -1.731  1.00  0.00    -0.211 OA
HETATM   16  C   UNL     1      41.639 -16.065   1.830  1.00  0.00     0.064 A 
HETATM   17  C   UNL     1      41.869 -14.905   2.668  1.00  0.00     0.056 A 
ENDROOT
BRANCH  16  18
HETATM   18  N   UNL     1      41.489 -17.347   2.370  1.00  0.00    -0.376 N 
HETATM   19  C   UNL     1      41.233 -17.491   3.811  1.00  0.00     0.150 C 
HETATM   20  C   UNL     1      42.551 -17.667   4.597  1.00  0.00     0.255 C 
HETATM   21  N   UNL     1      43.387 -18.843   4.060  1.00  0.00    -0.064 N 
HETATM   22  H   UNL     1      42.815 -19.691   4.154  1.00  0.00     0.280 HD
HETATM   23  C   UNL     1      43.617 -18.646   2.537  1.00  0.00     0.255 C 
HETATM   24  C   UNL     1      42.269 -18.465   1.803  1.00  0.00     0.150 C 
BRANCH  21  25
HETATM   25  C   UNL     1      44.694 -19.051   4.848  1.00  0.00     0.188 C 
HETATM   26  C   UNL     1      44.412 -19.245   6.351  1.00  0.00     0.033 C 
HETATM   27  C   UNL     1      43.639 -20.531   6.647  1.00  0.00     0.002 C 
HETATM   28  C   UNL     1      44.357 -21.756   6.086  1.00  0.00     0.000 C 
HETATM   29  C   UNL     1      44.720 -21.596   4.611  1.00  0.00     0.002 C 
HETATM   30  C   UNL     1      45.465 -20.287   4.351  1.00  0.00     0.033 C 
ENDBRANCH  21  25
ENDBRANCH  16  18
BRANCH   1  31
HETATM   31  N   UNL     1      42.196 -12.474   3.174  1.00  0.00    -0.292 NA
HETATM   32  H   UNL     1      43.219 -12.373   3.296  1.00  0.00     0.127 HD
BRANCH  31  33
HETATM   33  C   UNL     1      41.484 -12.587   4.441  1.00  0.00     0.094 C 
BRANCH  33  34
HETATM   34  C   UNL     1      42.475 -12.541   5.608  1.00  0.00     0.042 C 
BRANCH  34  35
HETATM   35  C   UNL     1      43.379 -13.772   5.650  1.00  0.00     0.235 C 
BRANCH  35  36
HETATM   36  N   UNL     1      43.722 -14.138   7.086  1.00  0.00    -0.079 N 
HETATM   37  C   UNL     1      44.934 -13.427   7.625  1.00  0.00     0.269 C 
HETATM   38  H   UNL     1      42.921 -13.870   7.674  1.00  0.00     0.278 HD
HETATM   39  C   UNL     1      43.863 -15.631   7.249  1.00  0.00     0.269 C 
ENDBRANCH  35  36
ENDBRANCH  34  35
ENDBRANCH  33  34
ENDBRANCH  31  33
ENDBRANCH   1  31
TORSDOF 7
ENDMDL
MODEL 10
REMARK VINA RESULT:      -8.3      2.499      3.773
REMARK  7 active torsions:
REMARK  status: ('A' for Active; 'I' for Inactive)
REMARK    1  A    between atoms: N_2  and  C_4 
REMARK    2  A    between atoms: C_4  and  C_5 
REMARK    3  A    between atoms: C_5  and  C_6 
REMARK    4  A    between atoms: C_6  and  N_7 
REMARK    5  A    between atoms: N_7  and  C_8 
REMARK    6  A    between atoms: C_23  and  N_24 
REMARK    7  A    between atoms: N_27  and  C_29 
ROOT
HETATM    1  C   UNL     1      43.229 -15.980   4.664  1.00  0.00     0.025 A 
HETATM    2  C   UNL     1      43.366 -17.259   4.089  1.00  0.00     0.052 A 
HETATM    3  C   UNL     1      42.603 -17.382   2.956  1.00  0.00     0.050 A 
HETATM    4  C   UNL     1      42.595 -18.539   2.257  1.00  0.00     0.126 A 
HETATM    5  C   UNL     1      43.347 -19.732   2.552  1.00  0.00     0.015 A 
HETATM    6  C   UNL     1      44.152 -19.675   3.722  1.00  0.00     0.028 A 
HETATM    7  C   UNL     1      44.158 -18.420   4.564  1.00  0.00     0.196 A 
HETATM    8  O   UNL     1      44.768 -18.335   5.625  1.00  0.00    -0.287 OA
HETATM    9  C   UNL     1      43.335 -20.883   1.768  1.00  0.00     0.015 A 
HETATM   10  C   UNL     1      44.123 -21.975   2.145  1.00  0.00     0.001 A 
HETATM   11  C   UNL     1      44.916 -21.919   3.297  1.00  0.00     0.001 A 
HETATM   12  C   UNL     1      44.933 -20.769   4.091  1.00  0.00     0.016 A 
HETATM   13  C   UNL     1      41.758 -16.456   2.301  1.00  0.00     0.125 A 
HETATM   14  N   UNL     1      41.208 -17.097   1.239  1.00  0.00    -0.125 NA
HETATM   15  O   UNL     1      41.753 -18.394   1.208  1.00  0.00    -0.211 OA
HETATM   16  C   UNL     1      41.611 -15.132   2.814  1.00  0.00     0.064 A 
HETATM   17  C   UNL     1      42.410 -14.968   4.013  1.00  0.00     0.056 A 
ENDROOT
BRANCH  16  18
HETATM   18  N   UNL     1      40.894 -14.068   2.255  1.00  0.00    -0.376 N 
HETATM   19  C   UNL     1      41.620 -12.867   1.818  1.00  0.00     0.150 C 
HETATM   20  C   UNL     1      41.678 -11.810   2.945  1.00  0.00     0.255 C 
HETATM   21  N   UNL     1      40.274 -11.453   3.469  1.00  0.00    -0.064 N 
HETATM   22  H   UNL     1      39.739 -11.081   2.675  1.00  0.00     0.280 HD
HETATM   23  C   UNL     1      39.550 -12.756   3.903  1.00  0.00     0.255 C 
HETATM   24  C   UNL     1      39.531 -13.780   2.745  1.00  0.00     0.150 C 
BRANCH  21  25
HETATM   25  C   UNL     1      40.308 -10.382   4.574  1.00  0.00     0.188 C 
HETATM   26  C   UNL     1      40.977  -9.086   4.072  1.00  0.00     0.033 C 
HETATM   27  C   UNL     1      40.175  -8.396   2.968  1.00  0.00     0.002 C 
HETATM   28  C   UNL     1      38.743  -8.109   3.413  1.00  0.00     0.000 C 
HETATM   29  C   UNL     1      38.048  -9.345   3.980  1.00  0.00     0.002 C 
HETATM   30  C   UNL     1      38.893 -10.023   5.061  1.00  0.00     0.033 C 
ENDBRANCH  21  25
ENDBRANCH  16  18
BRANCH   1  31
HETATM   31  N   UNL     1      43.988 -15.670   5.826  1.00  0.00    -0.292 NA
HETATM   32  H   UNL     1      44.300 -16.573   6.227  1.00  0.00     0.127 HD
BRANCH  31  33
HETATM   33  C   UNL     1      43.356 -14.802   6.812  1.00  0.00     0.094 C 
BRANCH  33  34
HETATM   34  C   UNL     1      44.080 -13.454   6.870  1.00  0.00     0.042 C 
BRANCH  34  35
HETATM   35  C   UNL     1      44.900 -13.292   8.148  1.00  0.00     0.235 C 
BRANCH  35  36
HETATM   36  N   UNL     1      44.103 -12.546   9.207  1.00  0.00    -0.079 N 
HETATM   37  C   UNL     1      43.348 -11.356   8.680  1.00  0.00     0.269 C 
HETATM   38  H   UNL     1      43.410 -13.202   9.594  1.00  0.00     0.278 HD
HETATM   39  C   UNL     1      44.978 -12.148  10.370  1.00  0.00     0.269 C 
ENDBRANCH  35  36
ENDBRANCH  34  35
ENDBRANCH  33  34
ENDBRANCH  31  33
ENDBRANCH   1  31
TORSDOF 7
ENDMDL
