MODEL 1
REMARK VINA RESULT:      -9.3      0.000      0.000
REMARK  8 active torsions:
REMARK  status: ('A' for Active; 'I' for Inactive)
REMARK    1  A    between atoms: C_4  and  C_5 
REMARK    2  A    between atoms: C_5  and  C_6 
REMARK    3  A    between atoms: C_6  and  C_7 
REMARK    4  A    between atoms: C_7  and  N_8 
REMARK    5  A    between atoms: C_17  and  C_18 
REMARK    6  A    between atoms: C_18  and  N_19 
REMARK    7  A    between atoms: C_23  and  O_24 
REMARK    8  A    between atoms: C_23  and  C_25 
ROOT
HETATM    1  N   UNL     1      43.002 -16.276   5.185  1.00  0.00    -0.065 N 
HETATM    2  H   UNL     1      43.881 -16.680   5.535  1.00  0.00     0.280 HD
HETATM    3  C   UNL     1      43.234 -14.780   5.117  1.00  0.00     0.276 C 
HETATM    4  C   UNL     1      42.141 -14.011   4.425  1.00  0.00     0.001 A 
HETATM    5  C   UNL     1      40.870 -13.952   5.001  1.00  0.00     0.076 A 
HETATM    6  O   UNL     1      40.614 -14.588   6.183  1.00  0.00    -0.349 OA
HETATM    7  C   UNL     1      40.591 -16.014   6.013  1.00  0.00     0.203 C 
HETATM    8  C   UNL     1      41.971 -16.635   6.260  1.00  0.00     0.261 C 
HETATM    9  C   UNL     1      42.351 -13.359   3.196  1.00  0.00     0.020 A 
HETATM   10  C   UNL     1      41.307 -12.661   2.555  1.00  0.00    -0.032 A 
HETATM   11  C   UNL     1      40.057 -12.584   3.187  1.00  0.00     0.011 A 
HETATM   12  C   UNL     1      39.846 -13.218   4.413  1.00  0.00     0.038 A 
ENDROOT
BRANCH  10  13
HETATM   13  C   UNL     1      41.517 -12.040   1.194  1.00  0.00     0.273 C 
BRANCH  13  14
HETATM   14  N   UNL     1      41.900 -13.001   0.084  1.00  0.00    -0.067 N 
HETATM   15  H   UNL     1      42.810 -13.408   0.344  1.00  0.00     0.280 HD
HETATM   16  C   UNL     1      40.927 -14.146  -0.062  1.00  0.00     0.238 C 
HETATM   17  C   UNL     1      41.346 -15.043  -1.211  1.00  0.00     0.071 C 
HETATM   18  C   UNL     1      41.392 -14.278  -2.549  1.00  0.00     0.089 C 
HETATM   19  C   UNL     1      42.430 -13.155  -2.363  1.00  0.00     0.071 C 
HETATM   20  C   UNL     1      42.104 -12.228  -1.203  1.00  0.00     0.238 C 
BRANCH  18  21
HETATM   21  O   UNL     1      41.942 -15.177  -3.511  1.00  0.00    -0.385 OA
HETATM   22  H   UNL     1      41.951 -14.762  -4.395  1.00  0.00     0.211 HD
ENDBRANCH  18  21
BRANCH  18  23
HETATM   23  C   UNL     1      40.011 -13.847  -3.029  1.00  0.00    -0.006 A 
HETATM   24  C   UNL     1      39.712 -12.549  -3.441  1.00  0.00     0.126 A 
HETATM   25  N   UNL     1      38.481 -12.117  -3.789  1.00  0.00    -0.272 NA
HETATM   26  C   UNL     1      37.491 -13.028  -3.829  1.00  0.00     0.116 A 
HETATM   27  C   UNL     1      37.680 -14.359  -3.511  1.00  0.00     0.020 A 
HETATM   28  C   UNL     1      38.952 -14.767  -3.113  1.00  0.00     0.013 A 
ENDBRANCH  18  23
ENDBRANCH  13  14
ENDBRANCH  10  13
BRANCH   1  29
HETATM   29  C   UNL     1      42.728 -16.967   3.855  1.00  0.00     0.236 C 
BRANCH  29  30
HETATM   30  C   UNL     1      43.971 -17.709   3.353  1.00  0.00     0.039 C 
BRANCH  30  31
HETATM   31  C   UNL     1      43.725 -18.647   2.154  1.00  0.00     0.040 C 
HETATM   32  C   UNL     1      42.317 -18.501   1.570  1.00  0.00     0.017 C 
BRANCH  31  33
HETATM   33  C   UNL     1      44.031 -20.067   2.474  1.00  0.00     0.057 A 
HETATM   34  O   UNL     1      44.463 -20.338   3.738  1.00  0.00    -0.319 OA
HETATM   35  C   UNL     1      44.648 -21.687   3.815  1.00  0.00     0.049 A 
HETATM   36  C   UNL     1      45.096 -22.233   5.113  1.00  0.00     0.076 C 
HETATM   37  C   UNL     1      44.346 -22.276   2.607  1.00  0.00     0.035 A 
HETATM   38  C   UNL     1      43.948 -21.231   1.741  1.00  0.00     0.035 A 
ENDBRANCH  31  33
ENDBRANCH  30  31
ENDBRANCH  29  30
ENDBRANCH   1  29
TORSDOF 8
ENDMDL
MODEL 2
REMARK VINA RESULT:      -8.9      3.905      8.132
REMARK  8 active torsions:
REMARK  status: ('A' for Active; 'I' for Inactive)
REMARK    1  A    between atoms: C_4  and  C_5 
REMARK    2  A    between atoms: C_5  and  C_6 
REMARK    3  A    between atoms: C_6  and  C_7 
REMARK    4  A    between atoms: C_7  and  N_8 
REMARK    5  A    between atoms: C_17  and  C_18 
REMARK    6  A    between atoms: C_18  and  N_19 
REMARK    7  A    between atoms: C_23  and  O_24 
REMARK    8  A    between atoms: C_23  and  C_25 
ROOT
HETATM    1  N   UNL     1      41.634 -16.735   1.181  1.00  0.00    -0.065 N 
HETATM    2  H   UNL     1      41.778 -17.735   0.987  1.00  0.00     0.280 HD
HETATM    3  C   UNL     1      40.440 -16.664   2.112  1.00  0.00     0.276 C 
HETATM    4  C   UNL     1      40.186 -15.300   2.694  1.00  0.00     0.001 A 
HETATM    5  C   UNL     1      39.801 -14.253   1.854  1.00  0.00     0.076 A 
HETATM    6  O   UNL     1      39.656 -14.459   0.511  1.00  0.00    -0.349 OA
HETATM    7  C   UNL     1      40.929 -14.648  -0.128  1.00  0.00     0.203 C 
HETATM    8  C   UNL     1      41.314 -16.131  -0.190  1.00  0.00     0.261 C 
HETATM    9  C   UNL     1      40.344 -15.034   4.067  1.00  0.00     0.020 A 
HETATM   10  C   UNL     1      40.119 -13.744   4.589  1.00  0.00    -0.032 A 
HETATM   11  C   UNL     1      39.687 -12.729   3.721  1.00  0.00     0.011 A 
HETATM   12  C   UNL     1      39.517 -12.989   2.360  1.00  0.00     0.038 A 
ENDROOT
BRANCH  10  13
HETATM   13  C   UNL     1      40.377 -13.447   6.047  1.00  0.00     0.273 C 
BRANCH  13  14
HETATM   14  N   UNL     1      40.249 -11.991   6.455  1.00  0.00    -0.067 N 
HETATM   15  H   UNL     1      39.752 -11.510   5.691  1.00  0.00     0.280 HD
HETATM   16  C   UNL     1      39.425 -11.804   7.707  1.00  0.00     0.238 C 
HETATM   17  C   UNL     1      39.370 -10.334   8.080  1.00  0.00     0.071 C 
HETATM   18  C   UNL     1      40.775  -9.755   8.338  1.00  0.00     0.089 C 
HETATM   19  C   UNL     1      41.556  -9.927   7.022  1.00  0.00     0.071 C 
HETATM   20  C   UNL     1      41.628 -11.372   6.555  1.00  0.00     0.238 C 
BRANCH  18  21
HETATM   21  O   UNL     1      40.606  -8.350   8.524  1.00  0.00    -0.385 OA
HETATM   22  H   UNL     1      40.053  -8.177   9.311  1.00  0.00     0.211 HD
ENDBRANCH  18  21
BRANCH  18  23
HETATM   23  C   UNL     1      41.428 -10.330   9.590  1.00  0.00    -0.006 A 
HETATM   24  C   UNL     1      40.704 -10.804  10.684  1.00  0.00     0.126 A 
HETATM   25  N   UNL     1      41.253 -11.239  11.838  1.00  0.00    -0.272 NA
HETATM   26  C   UNL     1      42.596 -11.306  11.902  1.00  0.00     0.116 A 
HETATM   27  C   UNL     1      43.418 -10.931  10.857  1.00  0.00     0.020 A 
HETATM   28  C   UNL     1      42.824 -10.444   9.693  1.00  0.00     0.013 A 
ENDBRANCH  18  23
ENDBRANCH  13  14
ENDBRANCH  10  13
BRANCH   1  29
HETATM   29  C   UNL     1      42.953 -16.230   1.752  1.00  0.00     0.236 C 
BRANCH  29  30
HETATM   30  C   UNL     1      43.885 -17.394   2.104  1.00  0.00     0.039 C 
BRANCH  30  31
HETATM   31  C   UNL     1      43.412 -18.269   3.282  1.00  0.00     0.040 C 
HETATM   32  C   UNL     1      43.812 -17.693   4.643  1.00  0.00     0.017 C 
BRANCH  31  33
HETATM   33  C   UNL     1      43.849 -19.685   3.146  1.00  0.00     0.057 A 
HETATM   34  O   UNL     1      44.354 -20.286   4.260  1.00  0.00    -0.319 OA
HETATM   35  C   UNL     1      44.654 -21.571   3.916  1.00  0.00     0.049 A 
HETATM   36  C   UNL     1      45.200 -22.443   4.978  1.00  0.00     0.076 C 
HETATM   37  C   UNL     1      44.354 -21.790   2.590  1.00  0.00     0.035 A 
HETATM   38  C   UNL     1      43.834 -20.572   2.092  1.00  0.00     0.035 A 
ENDBRANCH  31  33
ENDBRANCH  30  31
ENDBRANCH  29  30
ENDBRANCH   1  29
TORSDOF 8
ENDMDL
MODEL 3
REMARK VINA RESULT:      -8.8      2.389      7.688
REMARK  8 active torsions:
REMARK  status: ('A' for Active; 'I' for Inactive)
REMARK    1  A    between atoms: C_4  and  C_5 
REMARK    2  A    between atoms: C_5  and  C_6 
REMARK    3  A    between atoms: C_6  and  C_7 
REMARK    4  A    between atoms: C_7  and  N_8 
REMARK    5  A    between atoms: C_17  and  C_18 
REMARK    6  A    between atoms: C_18  and  N_19 
REMARK    7  A    between atoms: C_23  and  O_24 
REMARK    8  A    between atoms: C_23  and  C_25 
ROOT
HETATM    1  N   UNL     1      39.436 -10.392   1.909  1.00  0.00    -0.065 N 
HETATM    2  H   UNL     1      39.171 -10.129   0.950  1.00  0.00     0.280 HD
HETATM    3  C   UNL     1      38.698 -11.683   2.201  1.00  0.00     0.276 C 
HETATM    4  C   UNL     1      39.111 -12.360   3.480  1.00  0.00     0.001 A 
HETATM    5  C   UNL     1      38.845 -11.740   4.703  1.00  0.00     0.076 A 
HETATM    6  O   UNL     1      38.218 -10.527   4.745  1.00  0.00    -0.349 OA
HETATM    7  C   UNL     1      39.080  -9.478   4.277  1.00  0.00     0.203 C 
HETATM    8  C   UNL     1      38.912  -9.239   2.771  1.00  0.00     0.261 C 
HETATM    9  C   UNL     1      39.778 -13.598   3.487  1.00  0.00     0.020 A 
HETATM   10  C   UNL     1      40.173 -14.205   4.697  1.00  0.00    -0.032 A 
HETATM   11  C   UNL     1      39.848 -13.576   5.908  1.00  0.00     0.011 A 
HETATM   12  C   UNL     1      39.174 -12.353   5.908  1.00  0.00     0.038 A 
ENDROOT
BRANCH  10  13
HETATM   13  C   UNL     1      40.968 -15.490   4.691  1.00  0.00     0.273 C 
BRANCH  13  14
HETATM   14  N   UNL     1      41.665 -15.827   3.386  1.00  0.00    -0.067 N 
HETATM   15  H   UNL     1      41.453 -15.062   2.729  1.00  0.00     0.280 HD
HETATM   16  C   UNL     1      43.167 -15.891   3.522  1.00  0.00     0.238 C 
HETATM   17  C   UNL     1      43.796 -16.270   2.195  1.00  0.00     0.071 C 
HETATM   18  C   UNL     1      43.301 -17.642   1.697  1.00  0.00     0.089 C 
HETATM   19  C   UNL     1      41.775 -17.510   1.529  1.00  0.00     0.071 C 
HETATM   20  C   UNL     1      41.068 -17.095   2.809  1.00  0.00     0.238 C 
BRANCH  18  21
HETATM   21  O   UNL     1      43.835 -17.815   0.385  1.00  0.00    -0.385 OA
HETATM   22  H   UNL     1      44.774 -18.077   0.434  1.00  0.00     0.211 HD
ENDBRANCH  18  21
BRANCH  18  23
HETATM   23  C   UNL     1      43.786 -18.795   2.568  1.00  0.00    -0.006 A 
HETATM   24  C   UNL     1      44.143 -18.647   3.908  1.00  0.00     0.126 A 
HETATM   25  N   UNL     1      44.656 -19.628   4.680  1.00  0.00    -0.272 NA
HETATM   26  C   UNL     1      44.743 -20.860   4.144  1.00  0.00     0.116 A 
HETATM   27  C   UNL     1      44.354 -21.146   2.850  1.00  0.00     0.020 A 
HETATM   28  C   UNL     1      43.868 -20.103   2.061  1.00  0.00     0.013 A 
ENDBRANCH  18  23
ENDBRANCH  13  14
ENDBRANCH  10  13
BRANCH   1  29
HETATM   29  C   UNL     1      40.957 -10.481   1.909  1.00  0.00     0.236 C 
BRANCH  29  30
HETATM   30  C   UNL     1      41.522 -10.268   0.501  1.00  0.00     0.039 C 
BRANCH  30  31
HETATM   31  C   UNL     1      42.275 -11.480  -0.085  1.00  0.00     0.040 C 
HETATM   32  C   UNL     1      42.961 -11.161  -1.416  1.00  0.00     0.017 C 
BRANCH  31  33
HETATM   33  C   UNL     1      41.407 -12.682  -0.201  1.00  0.00     0.057 A 
HETATM   34  O   UNL     1      40.231 -12.535  -0.874  1.00  0.00    -0.319 OA
HETATM   35  C   UNL     1      39.623 -13.756  -0.884  1.00  0.00     0.049 A 
HETATM   36  C   UNL     1      38.328 -13.858  -1.589  1.00  0.00     0.076 C 
HETATM   37  C   UNL     1      40.398 -14.676  -0.213  1.00  0.00     0.035 A 
HETATM   38  C   UNL     1      41.549 -13.984   0.229  1.00  0.00     0.035 A 
ENDBRANCH  31  33
ENDBRANCH  30  31
ENDBRANCH  29  30
ENDBRANCH   1  29
TORSDOF 8
ENDMDL
MODEL 4
REMARK VINA RESULT:      -8.7      1.905      5.315
REMARK  8 active torsions:
REMARK  status: ('A' for Active; 'I' for Inactive)
REMARK    1  A    between atoms: C_4  and  C_5 
REMARK    2  A    between atoms: C_5  and  C_6 
REMARK    3  A    between atoms: C_6  and  C_7 
REMARK    4  A    between atoms: C_7  and  N_8 
REMARK    5  A    between atoms: C_17  and  C_18 
REMARK    6  A    between atoms: C_18  and  N_19 
REMARK    7  A    between atoms: C_23  and  O_24 
REMARK    8  A    between atoms: C_23  and  C_25 
ROOT
HETATM    1  N   UNL     1      43.591 -18.650   6.197  1.00  0.00    -0.065 N 
HETATM    2  H   UNL     1      43.187 -18.734   7.139  1.00  0.00     0.280 HD
HETATM    3  C   UNL     1      42.413 -18.520   5.253  1.00  0.00     0.276 C 
HETATM    4  C   UNL     1      42.784 -18.169   3.838  1.00  0.00     0.001 A 
HETATM    5  C   UNL     1      43.509 -19.082   3.069  1.00  0.00     0.076 A 
HETATM    6  O   UNL     1      43.884 -20.287   3.594  1.00  0.00    -0.349 OA
HETATM    7  C   UNL     1      44.918 -20.128   4.578  1.00  0.00     0.203 C 
HETATM    8  C   UNL     1      44.335 -19.972   5.988  1.00  0.00     0.261 C 
HETATM    9  C   UNL     1      42.440 -16.932   3.262  1.00  0.00     0.020 A 
HETATM   10  C   UNL     1      42.816 -16.615   1.940  1.00  0.00    -0.032 A 
HETATM   11  C   UNL     1      43.503 -17.576   1.183  1.00  0.00     0.011 A 
HETATM   12  C   UNL     1      43.836 -18.810   1.745  1.00  0.00     0.038 A 
ENDROOT
BRANCH  10  13
HETATM   13  C   UNL     1      42.521 -15.252   1.361  1.00  0.00     0.273 C 
BRANCH  13  14
HETATM   14  N   UNL     1      41.280 -15.160   0.492  1.00  0.00    -0.067 N 
HETATM   15  H   UNL     1      40.634 -15.894   0.817  1.00  0.00     0.280 HD
HETATM   16  C   UNL     1      40.561 -13.840   0.635  1.00  0.00     0.238 C 
HETATM   17  C   UNL     1      39.357 -13.800  -0.287  1.00  0.00     0.071 C 
HETATM   18  C   UNL     1      39.760 -13.969  -1.765  1.00  0.00     0.089 C 
HETATM   19  C   UNL     1      40.445 -15.345  -1.866  1.00  0.00     0.071 C 
HETATM   20  C   UNL     1      41.644 -15.484  -0.942  1.00  0.00     0.238 C 
BRANCH  18  21
HETATM   21  O   UNL     1      38.546 -14.069  -2.508  1.00  0.00    -0.385 OA
HETATM   22  H   UNL     1      37.997 -14.799  -2.162  1.00  0.00     0.211 HD
ENDBRANCH  18  21
BRANCH  18  23
HETATM   23  C   UNL     1      40.553 -12.781  -2.298  1.00  0.00    -0.006 A 
HETATM   24  C   UNL     1      40.323 -11.465  -1.900  1.00  0.00     0.126 A 
HETATM   25  N   UNL     1      40.949 -10.385  -2.416  1.00  0.00    -0.272 NA
HETATM   26  C   UNL     1      41.928 -10.604  -3.313  1.00  0.00     0.116 A 
HETATM   27  C   UNL     1      42.294 -11.867  -3.733  1.00  0.00     0.020 A 
HETATM   28  C   UNL     1      41.602 -12.961  -3.216  1.00  0.00     0.013 A 
ENDBRANCH  18  23
ENDBRANCH  13  14
ENDBRANCH  10  13
BRANCH   1  29
HETATM   29  C   UNL     1      44.530 -17.450   6.255  1.00  0.00     0.236 C 
BRANCH  29  30
HETATM   30  C   UNL     1      43.859 -16.258   6.945  1.00  0.00     0.039 C 
BRANCH  30  31
HETATM   31  C   UNL     1      44.250 -14.878   6.378  1.00  0.00     0.040 C 
HETATM   32  C   UNL     1      44.739 -13.912   7.461  1.00  0.00     0.017 C 
BRANCH  31  33
HETATM   33  C   UNL     1      43.162 -14.271   5.566  1.00  0.00     0.057 A 
HETATM   34  O   UNL     1      41.882 -14.590   5.909  1.00  0.00    -0.319 OA
HETATM   35  C   UNL     1      41.061 -13.904   5.063  1.00  0.00     0.049 A 
HETATM   36  C   UNL     1      39.605 -14.067   5.257  1.00  0.00     0.076 C 
HETATM   37  C   UNL     1      41.809 -13.159   4.178  1.00  0.00     0.035 A 
HETATM   38  C   UNL     1      43.165 -13.397   4.501  1.00  0.00     0.035 A 
ENDBRANCH  31  33
ENDBRANCH  30  31
ENDBRANCH  29  30
ENDBRANCH   1  29
TORSDOF 8
ENDMDL
MODEL 5
REMARK VINA RESULT:      -8.7      2.207      5.588
REMARK  8 active torsions:
REMARK  status: ('A' for Active; 'I' for Inactive)
REMARK    1  A    between atoms: C_4  and  C_5 
REMARK    2  A    between atoms: C_5  and  C_6 
REMARK    3  A    between atoms: C_6  and  C_7 
REMARK    4  A    between atoms: C_7  and  N_8 
REMARK    5  A    between atoms: C_17  and  C_18 
REMARK    6  A    between atoms: C_18  and  N_19 
REMARK    7  A    between atoms: C_23  and  O_24 
REMARK    8  A    between atoms: C_23  and  C_25 
ROOT
HETATM    1  N   UNL     1      43.556 -18.694   6.281  1.00  0.00    -0.065 N 
HETATM    2  H   UNL     1      43.102 -18.833   7.193  1.00  0.00     0.280 HD
HETATM    3  C   UNL     1      42.430 -18.495   5.286  1.00  0.00     0.276 C 
HETATM    4  C   UNL     1      42.878 -18.060   3.917  1.00  0.00     0.001 A 
HETATM    5  C   UNL     1      43.636 -18.931   3.132  1.00  0.00     0.076 A 
HETATM    6  O   UNL     1      43.974 -20.170   3.599  1.00  0.00    -0.349 OA
HETATM    7  C   UNL     1      44.956 -20.083   4.644  1.00  0.00     0.203 C 
HETATM    8  C   UNL     1      44.301 -20.008   6.029  1.00  0.00     0.261 C 
HETATM    9  C   UNL     1      42.573 -16.787   3.403  1.00  0.00     0.020 A 
HETATM   10  C   UNL     1      43.019 -16.392   2.125  1.00  0.00    -0.032 A 
HETATM   11  C   UNL     1      43.739 -17.312   1.346  1.00  0.00     0.011 A 
HETATM   12  C   UNL     1      44.033 -18.581   1.846  1.00  0.00     0.038 A 
ENDROOT
BRANCH  10  13
HETATM   13  C   UNL     1      42.764 -14.993   1.617  1.00  0.00     0.273 C 
BRANCH  13  14
HETATM   14  N   UNL     1      41.375 -14.441   1.876  1.00  0.00    -0.067 N 
HETATM   15  H   UNL     1      41.200 -14.538   2.887  1.00  0.00     0.280 HD
HETATM   16  C   UNL     1      41.255 -12.973   1.543  1.00  0.00     0.238 C 
HETATM   17  C   UNL     1      39.835 -12.497   1.787  1.00  0.00     0.071 C 
HETATM   18  C   UNL     1      38.816 -13.269   0.926  1.00  0.00     0.089 C 
HETATM   19  C   UNL     1      38.944 -14.748   1.337  1.00  0.00     0.071 C 
HETATM   20  C   UNL     1      40.351 -15.297   1.159  1.00  0.00     0.238 C 
BRANCH  18  21
HETATM   21  O   UNL     1      37.522 -12.845   1.353  1.00  0.00    -0.385 OA
HETATM   22  H   UNL     1      37.274 -12.013   0.907  1.00  0.00     0.211 HD
ENDBRANCH  18  21
BRANCH  18  23
HETATM   23  C   UNL     1      38.953 -12.968  -0.562  1.00  0.00    -0.006 A 
HETATM   24  C   UNL     1      39.521 -11.795  -1.057  1.00  0.00     0.126 A 
HETATM   25  N   UNL     1      39.580 -11.462  -2.365  1.00  0.00    -0.272 NA
HETATM   26  C   UNL     1      39.140 -12.369  -3.257  1.00  0.00     0.116 A 
HETATM   27  C   UNL     1      38.622 -13.595  -2.890  1.00  0.00     0.020 A 
HETATM   28  C   UNL     1      38.534 -13.894  -1.532  1.00  0.00     0.013 A 
ENDBRANCH  18  23
ENDBRANCH  13  14
ENDBRANCH  10  13
BRANCH   1  29
HETATM   29  C   UNL     1      44.499 -17.510   6.462  1.00  0.00     0.236 C 
BRANCH  29  30
HETATM   30  C   UNL     1      43.766 -16.311   7.072  1.00  0.00     0.039 C 
BRANCH  30  31
HETATM   31  C   UNL     1      43.992 -14.973   6.338  1.00  0.00     0.040 C 
HETATM   32  C   UNL     1      44.903 -14.020   7.117  1.00  0.00     0.017 C 
BRANCH  31  33
HETATM   33  C   UNL     1      42.715 -14.311   5.962  1.00  0.00     0.057 A 
HETATM   34  O   UNL     1      42.768 -12.979   5.677  1.00  0.00    -0.319 OA
HETATM   35  C   UNL     1      41.506 -12.596   5.331  1.00  0.00     0.049 A 
HETATM   36  C   UNL     1      41.312 -11.181   4.948  1.00  0.00     0.076 C 
HETATM   37  C   UNL     1      40.647 -13.670   5.404  1.00  0.00     0.035 A 
HETATM   38  C   UNL     1      41.426 -14.777   5.813  1.00  0.00     0.035 A 
ENDBRANCH  31  33
ENDBRANCH  30  31
ENDBRANCH  29  30
ENDBRANCH   1  29
TORSDOF 8
ENDMDL
MODEL 6
REMARK VINA RESULT:      -8.7      2.809      5.956
REMARK  8 active torsions:
REMARK  status: ('A' for Active; 'I' for Inactive)
REMARK    1  A    between atoms: C_4  and  C_5 
REMARK    2  A    between atoms: C_5  and  C_6 
REMARK    3  A    between atoms: C_6  and  C_7 
REMARK    4  A    between atoms: C_7  and  N_8 
REMARK    5  A    between atoms: C_17  and  C_18 
REMARK    6  A    between atoms: C_18  and  N_19 
REMARK    7  A    between atoms: C_23  and  O_24 
REMARK    8  A    between atoms: C_23  and  C_25 
ROOT
HETATM    1  N   UNL     1      43.484 -18.293   6.387  1.00  0.00    -0.065 N 
HETATM    2  H   UNL     1      43.032 -18.255   7.310  1.00  0.00     0.280 HD
HETATM    3  C   UNL     1      42.355 -18.393   5.380  1.00  0.00     0.276 C 
HETATM    4  C   UNL     1      42.785 -18.245   3.946  1.00  0.00     0.001 A 
HETATM    5  C   UNL     1      43.604 -19.218   3.369  1.00  0.00     0.076 A 
HETATM    6  O   UNL     1      44.017 -20.297   4.097  1.00  0.00    -0.349 OA
HETATM    7  C   UNL     1      44.983 -19.918   5.090  1.00  0.00     0.203 C 
HETATM    8  C   UNL     1      44.314 -19.580   6.428  1.00  0.00     0.261 C 
HETATM    9  C   UNL     1      42.403 -17.140   3.163  1.00  0.00     0.020 A 
HETATM   10  C   UNL     1      42.833 -17.011   1.827  1.00  0.00    -0.032 A 
HETATM   11  C   UNL     1      43.616 -18.032   1.267  1.00  0.00     0.011 A 
HETATM   12  C   UNL     1      43.988 -19.137   2.035  1.00  0.00     0.038 A 
ENDROOT
BRANCH  10  13
HETATM   13  C   UNL     1      42.493 -15.778   1.023  1.00  0.00     0.273 C 
BRANCH  13  14
HETATM   14  N   UNL     1      41.418 -14.883   1.612  1.00  0.00    -0.067 N 
HETATM   15  H   UNL     1      41.521 -14.930   2.637  1.00  0.00     0.280 HD
HETATM   16  C   UNL     1      41.580 -13.435   1.216  1.00  0.00     0.238 C 
HETATM   17  C   UNL     1      40.454 -12.605   1.805  1.00  0.00     0.071 C 
HETATM   18  C   UNL     1      39.073 -13.085   1.319  1.00  0.00     0.089 C 
HETATM   19  C   UNL     1      38.939 -14.546   1.788  1.00  0.00     0.071 C 
HETATM   20  C   UNL     1      40.053 -15.443   1.271  1.00  0.00     0.238 C 
BRANCH  18  21
HETATM   21  O   UNL     1      38.103 -12.338   2.053  1.00  0.00    -0.385 OA
HETATM   22  H   UNL     1      37.525 -11.842   1.442  1.00  0.00     0.211 HD
ENDBRANCH  18  21
BRANCH  18  23
HETATM   23  C   UNL     1      38.851 -12.831  -0.168  1.00  0.00    -0.006 A 
HETATM   24  C   UNL     1      39.252 -11.663  -0.814  1.00  0.00     0.126 A 
HETATM   25  N   UNL     1      38.994 -11.372  -2.108  1.00  0.00    -0.272 NA
HETATM   26  C   UNL     1      38.387 -12.319  -2.848  1.00  0.00     0.116 A 
HETATM   27  C   UNL     1      38.005 -13.544  -2.337  1.00  0.00     0.020 A 
HETATM   28  C   UNL     1      38.245 -13.799  -0.987  1.00  0.00     0.013 A 
ENDBRANCH  18  23
ENDBRANCH  13  14
ENDBRANCH  10  13
BRANCH   1  29
HETATM   29  C   UNL     1      44.347 -17.040   6.295  1.00  0.00     0.236 C 
BRANCH  29  30
HETATM   30  C   UNL     1      43.971 -16.031   7.385  1.00  0.00     0.039 C 
BRANCH  30  31
HETATM   31  C   UNL     1      43.787 -14.582   6.889  1.00  0.00     0.040 C 
HETATM   32  C   UNL     1      43.745 -14.482   5.362  1.00  0.00     0.017 C 
BRANCH  31  33
HETATM   33  C   UNL     1      44.801 -13.656   7.462  1.00  0.00     0.057 A 
HETATM   34  O   UNL     1      44.489 -13.051   8.643  1.00  0.00    -0.319 OA
HETATM   35  C   UNL     1      45.562 -12.283   8.991  1.00  0.00     0.049 A 
HETATM   36  C   UNL     1      45.473 -11.540  10.266  1.00  0.00     0.076 C 
HETATM   37  C   UNL     1      46.548 -12.386   8.036  1.00  0.00     0.035 A 
HETATM   38  C   UNL     1      46.058 -13.271   7.048  1.00  0.00     0.035 A 
ENDBRANCH  31  33
ENDBRANCH  30  31
ENDBRANCH  29  30
ENDBRANCH   1  29
TORSDOF 8
ENDMDL
MODEL 7
REMARK VINA RESULT:      -8.6      4.232      8.284
REMARK  8 active torsions:
REMARK  status: ('A' for Active; 'I' for Inactive)
REMARK    1  A    between atoms: C_4  and  C_5 
REMARK    2  A    between atoms: C_5  and  C_6 
REMARK    3  A    between atoms: C_6  and  C_7 
REMARK    4  A    between atoms: C_7  and  N_8 
REMARK    5  A    between atoms: C_17  and  C_18 
REMARK    6  A    between atoms: C_18  and  N_19 
REMARK    7  A    between atoms: C_23  and  O_24 
REMARK    8  A    between atoms: C_23  and  C_25 
ROOT
HETATM    1  N   UNL     1      41.450  -9.474   7.806  1.00  0.00    -0.065 N 
HETATM    2  H   UNL     1      42.162  -8.753   7.982  1.00  0.00     0.280 HD
HETATM    3  C   UNL     1      41.731  -9.997   6.411  1.00  0.00     0.276 C 
HETATM    4  C   UNL     1      40.935 -11.217   6.032  1.00  0.00     0.001 A 
HETATM    5  C   UNL     1      39.549 -11.119   5.893  1.00  0.00     0.076 A 
HETATM    6  O   UNL     1      38.913  -9.927   6.102  1.00  0.00    -0.349 OA
HETATM    7  C   UNL     1      38.908  -9.576   7.494  1.00  0.00     0.203 C 
HETATM    8  C   UNL     1      40.122  -8.714   7.863  1.00  0.00     0.261 C 
HETATM    9  C   UNL     1      41.542 -12.469   5.828  1.00  0.00     0.020 A 
HETATM   10  C   UNL     1      40.775 -13.604   5.492  1.00  0.00    -0.032 A 
HETATM   11  C   UNL     1      39.391 -13.457   5.316  1.00  0.00     0.011 A 
HETATM   12  C   UNL     1      38.785 -12.213   5.504  1.00  0.00     0.038 A 
ENDROOT
BRANCH  10  13
HETATM   13  C   UNL     1      41.423 -14.962   5.364  1.00  0.00     0.273 C 
BRANCH  13  14
HETATM   14  N   UNL     1      41.857 -15.356   3.965  1.00  0.00    -0.067 N 
HETATM   15  H   UNL     1      41.545 -14.603   3.334  1.00  0.00     0.280 HD
HETATM   16  C   UNL     1      43.356 -15.461   3.823  1.00  0.00     0.238 C 
HETATM   17  C   UNL     1      43.718 -15.895   2.415  1.00  0.00     0.071 C 
HETATM   18  C   UNL     1      43.105 -17.264   2.062  1.00  0.00     0.089 C 
HETATM   19  C   UNL     1      41.579 -17.091   2.174  1.00  0.00     0.071 C 
HETATM   20  C   UNL     1      41.132 -16.620   3.549  1.00  0.00     0.238 C 
BRANCH  18  21
HETATM   21  O   UNL     1      43.382 -17.488   0.680  1.00  0.00    -0.385 OA
HETATM   22  H   UNL     1      42.553 -17.496   0.165  1.00  0.00     0.211 HD
ENDBRANCH  18  21
BRANCH  18  23
HETATM   23  C   UNL     1      43.715 -18.408   2.865  1.00  0.00    -0.006 A 
HETATM   24  C   UNL     1      44.101 -18.287   4.199  1.00  0.00     0.126 A 
HETATM   25  N   UNL     1      44.721 -19.253   4.911  1.00  0.00    -0.272 NA
HETATM   26  C   UNL     1      44.896 -20.448   4.315  1.00  0.00     0.116 A 
HETATM   27  C   UNL     1      44.491 -20.710   3.021  1.00  0.00     0.020 A 
HETATM   28  C   UNL     1      43.893 -19.680   2.296  1.00  0.00     0.013 A 
ENDBRANCH  18  23
ENDBRANCH  13  14
ENDBRANCH  10  13
BRANCH   1  29
HETATM   29  C   UNL     1      41.597 -10.486   8.936  1.00  0.00     0.236 C 
BRANCH  29  30
HETATM   30  C   UNL     1      42.543  -9.965  10.023  1.00  0.00     0.039 C 
BRANCH  30  31
HETATM   31  C   UNL     1      43.437 -11.040  10.673  1.00  0.00     0.040 C 
HETATM   32  C   UNL     1      44.040 -10.581  12.004  1.00  0.00     0.017 C 
BRANCH  31  33
HETATM   33  C   UNL     1      44.490 -11.536   9.747  1.00  0.00     0.057 A 
HETATM   34  O   UNL     1      44.148 -12.555   8.909  1.00  0.00    -0.319 OA
HETATM   35  C   UNL     1      45.242 -12.821   8.139  1.00  0.00     0.049 A 
HETATM   36  C   UNL     1      45.107 -13.885   7.122  1.00  0.00     0.076 C 
HETATM   37  C   UNL     1      46.281 -11.987   8.488  1.00  0.00     0.035 A 
HETATM   38  C   UNL     1      45.797 -11.158   9.526  1.00  0.00     0.035 A 
ENDBRANCH  31  33
ENDBRANCH  30  31
ENDBRANCH  29  30
ENDBRANCH   1  29
TORSDOF 8
ENDMDL
MODEL 8
REMARK VINA RESULT:      -8.6      2.659      5.676
REMARK  8 active torsions:
REMARK  status: ('A' for Active; 'I' for Inactive)
REMARK    1  A    between atoms: C_4  and  C_5 
REMARK    2  A    between atoms: C_5  and  C_6 
REMARK    3  A    between atoms: C_6  and  C_7 
REMARK    4  A    between atoms: C_7  and  N_8 
REMARK    5  A    between atoms: C_17  and  C_18 
REMARK    6  A    between atoms: C_18  and  N_19 
REMARK    7  A    between atoms: C_23  and  O_24 
REMARK    8  A    between atoms: C_23  and  C_25 
ROOT
HETATM    1  N   UNL     1      43.346 -18.207   6.102  1.00  0.00    -0.065 N 
HETATM    2  H   UNL     1      42.940 -18.252   7.046  1.00  0.00     0.280 HD
HETATM    3  C   UNL     1      42.168 -18.168   5.149  1.00  0.00     0.276 C 
HETATM    4  C   UNL     1      42.535 -17.885   3.717  1.00  0.00     0.001 A 
HETATM    5  C   UNL     1      43.291 -18.817   3.003  1.00  0.00     0.076 A 
HETATM    6  O   UNL     1      43.700 -19.979   3.596  1.00  0.00    -0.349 OA
HETATM    7  C   UNL     1      44.724 -19.733   4.572  1.00  0.00     0.203 C 
HETATM    8  C   UNL     1      44.131 -19.516   5.970  1.00  0.00     0.261 C 
HETATM    9  C   UNL     1      42.156 -16.694   3.072  1.00  0.00     0.020 A 
HETATM   10  C   UNL     1      42.527 -16.440   1.736  1.00  0.00    -0.032 A 
HETATM   11  C   UNL     1      43.247 -17.420   1.036  1.00  0.00     0.011 A 
HETATM   12  C   UNL     1      43.615 -18.610   1.667  1.00  0.00     0.038 A 
ENDROOT
BRANCH  10  13
HETATM   13  C   UNL     1      42.193 -15.121   1.080  1.00  0.00     0.273 C 
BRANCH  13  14
HETATM   14  N   UNL     1      40.995 -15.133   0.149  1.00  0.00    -0.067 N 
HETATM   15  H   UNL     1      40.380 -15.897   0.465  1.00  0.00     0.280 HD
HETATM   16  C   UNL     1      40.188 -13.858   0.216  1.00  0.00     0.238 C 
HETATM   17  C   UNL     1      39.032 -13.921  -0.765  1.00  0.00     0.071 C 
HETATM   18  C   UNL     1      39.520 -14.105  -2.215  1.00  0.00     0.089 C 
HETATM   19  C   UNL     1      40.293 -15.438  -2.240  1.00  0.00     0.071 C 
HETATM   20  C   UNL     1      41.451 -15.473  -1.255  1.00  0.00     0.238 C 
BRANCH  18  21
HETATM   21  O   UNL     1      38.353 -14.304  -3.013  1.00  0.00    -0.385 OA
HETATM   22  H   UNL     1      38.523 -14.979  -3.698  1.00  0.00     0.211 HD
ENDBRANCH  18  21
BRANCH  18  23
HETATM   23  C   UNL     1      40.263 -12.884  -2.746  1.00  0.00    -0.006 A 
HETATM   24  C   UNL     1      41.371 -12.967  -3.588  1.00  0.00     0.126 A 
HETATM   25  N   UNL     1      42.101 -11.910  -4.005  1.00  0.00    -0.272 NA
HETATM   26  C   UNL     1      41.671 -10.683  -3.657  1.00  0.00     0.116 A 
HETATM   27  C   UNL     1      40.545 -10.471  -2.886  1.00  0.00     0.020 A 
HETATM   28  C   UNL     1      39.837 -11.583  -2.433  1.00  0.00     0.013 A 
ENDBRANCH  18  23
ENDBRANCH  13  14
ENDBRANCH  10  13
BRANCH   1  29
HETATM   29  C   UNL     1      44.247 -16.978   6.096  1.00  0.00     0.236 C 
BRANCH  29  30
HETATM   30  C   UNL     1      43.869 -16.011   7.221  1.00  0.00     0.039 C 
BRANCH  30  31
HETATM   31  C   UNL     1      43.727 -14.538   6.788  1.00  0.00     0.040 C 
HETATM   32  C   UNL     1      43.744 -14.366   5.266  1.00  0.00     0.017 C 
BRANCH  31  33
HETATM   33  C   UNL     1      44.732 -13.657   7.441  1.00  0.00     0.057 A 
HETATM   34  O   UNL     1      44.443 -13.210   8.695  1.00  0.00    -0.319 OA
HETATM   35  C   UNL     1      45.504 -12.457   9.104  1.00  0.00     0.049 A 
HETATM   36  C   UNL     1      45.436 -11.877  10.462  1.00  0.00     0.076 C 
HETATM   37  C   UNL     1      46.462 -12.413   8.116  1.00  0.00     0.035 A 
HETATM   38  C   UNL     1      45.965 -13.186   7.041  1.00  0.00     0.035 A 
ENDBRANCH  31  33
ENDBRANCH  30  31
ENDBRANCH  29  30
ENDBRANCH   1  29
TORSDOF 8
ENDMDL
MODEL 9
REMARK VINA RESULT:      -8.6      1.979      3.228
REMARK  8 active torsions:
REMARK  status: ('A' for Active; 'I' for Inactive)
REMARK    1  A    between atoms: C_4  and  C_5 
REMARK    2  A    between atoms: C_5  and  C_6 
REMARK    3  A    between atoms: C_6  and  C_7 
REMARK    4  A    between atoms: C_7  and  N_8 
REMARK    5  A    between atoms: C_17  and  C_18 
REMARK    6  A    between atoms: C_18  and  N_19 
REMARK    7  A    between atoms: C_23  and  O_24 
REMARK    8  A    between atoms: C_23  and  C_25 
ROOT
HETATM    1  N   UNL     1      43.251 -15.572   4.190  1.00  0.00    -0.065 N 
HETATM    2  H   UNL     1      44.066 -16.178   4.346  1.00  0.00     0.280 HD
HETATM    3  C   UNL     1      43.544 -14.807   2.914  1.00  0.00     0.276 C 
HETATM    4  C   UNL     1      42.381 -14.013   2.383  1.00  0.00     0.001 A 
HETATM    5  C   UNL     1      41.897 -12.928   3.115  1.00  0.00     0.076 A 
HETATM    6  O   UNL     1      42.468 -12.585   4.308  1.00  0.00    -0.349 OA
HETATM    7  C   UNL     1      42.163 -13.549   5.328  1.00  0.00     0.203 C 
HETATM    8  C   UNL     1      43.234 -14.644   5.408  1.00  0.00     0.261 C 
HETATM    9  C   UNL     1      41.747 -14.342   1.171  1.00  0.00     0.020 A 
HETATM   10  C   UNL     1      40.646 -13.596   0.701  1.00  0.00    -0.032 A 
HETATM   11  C   UNL     1      40.217 -12.484   1.440  1.00  0.00     0.011 A 
HETATM   12  C   UNL     1      40.851 -12.146   2.637  1.00  0.00     0.038 A 
ENDROOT
BRANCH  10  13
HETATM   13  C   UNL     1      39.915 -14.010  -0.555  1.00  0.00     0.273 C 
BRANCH  13  14
HETATM   14  N   UNL     1      40.574 -13.611  -1.862  1.00  0.00    -0.067 N 
HETATM   15  H   UNL     1      40.411 -14.384  -2.525  1.00  0.00     0.280 HD
HETATM   16  C   UNL     1      39.966 -12.370  -2.471  1.00  0.00     0.238 C 
HETATM   17  C   UNL     1      40.695 -12.007  -3.751  1.00  0.00     0.071 C 
HETATM   18  C   UNL     1      42.192 -11.736  -3.502  1.00  0.00     0.089 C 
HETATM   19  C   UNL     1      42.772 -13.043  -2.928  1.00  0.00     0.071 C 
HETATM   20  C   UNL     1      42.071 -13.501  -1.659  1.00  0.00     0.238 C 
BRANCH  18  21
HETATM   21  O   UNL     1      42.791 -11.561  -4.785  1.00  0.00    -0.385 OA
HETATM   22  H   UNL     1      43.107 -12.417  -5.131  1.00  0.00     0.211 HD
ENDBRANCH  18  21
BRANCH  18  23
HETATM   23  C   UNL     1      42.434 -10.474  -2.682  1.00  0.00    -0.006 A 
HETATM   24  C   UNL     1      41.747  -9.279  -2.893  1.00  0.00     0.126 A 
HETATM   25  N   UNL     1      41.998  -8.123  -2.242  1.00  0.00    -0.272 NA
HETATM   26  C   UNL     1      42.914  -8.151  -1.256  1.00  0.00     0.116 A 
HETATM   27  C   UNL     1      43.609  -9.292  -0.907  1.00  0.00     0.020 A 
HETATM   28  C   UNL     1      43.361 -10.461  -1.626  1.00  0.00     0.013 A 
ENDBRANCH  18  23
ENDBRANCH  13  14
ENDBRANCH  10  13
BRANCH   1  29
HETATM   29  C   UNL     1      42.045 -16.502   4.144  1.00  0.00     0.236 C 
BRANCH  29  30
HETATM   30  C   UNL     1      42.482 -17.969   4.084  1.00  0.00     0.039 C 
BRANCH  30  31
HETATM   31  C   UNL     1      43.286 -18.355   2.826  1.00  0.00     0.040 C 
HETATM   32  C   UNL     1      42.528 -18.061   1.528  1.00  0.00     0.017 C 
BRANCH  31  33
HETATM   33  C   UNL     1      43.758 -19.765   2.866  1.00  0.00     0.057 A 
HETATM   34  O   UNL     1      44.265 -20.215   4.049  1.00  0.00    -0.319 OA
HETATM   35  C   UNL     1      44.600 -21.524   3.865  1.00  0.00     0.049 A 
HETATM   36  C   UNL     1      45.153 -22.248   5.029  1.00  0.00     0.076 C 
HETATM   37  C   UNL     1      44.320 -21.908   2.572  1.00  0.00     0.035 A 
HETATM   38  C   UNL     1      43.778 -20.773   1.926  1.00  0.00     0.035 A 
ENDBRANCH  31  33
ENDBRANCH  30  31
ENDBRANCH  29  30
ENDBRANCH   1  29
TORSDOF 8
ENDMDL
MODEL 10
REMARK VINA RESULT:      -8.5      5.108      9.212
REMARK  8 active torsions:
REMARK  status: ('A' for Active; 'I' for Inactive)
REMARK    1  A    between atoms: C_4  and  C_5 
REMARK    2  A    between atoms: C_5  and  C_6 
REMARK    3  A    between atoms: C_6  and  C_7 
REMARK    4  A    between atoms: C_7  and  N_8 
REMARK    5  A    between atoms: C_17  and  C_18 
REMARK    6  A    between atoms: C_18  and  N_19 
REMARK    7  A    between atoms: C_23  and  O_24 
REMARK    8  A    between atoms: C_23  and  C_25 
ROOT
HETATM    1  N   UNL     1      41.588  -9.534   8.336  1.00  0.00    -0.065 N 
HETATM    2  H   UNL     1      42.219  -8.735   8.480  1.00  0.00     0.280 HD
HETATM    3  C   UNL     1      41.759  -9.937   6.885  1.00  0.00     0.276 C 
HETATM    4  C   UNL     1      41.082 -11.229   6.514  1.00  0.00     0.001 A 
HETATM    5  C   UNL     1      39.688 -11.308   6.541  1.00  0.00     0.076 A 
HETATM    6  O   UNL     1      38.939 -10.224   6.904  1.00  0.00    -0.349 OA
HETATM    7  C   UNL     1      39.060  -9.954   8.309  1.00  0.00     0.203 C 
HETATM    8  C   UNL     1      40.192  -8.960   8.597  1.00  0.00     0.261 C 
HETATM    9  C   UNL     1      41.812 -12.377   6.155  1.00  0.00     0.020 A 
HETATM   10  C   UNL     1      41.158 -13.583   5.830  1.00  0.00    -0.032 A 
HETATM   11  C   UNL     1      39.755 -13.611   5.823  1.00  0.00     0.011 A 
HETATM   12  C   UNL     1      39.025 -12.471   6.166  1.00  0.00     0.038 A 
ENDROOT
BRANCH  10  13
HETATM   13  C   UNL     1      41.951 -14.834   5.534  1.00  0.00     0.273 C 
BRANCH  13  14
HETATM   14  N   UNL     1      42.122 -15.173   4.065  1.00  0.00    -0.067 N 
HETATM   15  H   UNL     1      41.807 -14.350   3.531  1.00  0.00     0.280 HD
HETATM   16  C   UNL     1      43.561 -15.425   3.684  1.00  0.00     0.238 C 
HETATM   17  C   UNL     1      43.655 -15.796   2.216  1.00  0.00     0.071 C 
HETATM   18  C   UNL     1      42.844 -17.066   1.893  1.00  0.00     0.089 C 
HETATM   19  C   UNL     1      41.381 -16.742   2.252  1.00  0.00     0.071 C 
HETATM   20  C   UNL     1      41.203 -16.322   3.703  1.00  0.00     0.238 C 
BRANCH  18  21
HETATM   21  O   UNL     1      42.883 -17.222   0.475  1.00  0.00    -0.385 OA
HETATM   22  H   UNL     1      42.321 -17.972   0.201  1.00  0.00     0.211 HD
ENDBRANCH  18  21
BRANCH  18  23
HETATM   23  C   UNL     1      43.433 -18.320   2.530  1.00  0.00    -0.006 A 
HETATM   24  C   UNL     1      43.842 -18.384   3.861  1.00  0.00     0.126 A 
HETATM   25  N   UNL     1      44.444 -19.450   4.430  1.00  0.00    -0.272 NA
HETATM   26  C   UNL     1      44.576 -20.562   3.682  1.00  0.00     0.116 A 
HETATM   27  C   UNL     1      44.145 -20.642   2.373  1.00  0.00     0.020 A 
HETATM   28  C   UNL     1      43.566 -19.512   1.798  1.00  0.00     0.013 A 
ENDBRANCH  18  23
ENDBRANCH  13  14
ENDBRANCH  10  13
BRANCH   1  29
HETATM   29  C   UNL     1      41.997 -10.577   9.368  1.00  0.00     0.236 C 
BRANCH  29  30
HETATM   30  C   UNL     1      43.479 -10.940   9.229  1.00  0.00     0.039 C 
BRANCH  30  31
HETATM   31  C   UNL     1      44.370 -10.481  10.400  1.00  0.00     0.040 C 
HETATM   32  C   UNL     1      45.659 -11.300  10.518  1.00  0.00     0.017 C 
BRANCH  31  33
HETATM   33  C   UNL     1      43.634 -10.447  11.692  1.00  0.00     0.057 A 
HETATM   34  O   UNL     1      43.489  -9.231  12.291  1.00  0.00    -0.319 OA
HETATM   35  C   UNL     1      42.764  -9.433  13.429  1.00  0.00     0.049 A 
HETATM   36  C   UNL     1      42.451  -8.242  14.247  1.00  0.00     0.076 C 
HETATM   37  C   UNL     1      42.456 -10.768  13.564  1.00  0.00     0.035 A 
HETATM   38  C   UNL     1      43.017 -11.424  12.444  1.00  0.00     0.035 A 
ENDBRANCH  31  33
ENDBRANCH  30  31
ENDBRANCH  29  30
ENDBRANCH   1  29
TORSDOF 8
ENDMDL
