MODEL 1
REMARK VINA RESULT:      -8.0      0.000      0.000
REMARK  9 active torsions:
REMARK  status: ('A' for Active; 'I' for Inactive)
REMARK    1  A    between atoms: C_2  and  C_3 
REMARK       I    between atoms: C_3  and  N_4 
REMARK    2  A    between atoms: N_4  and  N_5 
REMARK    3  A    between atoms: N_5  and  C_6 
REMARK    4  A    between atoms: C_6  and  N_7 
REMARK    5  A    between atoms: N_7  and  C_8 
REMARK    6  A    between atoms: C_18  and  N_19 
REMARK    7  A    between atoms: N_19  and  C_20 
REMARK    8  A    between atoms: C_20  and  N_21 
REMARK    9  A    between atoms: N_21  and  C_22 
ROOT
HETATM    1  C   UNL     1      40.872 -16.223   2.590  1.00  0.00     0.019 A 
HETATM    2  C   UNL     1      41.350 -15.290   3.516  1.00  0.00     0.033 A 
HETATM    3  C   UNL     1      40.663 -14.080   3.674  1.00  0.00     0.019 A 
HETATM    4  C   UNL     1      39.529 -13.792   2.902  1.00  0.00     0.030 A 
HETATM    5  C   UNL     1      39.071 -14.707   1.955  1.00  0.00     0.033 A 
HETATM    6  C   UNL     1      39.743 -15.928   1.819  1.00  0.00     0.030 A 
ENDROOT
BRANCH   2   7
HETATM    7  C   UNL     1      42.543 -15.552   4.371  1.00  0.00     0.270 C 
HETATM    8  N   UNL     1      42.777 -16.867   4.721  1.00  0.00    -0.264 N 
HETATM    9  H   UNL     1      42.188 -17.649   4.457  1.00  0.00     0.190 HD
HETATM   10  O   UNL     1      43.278 -14.634   4.728  1.00  0.00    -0.266 OA
BRANCH   8  11
HETATM   11  N   UNL     1      43.791 -17.145   5.649  1.00  0.00    -0.274 N 
HETATM   12  H   UNL     1      44.008 -16.357   6.250  1.00  0.00     0.189 HD
BRANCH  11  13
HETATM   13  C   UNL     1      43.909 -18.392   6.183  1.00  0.00     0.186 C 
HETATM   14  S   UNL     1      44.061 -18.723   7.820  1.00  0.00    -0.040 SA
BRANCH  13  15
HETATM   15  N   UNL     1      43.837 -19.449   5.337  1.00  0.00    -0.361 N 
HETATM   16  H   UNL     1      42.923 -19.888   5.371  1.00  0.00     0.162 HD
BRANCH  15  17
HETATM   17  C   UNL     1      44.694 -19.908   4.235  1.00  0.00     0.083 C 
HETATM   18  C   UNL     1      45.187 -21.352   4.401  1.00  0.00     0.025 C 
HETATM   19  C   UNL     1      44.461 -22.389   3.552  1.00  0.00     0.002 C 
HETATM   20  C   UNL     1      44.361 -21.947   2.101  1.00  0.00     0.000 C 
HETATM   21  C   UNL     1      43.610 -20.631   1.973  1.00  0.00     0.002 C 
HETATM   22  C   UNL     1      44.206 -19.518   2.831  1.00  0.00     0.025 C 
ENDBRANCH  15  17
ENDBRANCH  13  15
ENDBRANCH  11  13
ENDBRANCH   8  11
ENDBRANCH   2   7
BRANCH   5  23
HETATM   23  N   UNL     1      37.920 -14.539   1.164  1.00  0.00    -0.338 N 
HETATM   24  H   UNL     1      37.207 -15.240   1.298  1.00  0.00     0.168 HD
BRANCH  23  25
HETATM   25  C   UNL     1      37.638 -13.742   0.091  1.00  0.00     0.151 C 
HETATM   26  S   UNL     1      36.974 -12.213   0.071  1.00  0.00    -0.047 SA
BRANCH  25  27
HETATM   27  N   UNL     1      38.084 -14.245  -1.111  1.00  0.00    -0.265 NA
HETATM   28  H   UNL     1      38.311 -15.225  -0.964  1.00  0.00     0.130 HD
BRANCH  27  29
HETATM   29  C   UNL     1      39.077 -13.599  -1.997  1.00  0.00     0.062 C 
HETATM   30  C   UNL     1      40.480 -13.765  -1.383  1.00  0.00     0.020 C 
HETATM   31  C   UNL     1      41.000 -15.200  -1.507  1.00  0.00     0.002 C 
HETATM   32  C   UNL     1      40.986 -15.686  -2.952  1.00  0.00     0.000 C 
HETATM   33  C   UNL     1      39.613 -15.512  -3.594  1.00  0.00     0.002 C 
HETATM   34  C   UNL     1      39.119 -14.073  -3.459  1.00  0.00     0.020 C 
ENDBRANCH  27  29
ENDBRANCH  25  27
ENDBRANCH  23  25
ENDBRANCH   5  23
TORSDOF 9
ENDMDL
MODEL 2
REMARK VINA RESULT:      -8.0      1.956      8.553
REMARK  9 active torsions:
REMARK  status: ('A' for Active; 'I' for Inactive)
REMARK    1  A    between atoms: C_2  and  C_3 
REMARK       I    between atoms: C_3  and  N_4 
REMARK    2  A    between atoms: N_4  and  N_5 
REMARK    3  A    between atoms: N_5  and  C_6 
REMARK    4  A    between atoms: C_6  and  N_7 
REMARK    5  A    between atoms: N_7  and  C_8 
REMARK    6  A    between atoms: C_18  and  N_19 
REMARK    7  A    between atoms: N_19  and  C_20 
REMARK    8  A    between atoms: C_20  and  N_21 
REMARK    9  A    between atoms: N_21  and  C_22 
ROOT
HETATM    1  C   UNL     1      40.755 -16.681   1.912  1.00  0.00     0.019 A 
HETATM    2  C   UNL     1      41.614 -15.715   1.381  1.00  0.00     0.033 A 
HETATM    3  C   UNL     1      42.686 -15.260   2.159  1.00  0.00     0.019 A 
HETATM    4  C   UNL     1      42.883 -15.743   3.461  1.00  0.00     0.030 A 
HETATM    5  C   UNL     1      42.007 -16.681   4.004  1.00  0.00     0.033 A 
HETATM    6  C   UNL     1      40.953 -17.156   3.213  1.00  0.00     0.030 A 
ENDROOT
BRANCH   2   7
HETATM    7  C   UNL     1      41.458 -15.178  -0.002  1.00  0.00     0.270 C 
HETATM    8  N   UNL     1      40.608 -15.871  -0.841  1.00  0.00    -0.264 N 
HETATM    9  H   UNL     1      40.111 -16.718  -0.591  1.00  0.00     0.190 HD
HETATM   10  O   UNL     1      42.051 -14.163  -0.356  1.00  0.00    -0.266 OA
BRANCH   8  11
HETATM   11  N   UNL     1      40.548 -15.498  -2.192  1.00  0.00    -0.274 N 
HETATM   12  H   UNL     1      40.893 -16.216  -2.819  1.00  0.00     0.189 HD
BRANCH  11  13
HETATM   13  C   UNL     1      39.534 -14.707  -2.641  1.00  0.00     0.186 C 
HETATM   14  S   UNL     1      38.315 -15.208  -3.679  1.00  0.00    -0.040 SA
BRANCH  13  15
HETATM   15  N   UNL     1      39.467 -13.439  -2.166  1.00  0.00    -0.361 N 
HETATM   16  H   UNL     1      39.961 -12.792  -2.772  1.00  0.00     0.162 HD
BRANCH  15  17
HETATM   17  C   UNL     1      38.639 -12.799  -1.135  1.00  0.00     0.083 C 
HETATM   18  C   UNL     1      37.691 -13.771  -0.418  1.00  0.00     0.025 C 
HETATM   19  C   UNL     1      38.135 -14.205   0.973  1.00  0.00     0.002 C 
HETATM   20  C   UNL     1      38.537 -13.014   1.826  1.00  0.00     0.000 C 
HETATM   21  C   UNL     1      39.682 -12.239   1.191  1.00  0.00     0.002 C 
HETATM   22  C   UNL     1      39.383 -11.797  -0.239  1.00  0.00     0.025 C 
ENDBRANCH  15  17
ENDBRANCH  13  15
ENDBRANCH  11  13
ENDBRANCH   8  11
ENDBRANCH   2   7
BRANCH   5  23
HETATM   23  N   UNL     1      42.139 -17.265   5.278  1.00  0.00    -0.338 N 
HETATM   24  H   UNL     1      41.591 -16.829   6.004  1.00  0.00     0.168 HD
BRANCH  23  25
HETATM   25  C   UNL     1      43.016 -18.175   5.794  1.00  0.00     0.151 C 
HETATM   26  S   UNL     1      43.640 -18.266   7.338  1.00  0.00    -0.047 SA
BRANCH  25  27
HETATM   27  N   UNL     1      43.314 -19.213   4.938  1.00  0.00    -0.265 NA
HETATM   28  H   UNL     1      43.244 -20.075   5.471  1.00  0.00     0.130 HD
BRANCH  27  29
HETATM   29  C   UNL     1      44.466 -19.256   4.011  1.00  0.00     0.062 C 
HETATM   30  C   UNL     1      45.247 -20.563   4.241  1.00  0.00     0.020 C 
HETATM   31  C   UNL     1      44.503 -21.786   3.698  1.00  0.00     0.002 C 
HETATM   32  C   UNL     1      44.148 -21.626   2.223  1.00  0.00     0.000 C 
HETATM   33  C   UNL     1      43.392 -20.326   1.962  1.00  0.00     0.002 C 
HETATM   34  C   UNL     1      44.157 -19.124   2.510  1.00  0.00     0.020 C 
ENDBRANCH  27  29
ENDBRANCH  25  27
ENDBRANCH  23  25
ENDBRANCH   5  23
TORSDOF 9
ENDMDL
MODEL 3
REMARK VINA RESULT:      -8.0      5.241      8.816
REMARK  9 active torsions:
REMARK  status: ('A' for Active; 'I' for Inactive)
REMARK    1  A    between atoms: C_2  and  C_3 
REMARK       I    between atoms: C_3  and  N_4 
REMARK    2  A    between atoms: N_4  and  N_5 
REMARK    3  A    between atoms: N_5  and  C_6 
REMARK    4  A    between atoms: C_6  and  N_7 
REMARK    5  A    between atoms: N_7  and  C_8 
REMARK    6  A    between atoms: C_18  and  N_19 
REMARK    7  A    between atoms: N_19  and  C_20 
REMARK    8  A    between atoms: C_20  and  N_21 
REMARK    9  A    between atoms: N_21  and  C_22 
ROOT
HETATM    1  C   UNL     1      42.057 -13.230   5.435  1.00  0.00     0.019 A 
HETATM    2  C   UNL     1      40.669 -13.333   5.307  1.00  0.00     0.033 A 
HETATM    3  C   UNL     1      40.141 -14.167   4.314  1.00  0.00     0.019 A 
HETATM    4  C   UNL     1      40.985 -14.870   3.443  1.00  0.00     0.030 A 
HETATM    5  C   UNL     1      42.369 -14.742   3.548  1.00  0.00     0.033 A 
HETATM    6  C   UNL     1      42.895 -13.929   4.560  1.00  0.00     0.030 A 
ENDROOT
BRANCH   2   7
HETATM    7  C   UNL     1      39.727 -12.617   6.215  1.00  0.00     0.270 C 
HETATM    8  N   UNL     1      40.228 -12.225   7.441  1.00  0.00    -0.264 N 
HETATM    9  H   UNL     1      41.170 -12.408   7.766  1.00  0.00     0.190 HD
HETATM   10  O   UNL     1      38.571 -12.386   5.870  1.00  0.00    -0.266 OA
BRANCH   8  11
HETATM   11  N   UNL     1      39.342 -11.691   8.387  1.00  0.00    -0.274 N 
HETATM   12  H   UNL     1      38.584 -12.322   8.625  1.00  0.00     0.189 HD
BRANCH  11  13
HETATM   13  C   UNL     1      39.803 -10.867   9.370  1.00  0.00     0.186 C 
HETATM   14  S   UNL     1      38.926  -9.616  10.061  1.00  0.00    -0.040 SA
BRANCH  13  15
HETATM   15  N   UNL     1      41.039 -11.114   9.870  1.00  0.00    -0.361 N 
HETATM   16  H   UNL     1      41.090 -12.037  10.289  1.00  0.00     0.162 HD
BRANCH  15  17
HETATM   17  C   UNL     1      42.337 -10.446   9.703  1.00  0.00     0.083 C 
HETATM   18  C   UNL     1      42.860  -9.791  10.989  1.00  0.00     0.025 C 
HETATM   19  C   UNL     1      43.958 -10.562  11.711  1.00  0.00     0.002 C 
HETATM   20  C   UNL     1      45.061 -10.985  10.755  1.00  0.00     0.000 C 
HETATM   21  C   UNL     1      44.522 -11.872   9.644  1.00  0.00     0.002 C 
HETATM   22  C   UNL     1      43.367 -11.233   8.878  1.00  0.00     0.025 C 
ENDBRANCH  15  17
ENDBRANCH  13  15
ENDBRANCH  11  13
ENDBRANCH   8  11
ENDBRANCH   2   7
BRANCH   5  23
HETATM   23  N   UNL     1      43.305 -15.437   2.759  1.00  0.00    -0.338 N 
HETATM   24  H   UNL     1      43.780 -14.873   2.069  1.00  0.00     0.168 HD
BRANCH  23  25
HETATM   25  C   UNL     1      43.564 -16.765   2.581  1.00  0.00     0.151 C 
HETATM   26  S   UNL     1      43.656 -17.631   1.160  1.00  0.00    -0.047 SA
BRANCH  25  27
HETATM   27  N   UNL     1      43.910 -17.427   3.739  1.00  0.00    -0.265 NA
HETATM   28  H   UNL     1      44.880 -17.716   3.645  1.00  0.00     0.130 HD
BRANCH  27  29
HETATM   29  C   UNL     1      43.106 -18.479   4.399  1.00  0.00     0.062 C 
HETATM   30  C   UNL     1      43.990 -19.220   5.419  1.00  0.00     0.020 C 
HETATM   31  C   UNL     1      44.276 -18.373   6.662  1.00  0.00     0.002 C 
HETATM   32  C   UNL     1      42.992 -17.882   7.322  1.00  0.00     0.000 C 
HETATM   33  C   UNL     1      42.085 -17.162   6.328  1.00  0.00     0.002 C 
HETATM   34  C   UNL     1      41.814 -18.030   5.101  1.00  0.00     0.020 C 
ENDBRANCH  27  29
ENDBRANCH  25  27
ENDBRANCH  23  25
ENDBRANCH   5  23
TORSDOF 9
ENDMDL
MODEL 4
REMARK VINA RESULT:      -7.9      6.149      9.173
REMARK  9 active torsions:
REMARK  status: ('A' for Active; 'I' for Inactive)
REMARK    1  A    between atoms: C_2  and  C_3 
REMARK       I    between atoms: C_3  and  N_4 
REMARK    2  A    between atoms: N_4  and  N_5 
REMARK    3  A    between atoms: N_5  and  C_6 
REMARK    4  A    between atoms: C_6  and  N_7 
REMARK    5  A    between atoms: N_7  and  C_8 
REMARK    6  A    between atoms: C_18  and  N_19 
REMARK    7  A    between atoms: N_19  and  C_20 
REMARK    8  A    between atoms: C_20  and  N_21 
REMARK    9  A    between atoms: N_21  and  C_22 
ROOT
HETATM    1  C   UNL     1      40.051 -13.196   5.991  1.00  0.00     0.019 A 
HETATM    2  C   UNL     1      41.312 -12.595   5.946  1.00  0.00     0.033 A 
HETATM    3  C   UNL     1      42.339 -13.226   5.232  1.00  0.00     0.019 A 
HETATM    4  C   UNL     1      42.118 -14.454   4.592  1.00  0.00     0.030 A 
HETATM    5  C   UNL     1      40.870 -15.071   4.664  1.00  0.00     0.033 A 
HETATM    6  C   UNL     1      39.837 -14.423   5.354  1.00  0.00     0.030 A 
ENDROOT
BRANCH   2   7
HETATM    7  C   UNL     1      41.598 -11.284   6.598  1.00  0.00     0.270 C 
HETATM    8  N   UNL     1      42.052 -11.328   7.902  1.00  0.00    -0.264 N 
HETATM    9  H   UNL     1      42.181 -12.177   8.441  1.00  0.00     0.190 HD
HETATM   10  O   UNL     1      41.442 -10.229   5.989  1.00  0.00    -0.266 OA
BRANCH   8  11
HETATM   11  N   UNL     1      42.184 -10.124   8.607  1.00  0.00    -0.274 N 
HETATM   12  H   UNL     1      42.203  -9.308   8.003  1.00  0.00     0.189 HD
BRANCH  11  13
HETATM   13  C   UNL     1      41.611  -9.981   9.834  1.00  0.00     0.186 C 
HETATM   14  S   UNL     1      40.930  -8.563  10.416  1.00  0.00    -0.040 SA
BRANCH  13  15
HETATM   15  N   UNL     1      41.528 -11.082  10.622  1.00  0.00    -0.361 N 
HETATM   16  H   UNL     1      41.189 -11.884  10.101  1.00  0.00     0.162 HD
BRANCH  15  17
HETATM   17  C   UNL     1      42.055 -11.398  11.957  1.00  0.00     0.083 C 
HETATM   18  C   UNL     1      43.464 -10.844  12.208  1.00  0.00     0.025 C 
HETATM   19  C   UNL     1      43.525  -9.590  13.072  1.00  0.00     0.002 C 
HETATM   20  C   UNL     1      42.703  -9.747  14.340  1.00  0.00     0.000 C 
HETATM   21  C   UNL     1      41.241 -10.024  14.022  1.00  0.00     0.002 C 
HETATM   22  C   UNL     1      41.048 -11.228  13.105  1.00  0.00     0.025 C 
ENDBRANCH  15  17
ENDBRANCH  13  15
ENDBRANCH  11  13
ENDBRANCH   8  11
ENDBRANCH   2   7
BRANCH   5  23
HETATM   23  N   UNL     1      40.528 -16.275   4.021  1.00  0.00    -0.338 N 
HETATM   24  H   UNL     1      39.790 -16.800   4.466  1.00  0.00     0.168 HD
BRANCH  23  25
HETATM   25  C   UNL     1      41.124 -16.999   3.029  1.00  0.00     0.151 C 
HETATM   26  S   UNL     1      40.987 -16.820   1.377  1.00  0.00    -0.047 SA
BRANCH  25  27
HETATM   27  N   UNL     1      42.049 -17.914   3.484  1.00  0.00    -0.265 NA
HETATM   28  H   UNL     1      41.815 -18.126   4.449  1.00  0.00     0.130 HD
BRANCH  27  29
HETATM   29  C   UNL     1      43.513 -17.816   3.302  1.00  0.00     0.062 C 
HETATM   30  C   UNL     1      44.209 -18.172   4.630  1.00  0.00     0.020 C 
HETATM   31  C   UNL     1      44.142 -19.671   4.935  1.00  0.00     0.002 C 
HETATM   32  C   UNL     1      44.706 -20.509   3.792  1.00  0.00     0.000 C 
HETATM   33  C   UNL     1      44.050 -20.160   2.459  1.00  0.00     0.002 C 
HETATM   34  C   UNL     1      44.134 -18.662   2.178  1.00  0.00     0.020 C 
ENDBRANCH  27  29
ENDBRANCH  25  27
ENDBRANCH  23  25
ENDBRANCH   5  23
TORSDOF 9
ENDMDL
MODEL 5
REMARK VINA RESULT:      -7.9      5.340      7.951
REMARK  9 active torsions:
REMARK  status: ('A' for Active; 'I' for Inactive)
REMARK    1  A    between atoms: C_2  and  C_3 
REMARK       I    between atoms: C_3  and  N_4 
REMARK    2  A    between atoms: N_4  and  N_5 
REMARK    3  A    between atoms: N_5  and  C_6 
REMARK    4  A    between atoms: C_6  and  N_7 
REMARK    5  A    between atoms: N_7  and  C_8 
REMARK    6  A    between atoms: C_18  and  N_19 
REMARK    7  A    between atoms: N_19  and  C_20 
REMARK    8  A    between atoms: C_20  and  N_21 
REMARK    9  A    between atoms: N_21  and  C_22 
ROOT
HETATM    1  C   UNL     1      39.962 -13.748   6.273  1.00  0.00     0.019 A 
HETATM    2  C   UNL     1      39.549 -12.427   6.078  1.00  0.00     0.033 A 
HETATM    3  C   UNL     1      39.230 -12.001   4.783  1.00  0.00     0.019 A 
HETATM    4  C   UNL     1      39.348 -12.873   3.691  1.00  0.00     0.030 A 
HETATM    5  C   UNL     1      39.792 -14.181   3.879  1.00  0.00     0.033 A 
HETATM    6  C   UNL     1      40.082 -14.613   5.180  1.00  0.00     0.030 A 
ENDROOT
BRANCH   2   7
HETATM    7  C   UNL     1      39.395 -11.462   7.205  1.00  0.00     0.270 C 
HETATM    8  N   UNL     1      39.508 -11.979   8.481  1.00  0.00    -0.264 N 
HETATM    9  H   UNL     1      39.663 -12.957   8.697  1.00  0.00     0.190 HD
HETATM   10  O   UNL     1      39.192 -10.270   6.993  1.00  0.00    -0.266 OA
BRANCH   8  11
HETATM   11  N   UNL     1      39.217 -11.146   9.570  1.00  0.00    -0.274 N 
HETATM   12  H   UNL     1      38.241 -11.174   9.845  1.00  0.00     0.189 HD
BRANCH  11  13
HETATM   13  C   UNL     1      40.140 -10.957  10.555  1.00  0.00     0.186 C 
HETATM   14  S   UNL     1      39.802 -10.351  12.082  1.00  0.00    -0.040 SA
BRANCH  13  15
HETATM   15  N   UNL     1      41.415 -11.344  10.305  1.00  0.00    -0.361 N 
HETATM   16  H   UNL     1      41.500 -12.355  10.302  1.00  0.00     0.162 HD
BRANCH  15  17
HETATM   17  C   UNL     1      42.596 -10.629   9.800  1.00  0.00     0.083 C 
HETATM   18  C   UNL     1      43.496 -10.069  10.910  1.00  0.00     0.025 C 
HETATM   19  C   UNL     1      44.764 -10.868  11.184  1.00  0.00     0.002 C 
HETATM   20  C   UNL     1      45.513 -11.180   9.899  1.00  0.00     0.000 C 
HETATM   21  C   UNL     1      44.653 -11.986   8.939  1.00  0.00     0.002 C 
HETATM   22  C   UNL     1      43.316 -11.318   8.630  1.00  0.00     0.025 C 
ENDBRANCH  15  17
ENDBRANCH  13  15
ENDBRANCH  11  13
ENDBRANCH   8  11
ENDBRANCH   2   7
BRANCH   5  23
HETATM   23  N   UNL     1      39.899 -15.150   2.864  1.00  0.00    -0.338 N 
HETATM   24  H   UNL     1      39.221 -15.895   2.916  1.00  0.00     0.168 HD
BRANCH  23  25
HETATM   25  C   UNL     1      40.861 -15.416   1.933  1.00  0.00     0.151 C 
HETATM   26  S   UNL     1      41.296 -14.522   0.595  1.00  0.00    -0.047 SA
BRANCH  25  27
HETATM   27  N   UNL     1      41.640 -16.512   2.232  1.00  0.00    -0.265 NA
HETATM   28  H   UNL     1      41.149 -17.048   2.941  1.00  0.00     0.130 HD
BRANCH  27  29
HETATM   29  C   UNL     1      43.094 -16.483   2.502  1.00  0.00     0.062 C 
HETATM   30  C   UNL     1      43.343 -16.927   3.957  1.00  0.00     0.020 C 
HETATM   31  C   UNL     1      43.130 -18.431   4.148  1.00  0.00     0.002 C 
HETATM   32  C   UNL     1      43.980 -19.252   3.184  1.00  0.00     0.000 C 
HETATM   33  C   UNL     1      43.771 -18.818   1.736  1.00  0.00     0.002 C 
HETATM   34  C   UNL     1      43.992 -17.316   1.573  1.00  0.00     0.020 C 
ENDBRANCH  27  29
ENDBRANCH  25  27
ENDBRANCH  23  25
ENDBRANCH   5  23
TORSDOF 9
ENDMDL
MODEL 6
REMARK VINA RESULT:      -7.8      6.142      8.722
REMARK  9 active torsions:
REMARK  status: ('A' for Active; 'I' for Inactive)
REMARK    1  A    between atoms: C_2  and  C_3 
REMARK       I    between atoms: C_3  and  N_4 
REMARK    2  A    between atoms: N_4  and  N_5 
REMARK    3  A    between atoms: N_5  and  C_6 
REMARK    4  A    between atoms: C_6  and  N_7 
REMARK    5  A    between atoms: N_7  and  C_8 
REMARK    6  A    between atoms: C_18  and  N_19 
REMARK    7  A    between atoms: N_19  and  C_20 
REMARK    8  A    between atoms: C_20  and  N_21 
REMARK    9  A    between atoms: N_21  and  C_22 
ROOT
HETATM    1  C   UNL     1      39.391 -11.998   4.541  1.00  0.00     0.019 A 
HETATM    2  C   UNL     1      39.619 -12.430   5.851  1.00  0.00     0.033 A 
HETATM    3  C   UNL     1      40.057 -13.743   6.064  1.00  0.00     0.019 A 
HETATM    4  C   UNL     1      40.239 -14.623   4.987  1.00  0.00     0.030 A 
HETATM    5  C   UNL     1      39.980 -14.203   3.684  1.00  0.00     0.033 A 
HETATM    6  C   UNL     1      39.570 -12.881   3.471  1.00  0.00     0.030 A 
ENDROOT
BRANCH   2   7
HETATM    7  C   UNL     1      39.452 -11.533   7.030  1.00  0.00     0.270 C 
HETATM    8  N   UNL     1      39.794 -12.058   8.261  1.00  0.00    -0.264 N 
HETATM    9  H   UNL     1      40.124 -13.004   8.414  1.00  0.00     0.190 HD
HETATM   10  O   UNL     1      39.041 -10.383   6.896  1.00  0.00    -0.266 OA
BRANCH   8  11
HETATM   11  N   UNL     1      39.508 -11.311   9.412  1.00  0.00    -0.274 N 
HETATM   12  H   UNL     1      38.803 -11.740  10.001  1.00  0.00     0.189 HD
BRANCH  11  13
HETATM   13  C   UNL     1      40.492 -10.600  10.030  1.00  0.00     0.186 C 
HETATM   14  S   UNL     1      40.434  -8.952  10.339  1.00  0.00    -0.040 SA
BRANCH  13  15
HETATM   15  N   UNL     1      41.573 -11.282  10.483  1.00  0.00    -0.361 N 
HETATM   16  H   UNL     1      42.228 -11.477   9.733  1.00  0.00     0.162 HD
BRANCH  15  17
HETATM   17  C   UNL     1      42.087 -11.558  11.832  1.00  0.00     0.083 C 
HETATM   18  C   UNL     1      43.475 -10.957  12.094  1.00  0.00     0.025 C 
HETATM   19  C   UNL     1      43.484  -9.686  12.935  1.00  0.00     0.002 C 
HETATM   20  C   UNL     1      42.647  -9.846  14.193  1.00  0.00     0.000 C 
HETATM   21  C   UNL     1      41.200 -10.172  13.858  1.00  0.00     0.002 C 
HETATM   22  C   UNL     1      41.057 -11.399  12.960  1.00  0.00     0.025 C 
ENDBRANCH  15  17
ENDBRANCH  13  15
ENDBRANCH  11  13
ENDBRANCH   8  11
ENDBRANCH   2   7
BRANCH   5  23
HETATM   23  N   UNL     1      40.177 -14.986   2.531  1.00  0.00    -0.338 N 
HETATM   24  H   UNL     1      39.587 -15.803   2.467  1.00  0.00     0.168 HD
BRANCH  23  25
HETATM   25  C   UNL     1      41.146 -14.995   1.569  1.00  0.00     0.151 C 
HETATM   26  S   UNL     1      41.626 -13.760   0.558  1.00  0.00    -0.047 SA
BRANCH  25  27
HETATM   27  N   UNL     1      41.888 -16.156   1.535  1.00  0.00    -0.265 NA
HETATM   28  H   UNL     1      41.295 -16.905   1.880  1.00  0.00     0.130 HD
BRANCH  27  29
HETATM   29  C   UNL     1      43.272 -16.303   2.036  1.00  0.00     0.062 C 
HETATM   30  C   UNL     1      43.239 -16.443   3.569  1.00  0.00     0.020 C 
HETATM   31  C   UNL     1      42.715 -17.810   4.015  1.00  0.00     0.002 C 
HETATM   32  C   UNL     1      43.507 -18.954   3.390  1.00  0.00     0.000 C 
HETATM   33  C   UNL     1      43.576 -18.828   1.870  1.00  0.00     0.002 C 
HETATM   34  C   UNL     1      44.104 -17.458   1.453  1.00  0.00     0.020 C 
ENDBRANCH  27  29
ENDBRANCH  25  27
ENDBRANCH  23  25
ENDBRANCH   5  23
TORSDOF 9
ENDMDL
MODEL 7
REMARK VINA RESULT:      -7.7      2.158      3.545
REMARK  9 active torsions:
REMARK  status: ('A' for Active; 'I' for Inactive)
REMARK    1  A    between atoms: C_2  and  C_3 
REMARK       I    between atoms: C_3  and  N_4 
REMARK    2  A    between atoms: N_4  and  N_5 
REMARK    3  A    between atoms: N_5  and  C_6 
REMARK    4  A    between atoms: C_6  and  N_7 
REMARK    5  A    between atoms: N_7  and  C_8 
REMARK    6  A    between atoms: C_18  and  N_19 
REMARK    7  A    between atoms: N_19  and  C_20 
REMARK    8  A    between atoms: C_20  and  N_21 
REMARK    9  A    between atoms: N_21  and  C_22 
ROOT
HETATM    1  C   UNL     1      42.377 -17.106   0.929  1.00  0.00     0.019 A 
HETATM    2  C   UNL     1      42.380 -17.520   2.264  1.00  0.00     0.033 A 
HETATM    3  C   UNL     1      41.341 -17.103   3.105  1.00  0.00     0.019 A 
HETATM    4  C   UNL     1      40.326 -16.261   2.628  1.00  0.00     0.030 A 
HETATM    5  C   UNL     1      40.340 -15.820   1.306  1.00  0.00     0.033 A 
HETATM    6  C   UNL     1      41.364 -16.263   0.459  1.00  0.00     0.030 A 
ENDROOT
BRANCH   2   7
HETATM    7  C   UNL     1      43.428 -18.425   2.818  1.00  0.00     0.270 C 
HETATM    8  N   UNL     1      43.168 -18.990   4.051  1.00  0.00    -0.264 N 
HETATM    9  H   UNL     1      42.336 -18.816   4.603  1.00  0.00     0.190 HD
HETATM   10  O   UNL     1      44.460 -18.655   2.192  1.00  0.00    -0.266 OA
BRANCH   8  11
HETATM   11  N   UNL     1      44.185 -19.719   4.682  1.00  0.00    -0.274 N 
HETATM   12  H   UNL     1      45.061 -19.707   4.171  1.00  0.00     0.189 HD
BRANCH  11  13
HETATM   13  C   UNL     1      44.254 -19.764   6.042  1.00  0.00     0.186 C 
HETATM   14  S   UNL     1      43.817 -21.083   6.982  1.00  0.00    -0.040 SA
BRANCH  13  15
HETATM   15  N   UNL     1      44.772 -18.686   6.682  1.00  0.00    -0.361 N 
HETATM   16  H   UNL     1      45.782 -18.656   6.596  1.00  0.00     0.162 HD
BRANCH  15  17
HETATM   17  C   UNL     1      44.168 -17.464   7.231  1.00  0.00     0.083 C 
HETATM   18  C   UNL     1      44.594 -16.185   6.497  1.00  0.00     0.025 C 
HETATM   19  C   UNL     1      43.562 -15.616   5.531  1.00  0.00     0.002 C 
HETATM   20  C   UNL     1      42.191 -15.513   6.179  1.00  0.00     0.000 C 
HETATM   21  C   UNL     1      41.694 -16.873   6.643  1.00  0.00     0.002 C 
HETATM   22  C   UNL     1      42.675 -17.581   7.575  1.00  0.00     0.025 C 
ENDBRANCH  15  17
ENDBRANCH  13  15
ENDBRANCH  11  13
ENDBRANCH   8  11
ENDBRANCH   2   7
BRANCH   5  23
HETATM   23  N   UNL     1      39.348 -15.016   0.714  1.00  0.00    -0.338 N 
HETATM   24  H   UNL     1      38.409 -15.380   0.784  1.00  0.00     0.168 HD
BRANCH  23  25
HETATM   25  C   UNL     1      39.404 -13.941  -0.125  1.00  0.00     0.151 C 
HETATM   26  S   UNL     1      40.355 -12.576  -0.014  1.00  0.00    -0.047 SA
BRANCH  25  27
HETATM   27  N   UNL     1      38.651 -14.086  -1.270  1.00  0.00    -0.265 NA
HETATM   28  H   UNL     1      38.255 -15.021  -1.256  1.00  0.00     0.130 HD
BRANCH  27  29
HETATM   29  C   UNL     1      39.085 -13.715  -2.635  1.00  0.00     0.062 C 
HETATM   30  C   UNL     1      40.319 -14.554  -3.014  1.00  0.00     0.020 C 
HETATM   31  C   UNL     1      39.961 -16.014  -3.304  1.00  0.00     0.002 C 
HETATM   32  C   UNL     1      38.882 -16.132  -4.377  1.00  0.00     0.000 C 
HETATM   33  C   UNL     1      37.654 -15.291  -4.038  1.00  0.00     0.002 C 
HETATM   34  C   UNL     1      38.040 -13.840  -3.756  1.00  0.00     0.020 C 
ENDBRANCH  27  29
ENDBRANCH  25  27
ENDBRANCH  23  25
ENDBRANCH   5  23
TORSDOF 9
ENDMDL
MODEL 8
REMARK VINA RESULT:      -7.7      2.556      4.578
REMARK  9 active torsions:
REMARK  status: ('A' for Active; 'I' for Inactive)
REMARK    1  A    between atoms: C_2  and  C_3 
REMARK       I    between atoms: C_3  and  N_4 
REMARK    2  A    between atoms: N_4  and  N_5 
REMARK    3  A    between atoms: N_5  and  C_6 
REMARK    4  A    between atoms: C_6  and  N_7 
REMARK    5  A    between atoms: N_7  and  C_8 
REMARK    6  A    between atoms: C_18  and  N_19 
REMARK    7  A    between atoms: N_19  and  C_20 
REMARK    8  A    between atoms: C_20  and  N_21 
REMARK    9  A    between atoms: N_21  and  C_22 
ROOT
HETATM    1  C   UNL     1      41.291 -17.481   2.604  1.00  0.00     0.019 A 
HETATM    2  C   UNL     1      42.360 -17.561   1.707  1.00  0.00     0.033 A 
HETATM    3  C   UNL     1      42.359 -16.734   0.577  1.00  0.00     0.019 A 
HETATM    4  C   UNL     1      41.294 -15.856   0.330  1.00  0.00     0.030 A 
HETATM    5  C   UNL     1      40.211 -15.799   1.206  1.00  0.00     0.033 A 
HETATM    6  C   UNL     1      40.228 -16.607   2.351  1.00  0.00     0.030 A 
ENDROOT
BRANCH   2   7
HETATM    7  C   UNL     1      43.523 -18.467   1.928  1.00  0.00     0.270 C 
HETATM    8  N   UNL     1      43.237 -19.744   2.371  1.00  0.00    -0.264 N 
HETATM    9  H   UNL     1      42.307 -20.091   2.572  1.00  0.00     0.190 HD
HETATM   10  O   UNL     1      44.671 -18.086   1.711  1.00  0.00    -0.266 OA
BRANCH   8  11
HETATM   11  N   UNL     1      44.300 -20.579   2.741  1.00  0.00    -0.274 N 
HETATM   12  H   UNL     1      45.044 -20.608   2.052  1.00  0.00     0.189 HD
BRANCH  11  13
HETATM   13  C   UNL     1      44.655 -20.698   4.051  1.00  0.00     0.186 C 
HETATM   14  S   UNL     1      44.927 -22.151   4.843  1.00  0.00    -0.040 SA
BRANCH  13  15
HETATM   15  N   UNL     1      44.863 -19.556   4.753  1.00  0.00    -0.361 N 
HETATM   16  H   UNL     1      45.411 -18.890   4.220  1.00  0.00     0.162 HD
BRANCH  15  17
HETATM   17  C   UNL     1      44.259 -19.011   5.977  1.00  0.00     0.083 C 
HETATM   18  C   UNL     1      45.156 -18.000   6.706  1.00  0.00     0.025 C 
HETATM   19  C   UNL     1      44.777 -16.537   6.512  1.00  0.00     0.002 C 
HETATM   20  C   UNL     1      43.293 -16.310   6.749  1.00  0.00     0.000 C 
HETATM   21  C   UNL     1      42.447 -17.141   5.797  1.00  0.00     0.002 C 
HETATM   22  C   UNL     1      42.776 -18.631   5.851  1.00  0.00     0.025 C 
ENDBRANCH  15  17
ENDBRANCH  13  15
ENDBRANCH  11  13
ENDBRANCH   8  11
ENDBRANCH   2   7
BRANCH   5  23
HETATM   23  N   UNL     1      39.117 -14.923   1.080  1.00  0.00    -0.338 N 
HETATM   24  H   UNL     1      38.432 -15.197   0.391  1.00  0.00     0.168 HD
BRANCH  23  25
HETATM   25  C   UNL     1      38.880 -13.661   1.544  1.00  0.00     0.151 C 
HETATM   26  S   UNL     1      37.755 -12.549   1.019  1.00  0.00    -0.047 SA
BRANCH  25  27
HETATM   27  N   UNL     1      39.600 -13.337   2.674  1.00  0.00    -0.265 NA
HETATM   28  H   UNL     1      38.935 -13.219   3.433  1.00  0.00     0.130 HD
BRANCH  27  29
HETATM   29  C   UNL     1      40.671 -12.320   2.746  1.00  0.00     0.062 C 
HETATM   30  C   UNL     1      40.867 -11.900   4.215  1.00  0.00     0.020 C 
HETATM   31  C   UNL     1      41.561 -12.987   5.041  1.00  0.00     0.002 C 
HETATM   32  C   UNL     1      42.891 -13.408   4.422  1.00  0.00     0.000 C 
HETATM   33  C   UNL     1      42.731 -13.808   2.958  1.00  0.00     0.002 C 
HETATM   34  C   UNL     1      42.038 -12.706   2.157  1.00  0.00     0.020 C 
ENDBRANCH  27  29
ENDBRANCH  25  27
ENDBRANCH  23  25
ENDBRANCH   5  23
TORSDOF 9
ENDMDL
MODEL 9
REMARK VINA RESULT:      -7.6      5.545      8.686
REMARK  9 active torsions:
REMARK  status: ('A' for Active; 'I' for Inactive)
REMARK    1  A    between atoms: C_2  and  C_3 
REMARK       I    between atoms: C_3  and  N_4 
REMARK    2  A    between atoms: N_4  and  N_5 
REMARK    3  A    between atoms: N_5  and  C_6 
REMARK    4  A    between atoms: C_6  and  N_7 
REMARK    5  A    between atoms: N_7  and  C_8 
REMARK    6  A    between atoms: C_18  and  N_19 
REMARK    7  A    between atoms: N_19  and  C_20 
REMARK    8  A    between atoms: C_20  and  N_21 
REMARK    9  A    between atoms: N_21  and  C_22 
ROOT
HETATM    1  C   UNL     1      39.313 -12.772   5.361  1.00  0.00     0.019 A 
HETATM    2  C   UNL     1      40.163 -12.135   6.270  1.00  0.00     0.033 A 
HETATM    3  C   UNL     1      41.548 -12.273   6.113  1.00  0.00     0.019 A 
HETATM    4  C   UNL     1      42.079 -13.058   5.079  1.00  0.00     0.030 A 
HETATM    5  C   UNL     1      41.232 -13.721   4.192  1.00  0.00     0.033 A 
HETATM    6  C   UNL     1      39.848 -13.557   4.334  1.00  0.00     0.030 A 
ENDROOT
BRANCH   2   7
HETATM    7  C   UNL     1      39.651 -11.279   7.379  1.00  0.00     0.270 C 
HETATM    8  N   UNL     1      39.805 -11.771   8.660  1.00  0.00    -0.264 N 
HETATM    9  H   UNL     1      40.215 -12.669   8.890  1.00  0.00     0.190 HD
HETATM   10  O   UNL     1      39.133 -10.190   7.149  1.00  0.00    -0.266 OA
BRANCH   8  11
HETATM   11  N   UNL     1      39.203 -11.079   9.721  1.00  0.00    -0.274 N 
HETATM   12  H   UNL     1      38.228 -11.325   9.854  1.00  0.00     0.189 HD
BRANCH  11  13
HETATM   13  C   UNL     1      39.926 -10.760  10.830  1.00  0.00     0.186 C 
HETATM   14  S   UNL     1      39.399  -9.749  12.060  1.00  0.00    -0.040 SA
BRANCH  13  15
HETATM   15  N   UNL     1      41.138 -11.350  10.983  1.00  0.00    -0.361 N 
HETATM   16  H   UNL     1      41.065 -12.360  10.928  1.00  0.00     0.162 HD
BRANCH  15  17
HETATM   17  C   UNL     1      42.513 -10.833  10.954  1.00  0.00     0.083 C 
HETATM   18  C   UNL     1      43.447 -11.515  11.964  1.00  0.00     0.025 C 
HETATM   19  C   UNL     1      44.397 -12.549  11.373  1.00  0.00     0.002 C 
HETATM   20  C   UNL     1      45.120 -12.007  10.151  1.00  0.00     0.000 C 
HETATM   21  C   UNL     1      44.139 -11.600   9.063  1.00  0.00     0.002 C 
HETATM   22  C   UNL     1      43.088 -10.606   9.548  1.00  0.00     0.025 C 
ENDBRANCH  15  17
ENDBRANCH  13  15
ENDBRANCH  11  13
ENDBRANCH   8  11
ENDBRANCH   2   7
BRANCH   5  23
HETATM   23  N   UNL     1      41.658 -14.491   3.095  1.00  0.00    -0.338 N 
HETATM   24  H   UNL     1      41.644 -14.010   2.207  1.00  0.00     0.168 HD
BRANCH  23  25
HETATM   25  C   UNL     1      41.893 -15.826   2.934  1.00  0.00     0.151 C 
HETATM   26  S   UNL     1      41.379 -16.838   1.712  1.00  0.00    -0.047 SA
BRANCH  25  27
HETATM   27  N   UNL     1      42.773 -16.354   3.853  1.00  0.00    -0.265 NA
HETATM   28  H   UNL     1      43.503 -16.832   3.334  1.00  0.00     0.130 HD
BRANCH  27  29
HETATM   29  C   UNL     1      42.394 -17.120   5.061  1.00  0.00     0.062 C 
HETATM   30  C   UNL     1      43.050 -18.512   4.998  1.00  0.00     0.020 C 
HETATM   31  C   UNL     1      44.557 -18.455   5.259  1.00  0.00     0.002 C 
HETATM   32  C   UNL     1      44.879 -17.769   6.583  1.00  0.00     0.000 C 
HETATM   33  C   UNL     1      44.223 -16.395   6.682  1.00  0.00     0.002 C 
HETATM   34  C   UNL     1      42.721 -16.482   6.421  1.00  0.00     0.020 C 
ENDBRANCH  27  29
ENDBRANCH  25  27
ENDBRANCH  23  25
ENDBRANCH   5  23
TORSDOF 9
ENDMDL
MODEL 10
REMARK VINA RESULT:      -7.5      2.504      7.772
REMARK  9 active torsions:
REMARK  status: ('A' for Active; 'I' for Inactive)
REMARK    1  A    between atoms: C_2  and  C_3 
REMARK       I    between atoms: C_3  and  N_4 
REMARK    2  A    between atoms: N_4  and  N_5 
REMARK    3  A    between atoms: N_5  and  C_6 
REMARK    4  A    between atoms: C_6  and  N_7 
REMARK    5  A    between atoms: N_7  and  C_8 
REMARK    6  A    between atoms: C_18  and  N_19 
REMARK    7  A    between atoms: N_19  and  C_20 
REMARK    8  A    between atoms: C_20  and  N_21 
REMARK    9  A    between atoms: N_21  and  C_22 
ROOT
HETATM    1  C   UNL     1      41.132 -15.861   5.996  1.00  0.00     0.019 A 
HETATM    2  C   UNL     1      41.933 -14.831   5.496  1.00  0.00     0.033 A 
HETATM    3  C   UNL     1      43.325 -14.977   5.532  1.00  0.00     0.019 A 
HETATM    4  C   UNL     1      43.912 -16.125   6.084  1.00  0.00     0.030 A 
HETATM    5  C   UNL     1      43.115 -17.138   6.614  1.00  0.00     0.033 A 
HETATM    6  C   UNL     1      41.723 -17.002   6.550  1.00  0.00     0.030 A 
ENDROOT
BRANCH   2   7
HETATM    7  C   UNL     1      41.360 -13.596   4.887  1.00  0.00     0.270 C 
HETATM    8  N   UNL     1      42.108 -12.992   3.895  1.00  0.00    -0.264 N 
HETATM    9  H   UNL     1      43.013 -13.315   3.575  1.00  0.00     0.190 HD
HETATM   10  O   UNL     1      40.272 -13.158   5.252  1.00  0.00    -0.266 OA
BRANCH   8  11
HETATM   11  N   UNL     1      41.688 -11.748   3.403  1.00  0.00    -0.274 N 
HETATM   12  H   UNL     1      42.384 -11.018   3.518  1.00  0.00     0.189 HD
BRANCH  11  13
HETATM   13  C   UNL     1      40.884 -11.680   2.305  1.00  0.00     0.186 C 
HETATM   14  S   UNL     1      40.961 -10.482   1.134  1.00  0.00    -0.040 SA
BRANCH  13  15
HETATM   15  N   UNL     1      39.996 -12.686   2.112  1.00  0.00    -0.361 N 
HETATM   16  H   UNL     1      39.100 -12.474   2.537  1.00  0.00     0.162 HD
BRANCH  15  17
HETATM   17  C   UNL     1      39.992 -13.858   1.225  1.00  0.00     0.083 C 
HETATM   18  C   UNL     1      41.364 -14.171   0.613  1.00  0.00     0.025 C 
HETATM   19  C   UNL     1      42.113 -15.332   1.254  1.00  0.00     0.002 C 
HETATM   20  C   UNL     1      41.223 -16.556   1.400  1.00  0.00     0.000 C 
HETATM   21  C   UNL     1      40.004 -16.255   2.259  1.00  0.00     0.002 C 
HETATM   22  C   UNL     1      39.197 -15.063   1.753  1.00  0.00     0.025 C 
ENDBRANCH  15  17
ENDBRANCH  13  15
ENDBRANCH  11  13
ENDBRANCH   8  11
ENDBRANCH   2   7
BRANCH   5  23
HETATM   23  N   UNL     1      43.598 -18.348   7.146  1.00  0.00    -0.338 N 
HETATM   24  H   UNL     1      44.187 -18.249   7.959  1.00  0.00     0.168 HD
BRANCH  23  25
HETATM   25  C   UNL     1      43.612 -19.629   6.674  1.00  0.00     0.151 C 
HETATM   26  S   UNL     1      43.665 -21.058   7.531  1.00  0.00    -0.047 SA
BRANCH  25  27
HETATM   27  N   UNL     1      43.439 -19.724   5.310  1.00  0.00    -0.265 NA
HETATM   28  H   UNL     1      43.010 -20.625   5.121  1.00  0.00     0.130 HD
BRANCH  27  29
HETATM   29  C   UNL     1      44.462 -19.401   4.291  1.00  0.00     0.062 C 
HETATM   30  C   UNL     1      45.223 -20.688   3.919  1.00  0.00     0.020 C 
HETATM   31  C   UNL     1      44.377 -21.635   3.065  1.00  0.00     0.002 C 
HETATM   32  C   UNL     1      43.842 -20.947   1.813  1.00  0.00     0.000 C 
HETATM   33  C   UNL     1      43.102 -19.655   2.150  1.00  0.00     0.002 C 
HETATM   34  C   UNL     1      43.969 -18.728   2.999  1.00  0.00     0.020 C 
ENDBRANCH  27  29
ENDBRANCH  25  27
ENDBRANCH  23  25
ENDBRANCH   5  23
TORSDOF 9
ENDMDL
