MODEL 1
REMARK VINA RESULT:      -7.2      0.000      0.000
REMARK  1 active torsions:
REMARK  status: ('A' for Active; 'I' for Inactive)
REMARK    1  A    between atoms: C_8  and  C_9 
ROOT
HETATM    1  C   UNL     1      42.817 -13.541   3.099  1.00  0.00     0.073 C 
HETATM    2  C   UNL     1      43.271 -14.003   4.440  1.00  0.00     0.062 A 
HETATM    3  N   UNL     1      44.036 -13.193   5.172  1.00  0.00    -0.178 NA
HETATM    4  N   UNL     1      44.187 -13.850   6.321  1.00  0.00    -0.262 N 
HETATM    5  H   UNL     1      44.716 -13.400   7.058  1.00  0.00     0.191 HD
HETATM    6  C   UNL     1      43.604 -15.091   6.348  1.00  0.00     0.134 A 
HETATM    7  C   UNL     1      42.990 -15.249   5.114  1.00  0.00     0.032 A 
HETATM    8  C   UNL     1      42.079 -16.316   4.578  1.00  0.00     0.121 C 
HETATM    9  S   UNL     1      41.583 -17.662   5.679  1.00  0.00    -0.140 SA
HETATM   10  C   UNL     1      43.090 -18.095   6.590  1.00  0.00     0.136 C 
HETATM   11  C   UNL     1      44.346 -18.409   5.795  1.00  0.00     0.031 C 
HETATM   12  C   UNL     1      43.367 -17.128   7.725  1.00  0.00     0.236 C 
HETATM   13  O   UNL     1      43.418 -17.531   8.893  1.00  0.00    -0.272 OA
HETATM   14  N   UNL     1      43.695 -15.826   7.505  1.00  0.00    -0.311 N 
HETATM   15  H   UNL     1      44.007 -15.369   8.356  1.00  0.00     0.170 HD
ENDROOT
BRANCH   8  16
HETATM   16  C   UNL     1      42.543 -16.798   3.201  1.00  0.00    -0.018 A 
HETATM   17  C   UNL     1      41.659 -16.792   2.099  1.00  0.00     0.041 A 
HETATM   18 CL   UNL     1      40.028 -16.215   2.212  1.00  0.00    -0.084 Cl
HETATM   19  C   UNL     1      42.066 -17.235   0.833  1.00  0.00     0.024 A 
HETATM   20  C   UNL     1      43.362 -17.698   0.633  1.00  0.00     0.002 A 
HETATM   21  C   UNL     1      44.255 -17.714   1.697  1.00  0.00     0.001 A 
HETATM   22  C   UNL     1      43.851 -17.271   2.960  1.00  0.00     0.010 A 
ENDBRANCH   8  16
TORSDOF 1
ENDMDL
MODEL 2
REMARK VINA RESULT:      -7.2      2.513      3.634
REMARK  1 active torsions:
REMARK  status: ('A' for Active; 'I' for Inactive)
REMARK    1  A    between atoms: C_8  and  C_9 
ROOT
HETATM    1  C   UNL     1      43.870 -17.754   1.385  1.00  0.00     0.073 C 
HETATM    2  C   UNL     1      43.879 -18.233   2.795  1.00  0.00     0.062 A 
HETATM    3  N   UNL     1      44.274 -19.483   3.045  1.00  0.00    -0.178 NA
HETATM    4  N   UNL     1      44.254 -19.563   4.374  1.00  0.00    -0.262 N 
HETATM    5  H   UNL     1      44.555 -20.431   4.800  1.00  0.00     0.191 HD
HETATM    6  C   UNL     1      43.798 -18.435   5.006  1.00  0.00     0.134 A 
HETATM    7  C   UNL     1      43.522 -17.520   3.999  1.00  0.00     0.032 A 
HETATM    8  C   UNL     1      43.133 -16.071   4.042  1.00  0.00     0.121 C 
HETATM    9  S   UNL     1      43.028 -15.251   5.651  1.00  0.00    -0.140 SA
HETATM   10  C   UNL     1      42.229 -16.463   6.737  1.00  0.00     0.136 C 
HETATM   11  C   UNL     1      40.909 -17.069   6.291  1.00  0.00     0.031 C 
HETATM   12  C   UNL     1      43.200 -17.522   7.222  1.00  0.00     0.236 C 
HETATM   13  O   UNL     1      43.417 -17.666   8.432  1.00  0.00    -0.272 OA
HETATM   14  N   UNL     1      43.766 -18.428   6.380  1.00  0.00    -0.311 N 
HETATM   15  H   UNL     1      44.254 -19.159   6.888  1.00  0.00     0.170 HD
ENDROOT
BRANCH   8  16
HETATM   16  C   UNL     1      41.925 -15.797   3.142  1.00  0.00    -0.018 A 
HETATM   17  C   UNL     1      41.769 -14.543   2.508  1.00  0.00     0.041 A 
HETATM   18 CL   UNL     1      42.926 -13.263   2.669  1.00  0.00    -0.084 Cl
HETATM   19  C   UNL     1      40.667 -14.273   1.684  1.00  0.00     0.024 A 
HETATM   20  C   UNL     1      39.692 -15.243   1.474  1.00  0.00     0.002 A 
HETATM   21  C   UNL     1      39.820 -16.485   2.082  1.00  0.00     0.001 A 
HETATM   22  C   UNL     1      40.919 -16.756   2.902  1.00  0.00     0.010 A 
ENDBRANCH   8  16
TORSDOF 1
ENDMDL
MODEL 3
REMARK VINA RESULT:      -7.1      2.852      4.572
REMARK  1 active torsions:
REMARK  status: ('A' for Active; 'I' for Inactive)
REMARK    1  A    between atoms: C_8  and  C_9 
ROOT
HETATM    1  C   UNL     1      43.631 -16.286   7.237  1.00  0.00     0.073 C 
HETATM    2  C   UNL     1      44.091 -17.334   6.285  1.00  0.00     0.062 A 
HETATM    3  N   UNL     1      45.165 -18.060   6.601  1.00  0.00    -0.178 NA
HETATM    4  N   UNL     1      45.253 -18.945   5.610  1.00  0.00    -0.262 N 
HETATM    5  H   UNL     1      45.992 -19.637   5.657  1.00  0.00     0.191 HD
HETATM    6  C   UNL     1      44.318 -18.787   4.620  1.00  0.00     0.134 A 
HETATM    7  C   UNL     1      43.525 -17.719   5.014  1.00  0.00     0.032 A 
HETATM    8  C   UNL     1      42.260 -17.146   4.441  1.00  0.00     0.121 C 
HETATM    9  S   UNL     1      41.517 -17.955   3.004  1.00  0.00    -0.140 SA
HETATM   10  C   UNL     1      42.919 -18.375   1.933  1.00  0.00     0.136 C 
HETATM   11  C   UNL     1      43.893 -17.271   1.557  1.00  0.00     0.031 C 
HETATM   12  C   UNL     1      43.638 -19.627   2.399  1.00  0.00     0.236 C 
HETATM   13  O   UNL     1      43.715 -20.616   1.660  1.00  0.00    -0.272 OA
HETATM   14  N   UNL     1      44.327 -19.674   3.570  1.00  0.00    -0.311 N 
HETATM   15  H   UNL     1      44.879 -20.522   3.647  1.00  0.00     0.170 HD
ENDROOT
BRANCH   8  16
HETATM   16  C   UNL     1      42.358 -15.625   4.297  1.00  0.00    -0.018 A 
HETATM   17  C   UNL     1      41.421 -14.779   4.932  1.00  0.00     0.041 A 
HETATM   18 CL   UNL     1      40.140 -15.384   5.930  1.00  0.00    -0.084 Cl
HETATM   19  C   UNL     1      41.494 -13.384   4.806  1.00  0.00     0.024 A 
HETATM   20  C   UNL     1      42.498 -12.798   4.044  1.00  0.00     0.002 A 
HETATM   21  C   UNL     1      43.435 -13.604   3.410  1.00  0.00     0.001 A 
HETATM   22  C   UNL     1      43.365 -14.995   3.536  1.00  0.00     0.010 A 
ENDBRANCH   8  16
TORSDOF 1
ENDMDL
MODEL 4
REMARK VINA RESULT:      -7.0      2.895      4.381
REMARK  1 active torsions:
REMARK  status: ('A' for Active; 'I' for Inactive)
REMARK    1  A    between atoms: C_8  and  C_9 
ROOT
HETATM    1  C   UNL     1      40.601 -15.640   5.902  1.00  0.00     0.073 C 
HETATM    2  C   UNL     1      41.514 -16.748   5.506  1.00  0.00     0.062 A 
HETATM    3  N   UNL     1      42.175 -17.406   6.460  1.00  0.00    -0.178 NA
HETATM    4  N   UNL     1      42.816 -18.367   5.797  1.00  0.00    -0.262 N 
HETATM    5  H   UNL     1      43.368 -19.026   6.335  1.00  0.00     0.191 HD
HETATM    6  C   UNL     1      42.655 -18.326   4.437  1.00  0.00     0.134 A 
HETATM    7  C   UNL     1      41.806 -17.257   4.187  1.00  0.00     0.032 A 
HETATM    8  C   UNL     1      41.141 -16.779   2.928  1.00  0.00     0.121 C 
HETATM    9  S   UNL     1      41.380 -17.731   1.409  1.00  0.00    -0.140 SA
HETATM   10  C   UNL     1      43.135 -18.188   1.420  1.00  0.00     0.136 C 
HETATM   11  C   UNL     1      44.165 -17.086   1.600  1.00  0.00     0.031 C 
HETATM   12  C   UNL     1      43.410 -19.371   2.330  1.00  0.00     0.236 C 
HETATM   13  O   UNL     1      43.890 -20.415   1.871  1.00  0.00    -0.272 OA
HETATM   14  N   UNL     1      43.267 -19.296   3.680  1.00  0.00    -0.311 N 
HETATM   15  H   UNL     1      43.648 -20.115   4.144  1.00  0.00     0.170 HD
ENDROOT
BRANCH   8  16
HETATM   16  C   UNL     1      41.338 -15.273   2.737  1.00  0.00    -0.018 A 
HETATM   17  C   UNL     1      40.292 -14.467   2.233  1.00  0.00     0.041 A 
HETATM   18 CL   UNL     1      38.729 -15.104   1.837  1.00  0.00    -0.084 Cl
HETATM   19  C   UNL     1      40.457 -13.088   2.047  1.00  0.00     0.024 A 
HETATM   20  C   UNL     1      41.667 -12.476   2.355  1.00  0.00     0.002 A 
HETATM   21  C   UNL     1      42.713 -13.242   2.854  1.00  0.00     0.001 A 
HETATM   22  C   UNL     1      42.550 -14.618   3.042  1.00  0.00     0.010 A 
ENDBRANCH   8  16
TORSDOF 1
ENDMDL
MODEL 5
REMARK VINA RESULT:      -6.7      3.738      5.776
REMARK  1 active torsions:
REMARK  status: ('A' for Active; 'I' for Inactive)
REMARK    1  A    between atoms: C_8  and  C_9 
ROOT
HETATM    1  C   UNL     1      44.095 -18.439   3.960  1.00  0.00     0.073 C 
HETATM    2  C   UNL     1      43.674 -17.748   2.710  1.00  0.00     0.062 A 
HETATM    3  N   UNL     1      44.230 -18.119   1.555  1.00  0.00    -0.178 NA
HETATM    4  N   UNL     1      43.586 -17.390   0.644  1.00  0.00    -0.262 N 
HETATM    5  H   UNL     1      43.824 -17.533  -0.330  1.00  0.00     0.191 HD
HETATM    6  C   UNL     1      42.674 -16.507   1.162  1.00  0.00     0.134 A 
HETATM    7  C   UNL     1      42.702 -16.695   2.537  1.00  0.00     0.032 A 
HETATM    8  C   UNL     1      41.848 -16.140   3.640  1.00  0.00     0.121 C 
HETATM    9  S   UNL     1      40.465 -15.060   3.203  1.00  0.00    -0.140 SA
HETATM   10  C   UNL     1      41.114 -13.983   1.896  1.00  0.00     0.136 C 
HETATM   11  C   UNL     1      42.402 -13.223   2.163  1.00  0.00     0.031 C 
HETATM   12  C   UNL     1      41.136 -14.675   0.547  1.00  0.00     0.236 C 
HETATM   13  O   UNL     1      40.489 -14.217  -0.403  1.00  0.00    -0.272 OA
HETATM   14  N   UNL     1      41.952 -15.732   0.287  1.00  0.00    -0.311 N 
HETATM   15  H   UNL     1      41.962 -15.964  -0.701  1.00  0.00     0.170 HD
ENDROOT
BRANCH   8  16
HETATM   16  C   UNL     1      42.708 -15.593   4.782  1.00  0.00    -0.018 A 
HETATM   17  C   UNL     1      42.623 -16.149   6.079  1.00  0.00     0.041 A 
HETATM   18 CL   UNL     1      41.589 -17.487   6.457  1.00  0.00    -0.084 Cl
HETATM   19  C   UNL     1      43.400 -15.656   7.137  1.00  0.00     0.024 A 
HETATM   20  C   UNL     1      44.278 -14.598   6.932  1.00  0.00     0.002 A 
HETATM   21  C   UNL     1      44.385 -14.032   5.668  1.00  0.00     0.001 A 
HETATM   22  C   UNL     1      43.612 -14.523   4.611  1.00  0.00     0.010 A 
ENDBRANCH   8  16
TORSDOF 1
ENDMDL
MODEL 6
REMARK VINA RESULT:      -6.7      3.344      4.770
REMARK  1 active torsions:
REMARK  status: ('A' for Active; 'I' for Inactive)
REMARK    1  A    between atoms: C_8  and  C_9 
ROOT
HETATM    1  C   UNL     1      42.457 -17.955   7.088  1.00  0.00     0.073 C 
HETATM    2  C   UNL     1      41.616 -17.039   6.269  1.00  0.00     0.062 A 
HETATM    3  N   UNL     1      40.388 -16.741   6.697  1.00  0.00    -0.178 NA
HETATM    4  N   UNL     1      39.948 -15.851   5.809  1.00  0.00    -0.262 N 
HETATM    5  H   UNL     1      39.029 -15.451   5.956  1.00  0.00     0.191 HD
HETATM    6  C   UNL     1      40.814 -15.602   4.776  1.00  0.00     0.134 A 
HETATM    7  C   UNL     1      41.938 -16.377   5.026  1.00  0.00     0.032 A 
HETATM    8  C   UNL     1      43.278 -16.445   4.352  1.00  0.00     0.121 C 
HETATM    9  S   UNL     1      43.616 -15.312   2.984  1.00  0.00    -0.140 SA
HETATM   10  C   UNL     1      42.085 -15.288   2.013  1.00  0.00     0.136 C 
HETATM   11  C   UNL     1      41.502 -16.614   1.556  1.00  0.00     0.031 C 
HETATM   12  C   UNL     1      41.030 -14.391   2.634  1.00  0.00     0.236 C 
HETATM   13  O   UNL     1      40.584 -13.422   2.007  1.00  0.00    -0.272 OA
HETATM   14  N   UNL     1      40.445 -14.679   3.827  1.00  0.00    -0.311 N 
HETATM   15  H   UNL     1      39.653 -14.072   4.013  1.00  0.00     0.170 HD
ENDROOT
BRANCH   8  16
HETATM   16  C   UNL     1      43.672 -17.894   4.051  1.00  0.00    -0.018 A 
HETATM   17  C   UNL     1      44.647 -18.553   4.834  1.00  0.00     0.041 A 
HETATM   18 CL   UNL     1      45.426 -17.801   6.187  1.00  0.00    -0.084 Cl
HETATM   19  C   UNL     1      45.023 -19.877   4.569  1.00  0.00     0.024 A 
HETATM   20  C   UNL     1      44.440 -20.577   3.518  1.00  0.00     0.002 A 
HETATM   21  C   UNL     1      43.478 -19.956   2.732  1.00  0.00     0.001 A 
HETATM   22  C   UNL     1      43.100 -18.636   2.996  1.00  0.00     0.010 A 
ENDBRANCH   8  16
TORSDOF 1
ENDMDL
MODEL 7
REMARK VINA RESULT:      -6.4      3.715      5.276
REMARK  1 active torsions:
REMARK  status: ('A' for Active; 'I' for Inactive)
REMARK    1  A    between atoms: C_8  and  C_9 
ROOT
HETATM    1  C   UNL     1      43.869 -13.905   4.834  1.00  0.00     0.073 C 
HETATM    2  C   UNL     1      42.764 -13.216   4.112  1.00  0.00     0.062 A 
HETATM    3  N   UNL     1      42.345 -12.031   4.560  1.00  0.00    -0.178 NA
HETATM    4  N   UNL     1      41.437 -11.654   3.663  1.00  0.00    -0.262 N 
HETATM    5  H   UNL     1      40.999 -10.748   3.784  1.00  0.00     0.191 HD
HETATM    6  C   UNL     1      41.194 -12.575   2.677  1.00  0.00     0.134 A 
HETATM    7  C   UNL     1      42.043 -13.642   2.935  1.00  0.00     0.032 A 
HETATM    8  C   UNL     1      42.356 -14.885   2.153  1.00  0.00     0.121 C 
HETATM    9  S   UNL     1      41.578 -15.107   0.536  1.00  0.00    -0.140 SA
HETATM   10  C   UNL     1      39.866 -14.558   0.766  1.00  0.00     0.136 C 
HETATM   11  C   UNL     1      39.061 -15.166   1.902  1.00  0.00     0.031 C 
HETATM   12  C   UNL     1      39.743 -13.046   0.734  1.00  0.00     0.236 C 
HETATM   13  O   UNL     1      39.038 -12.493  -0.119  1.00  0.00    -0.272 OA
HETATM   14  N   UNL     1      40.284 -12.254   1.698  1.00  0.00    -0.311 N 
HETATM   15  H   UNL     1      39.969 -11.293   1.614  1.00  0.00     0.170 HD
ENDROOT
BRANCH   8  16
HETATM   16  C   UNL     1      42.278 -16.130   3.040  1.00  0.00    -0.018 A 
HETATM   17  C   UNL     1      43.141 -17.227   2.820  1.00  0.00     0.041 A 
HETATM   18 CL   UNL     1      44.352 -17.231   1.581  1.00  0.00    -0.084 Cl
HETATM   19  C   UNL     1      43.079 -18.377   3.620  1.00  0.00     0.024 A 
HETATM   20  C   UNL     1      42.155 -18.464   4.656  1.00  0.00     0.002 A 
HETATM   21  C   UNL     1      41.295 -17.400   4.898  1.00  0.00     0.001 A 
HETATM   22  C   UNL     1      41.357 -16.252   4.102  1.00  0.00     0.010 A 
ENDBRANCH   8  16
TORSDOF 1
ENDMDL
MODEL 8
REMARK VINA RESULT:      -6.2      3.769      5.719
REMARK  1 active torsions:
REMARK  status: ('A' for Active; 'I' for Inactive)
REMARK    1  A    between atoms: C_8  and  C_9 
ROOT
HETATM    1  C   UNL     1      43.746 -17.788   3.281  1.00  0.00     0.073 C 
HETATM    2  C   UNL     1      43.023 -16.872   2.356  1.00  0.00     0.062 A 
HETATM    3  N   UNL     1      43.270 -16.955   1.048  1.00  0.00    -0.178 NA
HETATM    4  N   UNL     1      42.417 -16.087   0.507  1.00  0.00    -0.262 N 
HETATM    5  H   UNL     1      42.402 -16.004  -0.502  1.00  0.00     0.191 HD
HETATM    6  C   UNL     1      41.663 -15.388   1.415  1.00  0.00     0.134 A 
HETATM    7  C   UNL     1      42.037 -15.863   2.664  1.00  0.00     0.032 A 
HETATM    8  C   UNL     1      41.487 -15.607   4.038  1.00  0.00     0.121 C 
HETATM    9  S   UNL     1      40.037 -14.539   4.204  1.00  0.00    -0.140 SA
HETATM   10  C   UNL     1      40.334 -13.173   3.049  1.00  0.00     0.136 C 
HETATM   11  C   UNL     1      41.646 -12.414   3.153  1.00  0.00     0.031 C 
HETATM   12  C   UNL     1      40.017 -13.558   1.617  1.00  0.00     0.236 C 
HETATM   13  O   UNL     1      39.150 -12.945   0.980  1.00  0.00    -0.272 OA
HETATM   14  N   UNL     1      40.743 -14.486   0.938  1.00  0.00    -0.311 N 
HETATM   15  H   UNL     1      40.504 -14.502  -0.049  1.00  0.00     0.170 HD
ENDROOT
BRANCH   8  16
HETATM   16  C   UNL     1      42.606 -15.268   5.026  1.00  0.00    -0.018 A 
HETATM   17  C   UNL     1      42.715 -15.955   6.256  1.00  0.00     0.041 A 
HETATM   18 CL   UNL     1      41.635 -17.231   6.713  1.00  0.00    -0.084 Cl
HETATM   19  C   UNL     1      43.730 -15.654   7.174  1.00  0.00     0.024 A 
HETATM   20  C   UNL     1      44.661 -14.660   6.892  1.00  0.00     0.002 A 
HETATM   21  C   UNL     1      44.581 -13.969   5.690  1.00  0.00     0.001 A 
HETATM   22  C   UNL     1      43.570 -14.269   4.773  1.00  0.00     0.010 A 
ENDBRANCH   8  16
TORSDOF 1
ENDMDL
MODEL 9
REMARK VINA RESULT:      -6.2      3.027      3.970
REMARK  1 active torsions:
REMARK  status: ('A' for Active; 'I' for Inactive)
REMARK    1  A    between atoms: C_8  and  C_9 
ROOT
HETATM    1  C   UNL     1      41.174 -12.114   2.794  1.00  0.00     0.073 C 
HETATM    2  C   UNL     1      41.991 -13.278   3.238  1.00  0.00     0.062 A 
HETATM    3  N   UNL     1      43.036 -13.061   4.038  1.00  0.00    -0.178 NA
HETATM    4  N   UNL     1      43.484 -14.283   4.316  1.00  0.00    -0.262 N 
HETATM    5  H   UNL     1      44.270 -14.367   4.949  1.00  0.00     0.191 HD
HETATM    6  C   UNL     1      42.814 -15.294   3.677  1.00  0.00     0.134 A 
HETATM    7  C   UNL     1      41.816 -14.679   2.934  1.00  0.00     0.032 A 
HETATM    8  C   UNL     1      40.672 -15.237   2.137  1.00  0.00     0.121 C 
HETATM    9  S   UNL     1      40.425 -17.029   2.118  1.00  0.00    -0.140 SA
HETATM   10  C   UNL     1      42.093 -17.725   1.968  1.00  0.00     0.136 C 
HETATM   11  C   UNL     1      42.978 -17.235   0.835  1.00  0.00     0.031 C 
HETATM   12  C   UNL     1      42.827 -17.735   3.295  1.00  0.00     0.236 C 
HETATM   13  O   UNL     1      43.215 -18.801   3.788  1.00  0.00    -0.272 OA
HETATM   14  N   UNL     1      43.201 -16.589   3.925  1.00  0.00    -0.311 N 
HETATM   15  H   UNL     1      43.821 -16.776   4.707  1.00  0.00     0.170 HD
ENDROOT
BRANCH   8  16
HETATM   16  C   UNL     1      40.606 -14.601   0.746  1.00  0.00    -0.018 A 
HETATM   17  C   UNL     1      39.372 -14.165   0.212  1.00  0.00     0.041 A 
HETATM   18 CL   UNL     1      37.880 -14.280   1.086  1.00  0.00    -0.084 Cl
HETATM   19  C   UNL     1      39.293 -13.585  -1.062  1.00  0.00     0.024 A 
HETATM   20  C   UNL     1      40.438 -13.427  -1.836  1.00  0.00     0.002 A 
HETATM   21  C   UNL     1      41.664 -13.844  -1.336  1.00  0.00     0.001 A 
HETATM   22  C   UNL     1      41.746 -14.421  -0.065  1.00  0.00     0.010 A 
ENDBRANCH   8  16
TORSDOF 1
ENDMDL
MODEL 10
REMARK VINA RESULT:      -6.1      3.748      5.570
REMARK  1 active torsions:
REMARK  status: ('A' for Active; 'I' for Inactive)
REMARK    1  A    between atoms: C_8  and  C_9 
ROOT
HETATM    1  C   UNL     1      42.889 -15.014   2.520  1.00  0.00     0.073 C 
HETATM    2  C   UNL     1      42.288 -13.658   2.663  1.00  0.00     0.062 A 
HETATM    3  N   UNL     1      42.509 -12.754   1.707  1.00  0.00    -0.178 NA
HETATM    4  N   UNL     1      41.777 -11.708   2.084  1.00  0.00    -0.262 N 
HETATM    5  H   UNL     1      41.764 -10.896   1.477  1.00  0.00     0.191 HD
HETATM    6  C   UNL     1      41.134 -11.865   3.284  1.00  0.00     0.134 A 
HETATM    7  C   UNL     1      41.451 -13.143   3.721  1.00  0.00     0.032 A 
HETATM    8  C   UNL     1      40.954 -13.957   4.881  1.00  0.00     0.121 C 
HETATM    9  S   UNL     1      39.664 -13.258   5.938  1.00  0.00    -0.140 SA
HETATM   10  C   UNL     1      40.133 -11.519   6.152  1.00  0.00     0.136 C 
HETATM   11  C   UNL     1      41.537 -11.207   6.641  1.00  0.00     0.031 C 
HETATM   12  C   UNL     1      39.753 -10.674   4.951  1.00  0.00     0.236 C 
HETATM   13  O   UNL     1      38.972  -9.723   5.076  1.00  0.00    -0.272 OA
HETATM   14  N   UNL     1      40.340 -10.838   3.735  1.00  0.00    -0.311 N 
HETATM   15  H   UNL     1      40.092 -10.090   3.095  1.00  0.00     0.170 HD
ENDROOT
BRANCH   8  16
HETATM   16  C   UNL     1      42.118 -14.566   5.666  1.00  0.00    -0.018 A 
HETATM   17  C   UNL     1      42.018 -15.867   6.210  1.00  0.00     0.041 A 
HETATM   18 CL   UNL     1      40.615 -16.863   6.001  1.00  0.00    -0.084 Cl
HETATM   19  C   UNL     1      43.072 -16.438   6.937  1.00  0.00     0.024 A 
HETATM   20  C   UNL     1      44.250 -15.728   7.142  1.00  0.00     0.002 A 
HETATM   21  C   UNL     1      44.378 -14.449   6.618  1.00  0.00     0.001 A 
HETATM   22  C   UNL     1      43.329 -13.878   5.892  1.00  0.00     0.010 A 
ENDBRANCH   8  16
TORSDOF 1
ENDMDL
