MODEL 1
REMARK VINA RESULT:      -7.6      0.000      0.000
REMARK  7 active torsions:
REMARK  status: ('A' for Active; 'I' for Inactive)
REMARK    1  A    between atoms: C_2  and  C_3 
REMARK    2  A    between atoms: C_3  and  N_4 
REMARK    3  A    between atoms: N_4  and  C_5 
REMARK    4  A    between atoms: C_7  and  N_8 
REMARK    5  A    between atoms: N_8  and  C_9 
REMARK    6  A    between atoms: C_9  and  C_10 
REMARK    7  A    between atoms: C_13  and  O_14 
ROOT
HETATM    1  C   UNL     1      44.095 -18.530   3.536  1.00  0.00     0.119 A 
HETATM    2  N   UNL     1      44.308 -17.946   4.731  1.00  0.00    -0.207 NA
HETATM    3  C   UNL     1      44.633 -18.732   5.765  1.00  0.00     0.181 A 
HETATM    4  N   UNL     1      44.733 -20.054   5.668  1.00  0.00    -0.330 N 
HETATM    5  H   UNL     1      44.891 -20.583   6.517  1.00  0.00     0.168 HD
HETATM    6  C   UNL     1      44.583 -20.678   4.495  1.00  0.00     0.048 A 
HETATM    7  C   UNL     1      44.262 -19.919   3.352  1.00  0.00     0.031 A 
HETATM    8  C   UNL     1      44.747 -22.069   4.413  1.00  0.00     0.030 A 
HETATM    9  C   UNL     1      44.607 -22.719   3.188  1.00  0.00     0.002 A 
HETATM   10  C   UNL     1      44.302 -21.987   2.044  1.00  0.00     0.001 A 
HETATM   11  C   UNL     1      44.131 -20.602   2.120  1.00  0.00     0.017 A 
ENDROOT
BRANCH   3  12
HETATM   12  N   UNL     1      44.778 -18.109   6.994  1.00  0.00    -0.258 NA
HETATM   13  H   UNL     1      45.222 -18.807   7.595  1.00  0.00     0.130 HD
BRANCH  12  14
HETATM   14  C   UNL     1      43.580 -17.563   7.630  1.00  0.00     0.134 C 
BRANCH  14  15
HETATM   15  C   UNL     1      43.212 -16.239   7.002  1.00  0.00    -0.045 A 
HETATM   16  C   UNL     1      41.965 -16.052   6.396  1.00  0.00     0.011 A 
HETATM   17  C   UNL     1      41.667 -14.839   5.769  1.00  0.00     0.037 A 
HETATM   18  C   UNL     1      42.592 -13.793   5.752  1.00  0.00     0.068 A 
HETATM   19  C   UNL     1      43.828 -13.966   6.372  1.00  0.00     0.037 A 
HETATM   20  C   UNL     1      44.132 -15.177   6.998  1.00  0.00     0.011 A 
BRANCH  18  21
HETATM   21  O   UNL     1      42.176 -12.670   5.095  1.00  0.00    -0.356 OA
HETATM   22  C   UNL     1      42.137 -12.732   3.673  1.00  0.00     0.210 C 
ENDBRANCH  18  21
ENDBRANCH  14  15
ENDBRANCH  12  14
ENDBRANCH   3  12
BRANCH   1  23
HETATM   23  N   UNL     1      43.745 -17.724   2.442  1.00  0.00    -0.277 NA
HETATM   24  H   UNL     1      43.338 -18.289   1.698  1.00  0.00     0.129 HD
BRANCH  23  25
HETATM   25  C   UNL     1      42.903 -16.562   2.737  1.00  0.00     0.093 C 
BRANCH  25  26
HETATM   26  C   UNL     1      41.432 -16.963   2.625  1.00  0.00     0.010 C 
HETATM   27  C   UNL     1      41.141 -17.655   1.305  1.00  0.00     0.006 C 
ENDBRANCH  25  26
ENDBRANCH  23  25
ENDBRANCH   1  23
TORSDOF 7
ENDMDL
MODEL 2
REMARK VINA RESULT:      -7.6      2.157      4.523
REMARK  7 active torsions:
REMARK  status: ('A' for Active; 'I' for Inactive)
REMARK    1  A    between atoms: C_2  and  C_3 
REMARK    2  A    between atoms: C_3  and  N_4 
REMARK    3  A    between atoms: N_4  and  C_5 
REMARK    4  A    between atoms: C_7  and  N_8 
REMARK    5  A    between atoms: N_8  and  C_9 
REMARK    6  A    between atoms: C_9  and  C_10 
REMARK    7  A    between atoms: C_13  and  O_14 
ROOT
HETATM    1  C   UNL     1      44.398 -18.679   4.887  1.00  0.00     0.119 A 
HETATM    2  N   UNL     1      44.138 -17.709   3.990  1.00  0.00    -0.207 NA
HETATM    3  C   UNL     1      44.009 -18.061   2.704  1.00  0.00     0.181 A 
HETATM    4  N   UNL     1      44.146 -19.313   2.278  1.00  0.00    -0.330 N 
HETATM    5  H   UNL     1      44.125 -19.479   1.279  1.00  0.00     0.168 HD
HETATM    6  C   UNL     1      44.353 -20.319   3.132  1.00  0.00     0.048 A 
HETATM    7  C   UNL     1      44.478 -20.036   4.507  1.00  0.00     0.031 A 
HETATM    8  C   UNL     1      44.441 -21.637   2.659  1.00  0.00     0.030 A 
HETATM    9  C   UNL     1      44.640 -22.689   3.551  1.00  0.00     0.002 A 
HETATM   10  C   UNL     1      44.754 -22.433   4.914  1.00  0.00     0.001 A 
HETATM   11  C   UNL     1      44.674 -21.122   5.391  1.00  0.00     0.017 A 
ENDROOT
BRANCH   3  12
HETATM   12  N   UNL     1      43.809 -17.032   1.798  1.00  0.00    -0.258 NA
HETATM   13  H   UNL     1      43.552 -16.223   2.369  1.00  0.00     0.130 HD
BRANCH  12  14
HETATM   14  C   UNL     1      42.838 -17.241   0.726  1.00  0.00     0.134 C 
BRANCH  14  15
HETATM   15  C   UNL     1      41.628 -16.361   0.937  1.00  0.00    -0.045 A 
HETATM   16  C   UNL     1      41.448 -15.193   0.189  1.00  0.00     0.011 A 
HETATM   17  C   UNL     1      40.353 -14.363   0.441  1.00  0.00     0.037 A 
HETATM   18  C   UNL     1      39.414 -14.690   1.423  1.00  0.00     0.068 A 
HETATM   19  C   UNL     1      39.578 -15.864   2.157  1.00  0.00     0.037 A 
HETATM   20  C   UNL     1      40.673 -16.695   1.911  1.00  0.00     0.011 A 
BRANCH  18  21
HETATM   21  O   UNL     1      38.402 -13.786   1.573  1.00  0.00    -0.356 OA
HETATM   22  C   UNL     1      37.318 -13.872   0.653  1.00  0.00     0.210 C 
ENDBRANCH  18  21
ENDBRANCH  14  15
ENDBRANCH  12  14
ENDBRANCH   3  12
BRANCH   1  23
HETATM   23  N   UNL     1      44.546 -18.328   6.238  1.00  0.00    -0.277 NA
HETATM   24  H   UNL     1      45.528 -18.355   6.508  1.00  0.00     0.129 HD
BRANCH  23  25
HETATM   25  C   UNL     1      43.922 -17.070   6.652  1.00  0.00     0.093 C 
BRANCH  25  26
HETATM   26  C   UNL     1      42.540 -17.360   7.239  1.00  0.00     0.010 C 
HETATM   27  C   UNL     1      41.437 -16.724   6.410  1.00  0.00     0.006 C 
ENDBRANCH  25  26
ENDBRANCH  23  25
ENDBRANCH   1  23
TORSDOF 7
ENDMDL
MODEL 3
REMARK VINA RESULT:      -7.5      4.588      7.497
REMARK  7 active torsions:
REMARK  status: ('A' for Active; 'I' for Inactive)
REMARK    1  A    between atoms: C_2  and  C_3 
REMARK    2  A    between atoms: C_3  and  N_4 
REMARK    3  A    between atoms: N_4  and  C_5 
REMARK    4  A    between atoms: C_7  and  N_8 
REMARK    5  A    between atoms: N_8  and  C_9 
REMARK    6  A    between atoms: C_9  and  C_10 
REMARK    7  A    between atoms: C_13  and  O_14 
ROOT
HETATM    1  C   UNL     1      41.031 -16.432   2.448  1.00  0.00     0.119 A 
HETATM    2  N   UNL     1      40.936 -15.968   1.187  1.00  0.00    -0.207 NA
HETATM    3  C   UNL     1      41.857 -16.368   0.300  1.00  0.00     0.181 A 
HETATM    4  N   UNL     1      42.862 -17.179   0.614  1.00  0.00    -0.330 N 
HETATM    5  H   UNL     1      43.566 -17.357  -0.091  1.00  0.00     0.168 HD
HETATM    6  C   UNL     1      42.973 -17.708   1.837  1.00  0.00     0.048 A 
HETATM    7  C   UNL     1      42.030 -17.356   2.823  1.00  0.00     0.031 A 
HETATM    8  C   UNL     1      44.014 -18.602   2.124  1.00  0.00     0.030 A 
HETATM    9  C   UNL     1      44.121 -19.168   3.394  1.00  0.00     0.002 A 
HETATM   10  C   UNL     1      43.194 -18.844   4.379  1.00  0.00     0.001 A 
HETATM   11  C   UNL     1      42.158 -17.948   4.101  1.00  0.00     0.017 A 
ENDROOT
BRANCH   3  12
HETATM   12  N   UNL     1      41.771 -15.819  -0.969  1.00  0.00    -0.258 NA
HETATM   13  H   UNL     1      42.738 -15.748  -1.293  1.00  0.00     0.130 HD
BRANCH  12  14
HETATM   14  C   UNL     1      41.079 -14.540  -1.117  1.00  0.00     0.134 C 
BRANCH  14  15
HETATM   15  C   UNL     1      39.943 -14.672  -2.105  1.00  0.00    -0.045 A 
HETATM   16  C   UNL     1      38.741 -13.981  -1.916  1.00  0.00     0.011 A 
HETATM   17  C   UNL     1      37.682 -14.162  -2.810  1.00  0.00     0.037 A 
HETATM   18  C   UNL     1      37.809 -15.014  -3.910  1.00  0.00     0.068 A 
HETATM   19  C   UNL     1      39.011 -15.688  -4.115  1.00  0.00     0.037 A 
HETATM   20  C   UNL     1      40.071 -15.513  -3.223  1.00  0.00     0.011 A 
BRANCH  18  21
HETATM   21  O   UNL     1      36.695 -15.107  -4.694  1.00  0.00    -0.356 OA
HETATM   22  C   UNL     1      35.928 -13.920  -4.870  1.00  0.00     0.210 C 
ENDBRANCH  18  21
ENDBRANCH  14  15
ENDBRANCH  12  14
ENDBRANCH   3  12
BRANCH   1  23
HETATM   23  N   UNL     1      40.080 -16.018   3.394  1.00  0.00    -0.277 NA
HETATM   24  H   UNL     1      40.130 -16.601   4.228  1.00  0.00     0.129 HD
BRANCH  23  25
HETATM   25  C   UNL     1      40.094 -14.597   3.746  1.00  0.00     0.093 C 
BRANCH  25  26
HETATM   26  C   UNL     1      40.305 -14.451   5.254  1.00  0.00     0.010 C 
HETATM   27  C   UNL     1      41.781 -14.400   5.608  1.00  0.00     0.006 C 
ENDBRANCH  25  26
ENDBRANCH  23  25
ENDBRANCH   1  23
TORSDOF 7
ENDMDL
MODEL 4
REMARK VINA RESULT:      -7.4      1.190      1.681
REMARK  7 active torsions:
REMARK  status: ('A' for Active; 'I' for Inactive)
REMARK    1  A    between atoms: C_2  and  C_3 
REMARK    2  A    between atoms: C_3  and  N_4 
REMARK    3  A    between atoms: N_4  and  C_5 
REMARK    4  A    between atoms: C_7  and  N_8 
REMARK    5  A    between atoms: N_8  and  C_9 
REMARK    6  A    between atoms: C_9  and  C_10 
REMARK    7  A    between atoms: C_13  and  O_14 
ROOT
HETATM    1  C   UNL     1      43.945 -18.586   2.909  1.00  0.00     0.119 A 
HETATM    2  N   UNL     1      44.005 -17.685   3.908  1.00  0.00    -0.207 NA
HETATM    3  C   UNL     1      44.264 -18.135   5.143  1.00  0.00     0.181 A 
HETATM    4  N   UNL     1      44.441 -19.422   5.424  1.00  0.00    -0.330 N 
HETATM    5  H   UNL     1      44.540 -19.687   6.396  1.00  0.00     0.168 HD
HETATM    6  C   UNL     1      44.443 -20.350   4.462  1.00  0.00     0.048 A 
HETATM    7  C   UNL     1      44.200 -19.956   3.130  1.00  0.00     0.031 A 
HETATM    8  C   UNL     1      44.686 -21.694   4.781  1.00  0.00     0.030 A 
HETATM    9  C   UNL     1      44.704 -22.660   3.776  1.00  0.00     0.002 A 
HETATM   10  C   UNL     1      44.480 -22.291   2.453  1.00  0.00     0.001 A 
HETATM   11  C   UNL     1      44.230 -20.955   2.129  1.00  0.00     0.017 A 
ENDROOT
BRANCH   3  12
HETATM   12  N   UNL     1      44.252 -17.193   6.159  1.00  0.00    -0.258 NA
HETATM   13  H   UNL     1      44.974 -17.500   6.814  1.00  0.00     0.130 HD
BRANCH  12  14
HETATM   14  C   UNL     1      42.989 -16.952   6.854  1.00  0.00     0.134 C 
BRANCH  14  15
HETATM   15  C   UNL     1      42.250 -15.800   6.213  1.00  0.00    -0.045 A 
HETATM   16  C   UNL     1      42.923 -14.630   5.844  1.00  0.00     0.011 A 
HETATM   17  C   UNL     1      42.211 -13.554   5.307  1.00  0.00     0.037 A 
HETATM   18  C   UNL     1      40.831 -13.632   5.111  1.00  0.00     0.068 A 
HETATM   19  C   UNL     1      40.159 -14.803   5.457  1.00  0.00     0.037 A 
HETATM   20  C   UNL     1      40.865 -15.881   5.998  1.00  0.00     0.011 A 
BRANCH  18  21
HETATM   21  O   UNL     1      40.260 -12.506   4.591  1.00  0.00    -0.356 OA
HETATM   22  C   UNL     1      39.094 -12.012   5.244  1.00  0.00     0.210 C 
ENDBRANCH  18  21
ENDBRANCH  14  15
ENDBRANCH  12  14
ENDBRANCH   3  12
BRANCH   1  23
HETATM   23  N   UNL     1      43.666 -18.135   1.608  1.00  0.00    -0.277 NA
HETATM   24  H   UNL     1      43.207 -18.867   1.069  1.00  0.00     0.129 HD
BRANCH  23  25
HETATM   25  C   UNL     1      42.935 -16.871   1.505  1.00  0.00     0.093 C 
BRANCH  25  26
HETATM   26  C   UNL     1      41.475 -17.159   1.153  1.00  0.00     0.010 C 
HETATM   27  C   UNL     1      40.553 -16.884   2.329  1.00  0.00     0.006 C 
ENDBRANCH  25  26
ENDBRANCH  23  25
ENDBRANCH   1  23
TORSDOF 7
ENDMDL
MODEL 5
REMARK VINA RESULT:      -7.3      3.568      4.536
REMARK  7 active torsions:
REMARK  status: ('A' for Active; 'I' for Inactive)
REMARK    1  A    between atoms: C_2  and  C_3 
REMARK    2  A    between atoms: C_3  and  N_4 
REMARK    3  A    between atoms: N_4  and  C_5 
REMARK    4  A    between atoms: C_7  and  N_8 
REMARK    5  A    between atoms: N_8  and  C_9 
REMARK    6  A    between atoms: C_9  and  C_10 
REMARK    7  A    between atoms: C_13  and  O_14 
ROOT
HETATM    1  C   UNL     1      42.882 -15.547   4.852  1.00  0.00     0.119 A 
HETATM    2  N   UNL     1      43.198 -14.781   5.913  1.00  0.00    -0.207 NA
HETATM    3  C   UNL     1      43.960 -15.323   6.873  1.00  0.00     0.181 A 
HETATM    4  N   UNL     1      44.394 -16.579   6.832  1.00  0.00    -0.330 N 
HETATM    5  H   UNL     1      44.886 -16.938   7.641  1.00  0.00     0.168 HD
HETATM    6  C   UNL     1      44.152 -17.364   5.778  1.00  0.00     0.048 A 
HETATM    7  C   UNL     1      43.377 -16.862   4.714  1.00  0.00     0.031 A 
HETATM    8  C   UNL     1      44.669 -18.667   5.740  1.00  0.00     0.030 A 
HETATM    9  C   UNL     1      44.430 -19.482   4.633  1.00  0.00     0.002 A 
HETATM   10  C   UNL     1      43.678 -19.002   3.566  1.00  0.00     0.001 A 
HETATM   11  C   UNL     1      43.155 -17.706   3.601  1.00  0.00     0.017 A 
ENDROOT
BRANCH   3  12
HETATM   12  N   UNL     1      44.210 -14.532   7.983  1.00  0.00    -0.258 NA
HETATM   13  H   UNL     1      43.289 -14.338   8.383  1.00  0.00     0.130 HD
BRANCH  12  14
HETATM   14  C   UNL     1      44.962 -13.294   7.786  1.00  0.00     0.134 C 
BRANCH  14  15
HETATM   15  C   UNL     1      44.570 -12.273   8.829  1.00  0.00    -0.045 A 
HETATM   16  C   UNL     1      43.390 -11.531   8.704  1.00  0.00     0.011 A 
HETATM   17  C   UNL     1      43.076 -10.551   9.649  1.00  0.00     0.037 A 
HETATM   18  C   UNL     1      43.917 -10.309  10.738  1.00  0.00     0.068 A 
HETATM   19  C   UNL     1      45.083 -11.059  10.880  1.00  0.00     0.037 A 
HETATM   20  C   UNL     1      45.403 -12.038   9.936  1.00  0.00     0.011 A 
BRANCH  18  21
HETATM   21  O   UNL     1      43.497  -9.316  11.577  1.00  0.00    -0.356 OA
HETATM   22  C   UNL     1      42.168  -8.835  11.393  1.00  0.00     0.210 C 
ENDBRANCH  18  21
ENDBRANCH  14  15
ENDBRANCH  12  14
ENDBRANCH   3  12
BRANCH   1  23
HETATM   23  N   UNL     1      42.078 -15.000   3.839  1.00  0.00    -0.277 NA
HETATM   24  H   UNL     1      42.310 -15.413   2.938  1.00  0.00     0.129 HD
BRANCH  23  25
HETATM   25  C   UNL     1      40.632 -15.031   4.074  1.00  0.00     0.093 C 
BRANCH  25  26
HETATM   26  C   UNL     1      39.902 -15.012   2.730  1.00  0.00     0.010 C 
HETATM   27  C   UNL     1      40.125 -16.300   1.955  1.00  0.00     0.006 C 
ENDBRANCH  25  26
ENDBRANCH  23  25
ENDBRANCH   1  23
TORSDOF 7
ENDMDL
MODEL 6
REMARK VINA RESULT:      -7.2      3.293      5.875
REMARK  7 active torsions:
REMARK  status: ('A' for Active; 'I' for Inactive)
REMARK    1  A    between atoms: C_2  and  C_3 
REMARK    2  A    between atoms: C_3  and  N_4 
REMARK    3  A    between atoms: N_4  and  C_5 
REMARK    4  A    between atoms: C_7  and  N_8 
REMARK    5  A    between atoms: N_8  and  C_9 
REMARK    6  A    between atoms: C_9  and  C_10 
REMARK    7  A    between atoms: C_13  and  O_14 
ROOT
HETATM    1  C   UNL     1      43.151 -18.465   3.803  1.00  0.00     0.119 A 
HETATM    2  N   UNL     1      42.144 -17.887   3.120  1.00  0.00    -0.207 NA
HETATM    3  C   UNL     1      41.283 -17.120   3.802  1.00  0.00     0.181 A 
HETATM    4  N   UNL     1      41.368 -16.925   5.114  1.00  0.00    -0.330 N 
HETATM    5  H   UNL     1      40.624 -16.407   5.566  1.00  0.00     0.168 HD
HETATM    6  C   UNL     1      42.377 -17.432   5.829  1.00  0.00     0.048 A 
HETATM    7  C   UNL     1      43.339 -18.233   5.182  1.00  0.00     0.031 A 
HETATM    8  C   UNL     1      42.469 -17.165   7.202  1.00  0.00     0.030 A 
HETATM    9  C   UNL     1      43.530 -17.680   7.946  1.00  0.00     0.002 A 
HETATM   10  C   UNL     1      44.499 -18.463   7.325  1.00  0.00     0.001 A 
HETATM   11  C   UNL     1      44.408 -18.739   5.958  1.00  0.00     0.017 A 
ENDROOT
BRANCH   3  12
HETATM   12  N   UNL     1      40.220 -16.596   3.084  1.00  0.00    -0.258 NA
HETATM   13  H   UNL     1      40.286 -17.029   2.159  1.00  0.00     0.130 HD
BRANCH  12  14
HETATM   14  C   UNL     1      40.120 -15.142   2.971  1.00  0.00     0.134 C 
BRANCH  14  15
HETATM   15  C   UNL     1      39.637 -14.757   1.592  1.00  0.00    -0.045 A 
HETATM   16  C   UNL     1      40.510 -14.753   0.499  1.00  0.00     0.011 A 
HETATM   17  C   UNL     1      40.058 -14.337  -0.756  1.00  0.00     0.037 A 
HETATM   18  C   UNL     1      38.732 -13.940  -0.946  1.00  0.00     0.068 A 
HETATM   19  C   UNL     1      37.853 -13.962   0.135  1.00  0.00     0.037 A 
HETATM   20  C   UNL     1      38.301 -14.374   1.392  1.00  0.00     0.011 A 
BRANCH  18  21
HETATM   21  O   UNL     1      38.428 -13.546  -2.218  1.00  0.00    -0.356 OA
HETATM   22  C   UNL     1      37.782 -14.503  -3.052  1.00  0.00     0.210 C 
ENDBRANCH  18  21
ENDBRANCH  14  15
ENDBRANCH  12  14
ENDBRANCH   3  12
BRANCH   1  23
HETATM   23  N   UNL     1      44.059 -19.280   3.107  1.00  0.00    -0.277 NA
HETATM   24  H   UNL     1      44.371 -20.049   3.698  1.00  0.00     0.129 HD
BRANCH  23  25
HETATM   25  C   UNL     1      43.618 -19.768   1.799  1.00  0.00     0.093 C 
BRANCH  25  26
HETATM   26  C   UNL     1      43.490 -21.292   1.845  1.00  0.00     0.010 C 
HETATM   27  C   UNL     1      44.485 -21.906   2.815  1.00  0.00     0.006 C 
ENDBRANCH  25  26
ENDBRANCH  23  25
ENDBRANCH   1  23
TORSDOF 7
ENDMDL
MODEL 7
REMARK VINA RESULT:      -7.2      2.741      5.142
REMARK  7 active torsions:
REMARK  status: ('A' for Active; 'I' for Inactive)
REMARK    1  A    between atoms: C_2  and  C_3 
REMARK    2  A    between atoms: C_3  and  N_4 
REMARK    3  A    between atoms: N_4  and  C_5 
REMARK    4  A    between atoms: C_7  and  N_8 
REMARK    5  A    between atoms: N_8  and  C_9 
REMARK    6  A    between atoms: C_9  and  C_10 
REMARK    7  A    between atoms: C_13  and  O_14 
ROOT
HETATM    1  C   UNL     1      44.191 -18.715   4.784  1.00  0.00     0.119 A 
HETATM    2  N   UNL     1      43.578 -17.561   4.458  1.00  0.00    -0.207 NA
HETATM    3  C   UNL     1      43.002 -17.476   3.252  1.00  0.00     0.181 A 
HETATM    4  N   UNL     1      43.027 -18.465   2.365  1.00  0.00    -0.330 N 
HETATM    5  H   UNL     1      42.649 -18.286   1.443  1.00  0.00     0.168 HD
HETATM    6  C   UNL     1      43.577 -19.648   2.657  1.00  0.00     0.048 A 
HETATM    7  C   UNL     1      44.185 -19.827   3.916  1.00  0.00     0.031 A 
HETATM    8  C   UNL     1      43.542 -20.690   1.720  1.00  0.00     0.030 A 
HETATM    9  C   UNL     1      44.100 -21.930   2.030  1.00  0.00     0.002 A 
HETATM   10  C   UNL     1      44.695 -22.133   3.272  1.00  0.00     0.001 A 
HETATM   11  C   UNL     1      44.739 -21.096   4.208  1.00  0.00     0.017 A 
ENDROOT
BRANCH   3  12
HETATM   12  N   UNL     1      42.440 -16.253   2.921  1.00  0.00    -0.258 NA
HETATM   13  H   UNL     1      42.801 -15.598   3.619  1.00  0.00     0.130 HD
BRANCH  12  14
HETATM   14  C   UNL     1      40.983 -16.170   2.836  1.00  0.00     0.134 C 
BRANCH  14  15
HETATM   15  C   UNL     1      40.573 -15.472   1.560  1.00  0.00    -0.045 A 
HETATM   16  C   UNL     1      39.418 -14.683   1.510  1.00  0.00     0.011 A 
HETATM   17  C   UNL     1      39.025 -14.094   0.306  1.00  0.00     0.037 A 
HETATM   18  C   UNL     1      39.781 -14.264  -0.857  1.00  0.00     0.068 A 
HETATM   19  C   UNL     1      40.943 -15.032  -0.808  1.00  0.00     0.037 A 
HETATM   20  C   UNL     1      41.339 -15.626   0.393  1.00  0.00     0.011 A 
BRANCH  18  21
HETATM   21  O   UNL     1      39.277 -13.645  -1.965  1.00  0.00    -0.356 OA
HETATM   22  C   UNL     1      38.027 -14.120  -2.457  1.00  0.00     0.210 C 
ENDBRANCH  18  21
ENDBRANCH  14  15
ENDBRANCH  12  14
ENDBRANCH   3  12
BRANCH   1  23
HETATM   23  N   UNL     1      44.809 -18.821   6.041  1.00  0.00    -0.277 NA
HETATM   24  H   UNL     1      45.278 -17.950   6.281  1.00  0.00     0.129 HD
BRANCH  23  25
HETATM   25  C   UNL     1      43.960 -19.281   7.142  1.00  0.00     0.093 C 
BRANCH  25  26
HETATM   26  C   UNL     1      44.108 -18.326   8.327  1.00  0.00     0.010 C 
HETATM   27  C   UNL     1      43.330 -17.040   8.107  1.00  0.00     0.006 C 
ENDBRANCH  25  26
ENDBRANCH  23  25
ENDBRANCH   1  23
TORSDOF 7
ENDMDL
MODEL 8
REMARK VINA RESULT:      -7.2      3.095      6.718
REMARK  7 active torsions:
REMARK  status: ('A' for Active; 'I' for Inactive)
REMARK    1  A    between atoms: C_2  and  C_3 
REMARK    2  A    between atoms: C_3  and  N_4 
REMARK    3  A    between atoms: N_4  and  C_5 
REMARK    4  A    between atoms: C_7  and  N_8 
REMARK    5  A    between atoms: N_8  and  C_9 
REMARK    6  A    between atoms: C_9  and  C_10 
REMARK    7  A    between atoms: C_13  and  O_14 
ROOT
HETATM    1  C   UNL     1      40.796 -15.513   3.685  1.00  0.00     0.119 A 
HETATM    2  N   UNL     1      41.197 -16.448   4.568  1.00  0.00    -0.207 NA
HETATM    3  C   UNL     1      41.049 -16.184   5.873  1.00  0.00     0.181 A 
HETATM    4  N   UNL     1      40.548 -15.040   6.328  1.00  0.00    -0.330 N 
HETATM    5  H   UNL     1      40.557 -14.883   7.329  1.00  0.00     0.168 HD
HETATM    6  C   UNL     1      40.088 -14.102   5.495  1.00  0.00     0.048 A 
HETATM    7  C   UNL     1      40.185 -14.312   4.105  1.00  0.00     0.031 A 
HETATM    8  C   UNL     1      39.515 -12.928   6.007  1.00  0.00     0.030 A 
HETATM    9  C   UNL     1      39.020 -11.955   5.139  1.00  0.00     0.002 A 
HETATM   10  C   UNL     1      39.094 -12.149   3.763  1.00  0.00     0.001 A 
HETATM   11  C   UNL     1      39.670 -13.313   3.247  1.00  0.00     0.017 A 
ENDROOT
BRANCH   3  12
HETATM   12  N   UNL     1      41.534 -17.136   6.755  1.00  0.00    -0.258 NA
HETATM   13  H   UNL     1      41.062 -16.941   7.641  1.00  0.00     0.130 HD
BRANCH  12  14
HETATM   14  C   UNL     1      42.981 -17.219   6.945  1.00  0.00     0.134 C 
BRANCH  14  15
HETATM   15  C   UNL     1      43.511 -18.509   6.364  1.00  0.00    -0.045 A 
HETATM   16  C   UNL     1      43.474 -19.699   7.100  1.00  0.00     0.011 A 
HETATM   17  C   UNL     1      44.023 -20.868   6.567  1.00  0.00     0.037 A 
HETATM   18  C   UNL     1      44.596 -20.877   5.293  1.00  0.00     0.068 A 
HETATM   19  C   UNL     1      44.616 -19.700   4.547  1.00  0.00     0.037 A 
HETATM   20  C   UNL     1      44.072 -18.528   5.077  1.00  0.00     0.011 A 
BRANCH  18  21
HETATM   21  O   UNL     1      45.105 -22.082   4.901  1.00  0.00    -0.356 OA
HETATM   22  C   UNL     1      44.610 -22.625   3.681  1.00  0.00     0.210 C 
ENDBRANCH  18  21
ENDBRANCH  14  15
ENDBRANCH  12  14
ENDBRANCH   3  12
BRANCH   1  23
HETATM   23  N   UNL     1      40.950 -15.768   2.313  1.00  0.00    -0.277 NA
HETATM   24  H   UNL     1      40.359 -15.144   1.766  1.00  0.00     0.129 HD
BRANCH  23  25
HETATM   25  C   UNL     1      42.324 -15.769   1.806  1.00  0.00     0.093 C 
BRANCH  25  26
HETATM   26  C   UNL     1      42.700 -17.186   1.368  1.00  0.00     0.010 C 
HETATM   27  C   UNL     1      44.202 -17.407   1.425  1.00  0.00     0.006 C 
ENDBRANCH  25  26
ENDBRANCH  23  25
ENDBRANCH   1  23
TORSDOF 7
ENDMDL
MODEL 9
REMARK VINA RESULT:      -7.1      2.226      4.593
REMARK  7 active torsions:
REMARK  status: ('A' for Active; 'I' for Inactive)
REMARK    1  A    between atoms: C_2  and  C_3 
REMARK    2  A    between atoms: C_3  and  N_4 
REMARK    3  A    between atoms: N_4  and  C_5 
REMARK    4  A    between atoms: C_7  and  N_8 
REMARK    5  A    between atoms: N_8  and  C_9 
REMARK    6  A    between atoms: C_9  and  C_10 
REMARK    7  A    between atoms: C_13  and  O_14 
ROOT
HETATM    1  C   UNL     1      44.101 -18.418   4.193  1.00  0.00     0.119 A 
HETATM    2  N   UNL     1      43.650 -17.657   3.178  1.00  0.00    -0.207 NA
HETATM    3  C   UNL     1      43.441 -18.248   1.995  1.00  0.00     0.181 A 
HETATM    4  N   UNL     1      43.678 -19.538   1.777  1.00  0.00    -0.330 N 
HETATM    5  H   UNL     1      43.582 -19.884   0.830  1.00  0.00     0.168 HD
HETATM    6  C   UNL     1      44.076 -20.348   2.762  1.00  0.00     0.048 A 
HETATM    7  C   UNL     1      44.297 -19.808   4.045  1.00  0.00     0.031 A 
HETATM    8  C   UNL     1      44.267 -21.715   2.514  1.00  0.00     0.030 A 
HETATM    9  C   UNL     1      44.666 -22.564   3.546  1.00  0.00     0.002 A 
HETATM   10  C   UNL     1      44.878 -22.055   4.823  1.00  0.00     0.001 A 
HETATM   11  C   UNL     1      44.697 -20.692   5.075  1.00  0.00     0.017 A 
ENDROOT
BRANCH   3  12
HETATM   12  N   UNL     1      43.044 -17.424   0.954  1.00  0.00    -0.258 NA
HETATM   13  H   UNL     1      43.753 -16.688   0.913  1.00  0.00     0.130 HD
BRANCH  12  14
HETATM   14  C   UNL     1      41.701 -16.848   1.011  1.00  0.00     0.134 C 
BRANCH  14  15
HETATM   15  C   UNL     1      41.771 -15.345   0.872  1.00  0.00    -0.045 A 
HETATM   16  C   UNL     1      41.575 -14.727  -0.368  1.00  0.00     0.011 A 
HETATM   17  C   UNL     1      41.701 -13.341  -0.487  1.00  0.00     0.037 A 
HETATM   18  C   UNL     1      42.004 -12.550   0.624  1.00  0.00     0.068 A 
HETATM   19  C   UNL     1      42.179 -13.158   1.866  1.00  0.00     0.037 A 
HETATM   20  C   UNL     1      42.057 -14.544   1.989  1.00  0.00     0.011 A 
BRANCH  18  21
HETATM   21  O   UNL     1      42.110 -11.214   0.365  1.00  0.00    -0.356 OA
HETATM   22  C   UNL     1      42.813 -10.839  -0.816  1.00  0.00     0.210 C 
ENDBRANCH  18  21
ENDBRANCH  14  15
ENDBRANCH  12  14
ENDBRANCH   3  12
BRANCH   1  23
HETATM   23  N   UNL     1      44.334 -17.815   5.440  1.00  0.00    -0.277 NA
HETATM   24  H   UNL     1      45.332 -17.668   5.583  1.00  0.00     0.129 HD
BRANCH  23  25
HETATM   25  C   UNL     1      43.578 -16.593   5.719  1.00  0.00     0.093 C 
BRANCH  25  26
HETATM   26  C   UNL     1      43.856 -16.143   7.153  1.00  0.00     0.010 C 
HETATM   27  C   UNL     1      43.317 -17.139   8.165  1.00  0.00     0.006 C 
ENDBRANCH  25  26
ENDBRANCH  23  25
ENDBRANCH   1  23
TORSDOF 7
ENDMDL
MODEL 10
REMARK VINA RESULT:      -7.0      2.838      5.224
REMARK  7 active torsions:
REMARK  status: ('A' for Active; 'I' for Inactive)
REMARK    1  A    between atoms: C_2  and  C_3 
REMARK    2  A    between atoms: C_3  and  N_4 
REMARK    3  A    between atoms: N_4  and  C_5 
REMARK    4  A    between atoms: C_7  and  N_8 
REMARK    5  A    between atoms: N_8  and  C_9 
REMARK    6  A    between atoms: C_9  and  C_10 
REMARK    7  A    between atoms: C_13  and  O_14 
ROOT
HETATM    1  C   UNL     1      43.974 -18.290   4.219  1.00  0.00     0.119 A 
HETATM    2  N   UNL     1      43.467 -17.467   3.281  1.00  0.00    -0.207 NA
HETATM    3  C   UNL     1      43.226 -17.975   2.065  1.00  0.00     0.181 A 
HETATM    4  N   UNL     1      43.482 -19.239   1.743  1.00  0.00    -0.330 N 
HETATM    5  H   UNL     1      43.358 -19.517   0.778  1.00  0.00     0.168 HD
HETATM    6  C   UNL     1      43.936 -20.109   2.650  1.00  0.00     0.048 A 
HETATM    7  C   UNL     1      44.195 -19.659   3.961  1.00  0.00     0.031 A 
HETATM    8  C   UNL     1      44.147 -21.449   2.295  1.00  0.00     0.030 A 
HETATM    9  C   UNL     1      44.605 -22.361   3.245  1.00  0.00     0.002 A 
HETATM   10  C   UNL     1      44.855 -21.942   4.548  1.00  0.00     0.001 A 
HETATM   11  C   UNL     1      44.653 -20.606   4.906  1.00  0.00     0.017 A 
ENDROOT
BRANCH   3  12
HETATM   12  N   UNL     1      42.770 -17.087   1.104  1.00  0.00    -0.258 NA
HETATM   13  H   UNL     1      43.467 -17.124   0.357  1.00  0.00     0.130 HD
BRANCH  12  14
HETATM   14  C   UNL     1      42.520 -15.705   1.512  1.00  0.00     0.134 C 
BRANCH  14  15
HETATM   15  C   UNL     1      41.307 -15.161   0.795  1.00  0.00    -0.045 A 
HETATM   16  C   UNL     1      41.350 -14.865  -0.573  1.00  0.00     0.011 A 
HETATM   17  C   UNL     1      40.236 -14.307  -1.204  1.00  0.00     0.037 A 
HETATM   18  C   UNL     1      39.060 -14.053  -0.493  1.00  0.00     0.068 A 
HETATM   19  C   UNL     1      39.004 -14.365   0.864  1.00  0.00     0.037 A 
HETATM   20  C   UNL     1      40.116 -14.920   1.501  1.00  0.00     0.011 A 
BRANCH  18  21
HETATM   21  O   UNL     1      38.054 -13.496  -1.229  1.00  0.00    -0.356 OA
HETATM   22  C   UNL     1      37.906 -13.953  -2.570  1.00  0.00     0.210 C 
ENDBRANCH  18  21
ENDBRANCH  14  15
ENDBRANCH  12  14
ENDBRANCH   3  12
BRANCH   1  23
HETATM   23  N   UNL     1      44.242 -17.774   5.497  1.00  0.00    -0.277 NA
HETATM   24  H   UNL     1      45.243 -17.785   5.683  1.00  0.00     0.129 HD
BRANCH  23  25
HETATM   25  C   UNL     1      43.666 -16.462   5.799  1.00  0.00     0.093 C 
BRANCH  25  26
HETATM   26  C   UNL     1      43.726 -16.219   7.308  1.00  0.00     0.010 C 
HETATM   27  C   UNL     1      43.452 -17.493   8.089  1.00  0.00     0.006 C 
ENDBRANCH  25  26
ENDBRANCH  23  25
ENDBRANCH   1  23
TORSDOF 7
ENDMDL
