MODEL 1
REMARK VINA RESULT:      -8.3      0.000      0.000
REMARK  9 active torsions:
REMARK  status: ('A' for Active; 'I' for Inactive)
REMARK    1  A    between atoms: C_2  and  N_3 
REMARK    2  A    between atoms: N_3  and  C_4 
REMARK    3  A    between atoms: N_3  and  C_34 
REMARK    4  A    between atoms: C_6  and  O_7 
REMARK    5  A    between atoms: C_8  and  C_9 
REMARK    6  A    between atoms: N_10  and  N_11 
REMARK       I    between atoms: N_11  and  C_12 
REMARK    7  A    between atoms: C_12  and  C_13 
REMARK    8  A    between atoms: C_16  and  N_17 
REMARK    9  A    between atoms: C_21  and  C_22 
ROOT
HETATM    1  C   UNL     1      41.512 -13.368   3.027  1.00  0.00     0.033 A 
HETATM    2  C   UNL     1      40.561 -14.174   3.663  1.00  0.00     0.019 A 
HETATM    3  C   UNL     1      40.894 -14.852   4.844  1.00  0.00     0.030 A 
HETATM    4  C   UNL     1      42.175 -14.751   5.413  1.00  0.00     0.034 A 
HETATM    5  C   UNL     1      43.119 -13.959   4.748  1.00  0.00     0.030 A 
HETATM    6  C   UNL     1      42.794 -13.272   3.572  1.00  0.00     0.019 A 
ENDROOT
BRANCH   1   7
HETATM    7  C   UNL     1      41.222 -12.633   1.762  1.00  0.00     0.271 C 
HETATM    8  N   UNL     1      42.058 -12.942   0.692  1.00  0.00    -0.243 N 
HETATM    9  H   UNL     1      42.560 -13.822   0.729  1.00  0.00     0.192 HD
HETATM   10  O   UNL     1      40.272 -11.856   1.735  1.00  0.00    -0.266 OA
BRANCH   8  11
HETATM   11  N   UNL     1      41.901 -12.473  -0.587  1.00  0.00    -0.183 NA
HETATM   12  C   UNL     1      42.724 -11.558  -1.003  1.00  0.00     0.153 C 
BRANCH  12  13
HETATM   13  C   UNL     1      42.590 -10.952  -2.344  1.00  0.00     0.016 A 
HETATM   14  C   UNL     1      42.507 -11.749  -3.481  1.00  0.00     0.079 A 
HETATM   15  C   UNL     1      42.395 -11.166  -4.752  1.00  0.00     0.066 A 
HETATM   16  C   UNL     1      42.369  -9.770  -4.942  1.00  0.00     0.032 A 
HETATM   17  C   UNL     1      42.451  -8.997  -3.769  1.00  0.00     0.030 A 
HETATM   18  C   UNL     1      42.559  -9.568  -2.492  1.00  0.00     0.018 A 
BRANCH  14  19
HETATM   19  O   UNL     1      42.533 -13.112  -3.364  1.00  0.00    -0.360 OA
HETATM   20  H   UNL     1      43.090 -13.359  -2.608  1.00  0.00     0.217 HD
ENDBRANCH  14  19
BRANCH  16  21
HETATM   21  N   UNL     1      42.264  -9.192  -6.204  1.00  0.00    -0.382 N 
BRANCH  21  22
HETATM   22  C   UNL     1      41.554  -9.854  -7.310  1.00  0.00     0.118 C 
HETATM   23  C   UNL     1      40.230  -9.160  -7.596  1.00  0.00     0.026 C 
ENDBRANCH  21  22
BRANCH  21  24
HETATM   24  C   UNL     1      42.797  -7.856  -6.507  1.00  0.00     0.118 C 
HETATM   25  C   UNL     1      44.003  -7.952  -7.431  1.00  0.00     0.026 C 
ENDBRANCH  21  24
ENDBRANCH  16  21
ENDBRANCH  12  13
ENDBRANCH   8  11
ENDBRANCH   1   7
BRANCH   4  26
HETATM   26  N   UNL     1      42.461 -15.502   6.566  1.00  0.00    -0.335 N 
HETATM   27  C   UNL     1      43.000 -16.742   6.654  1.00  0.00     0.171 A 
HETATM   28  S   UNL     1      43.369 -17.385   8.215  1.00  0.00    -0.061 SA
HETATM   29  N   UNL     1      43.260 -17.566   5.665  1.00  0.00    -0.223 NA
HETATM   30  C   UNL     1      43.905 -18.843   7.492  1.00  0.00     0.085 A 
HETATM   31  C   UNL     1      43.770 -18.772   6.121  1.00  0.00     0.076 A 
HETATM   32  H   UNL     1      42.236 -15.042   7.439  1.00  0.00     0.168 HD
BRANCH  31  33
HETATM   33  C   UNL     1      44.103 -19.844   5.179  1.00  0.00    -0.007 A 
HETATM   34  C   UNL     1      44.112 -19.656   3.789  1.00  0.00     0.014 A 
HETATM   35  C   UNL     1      44.444 -20.708   2.928  1.00  0.00     0.001 A 
HETATM   36  C   UNL     1      44.772 -21.960   3.443  1.00  0.00     0.000 A 
HETATM   37  C   UNL     1      44.766 -22.164   4.819  1.00  0.00     0.001 A 
HETATM   38  C   UNL     1      44.434 -21.114   5.679  1.00  0.00     0.014 A 
ENDBRANCH  31  33
ENDBRANCH   4  26
TORSDOF 9
ENDMDL
MODEL 2
REMARK VINA RESULT:      -8.2      4.070      4.711
REMARK  9 active torsions:
REMARK  status: ('A' for Active; 'I' for Inactive)
REMARK    1  A    between atoms: C_2  and  N_3 
REMARK    2  A    between atoms: N_3  and  C_4 
REMARK    3  A    between atoms: N_3  and  C_34 
REMARK    4  A    between atoms: C_6  and  O_7 
REMARK    5  A    between atoms: C_8  and  C_9 
REMARK    6  A    between atoms: N_10  and  N_11 
REMARK       I    between atoms: N_11  and  C_12 
REMARK    7  A    between atoms: C_12  and  C_13 
REMARK    8  A    between atoms: C_16  and  N_17 
REMARK    9  A    between atoms: C_21  and  C_22 
ROOT
HETATM    1  C   UNL     1      40.501 -13.886   2.342  1.00  0.00     0.033 A 
HETATM    2  C   UNL     1      39.967 -14.515   3.472  1.00  0.00     0.019 A 
HETATM    3  C   UNL     1      40.820 -15.008   4.469  1.00  0.00     0.030 A 
HETATM    4  C   UNL     1      42.217 -14.895   4.362  1.00  0.00     0.034 A 
HETATM    5  C   UNL     1      42.732 -14.285   3.213  1.00  0.00     0.030 A 
HETATM    6  C   UNL     1      41.888 -13.782   2.215  1.00  0.00     0.019 A 
ENDROOT
BRANCH   1   7
HETATM    7  C   UNL     1      39.646 -13.353   1.242  1.00  0.00     0.271 C 
HETATM    8  N   UNL     1      39.048 -14.317   0.436  1.00  0.00    -0.243 N 
HETATM    9  H   UNL     1      38.960 -15.255   0.813  1.00  0.00     0.192 HD
HETATM   10  O   UNL     1      39.499 -12.138   1.144  1.00  0.00    -0.266 OA
BRANCH   8  11
HETATM   11  N   UNL     1      38.138 -14.056  -0.557  1.00  0.00    -0.183 NA
HETATM   12  C   UNL     1      38.590 -13.863  -1.759  1.00  0.00     0.153 C 
BRANCH  12  13
HETATM   13  C   UNL     1      37.687 -13.515  -2.876  1.00  0.00     0.016 A 
HETATM   14  C   UNL     1      37.062 -14.509  -3.622  1.00  0.00     0.079 A 
HETATM   15  C   UNL     1      36.217 -14.171  -4.690  1.00  0.00     0.066 A 
HETATM   16  C   UNL     1      35.970 -12.834  -5.063  1.00  0.00     0.032 A 
HETATM   17  C   UNL     1      36.618 -11.858  -4.283  1.00  0.00     0.030 A 
HETATM   18  C   UNL     1      37.461 -12.183  -3.210  1.00  0.00     0.018 A 
BRANCH  14  19
HETATM   19  O   UNL     1      37.265 -15.826  -3.314  1.00  0.00    -0.360 OA
HETATM   20  H   UNL     1      38.002 -15.899  -2.687  1.00  0.00     0.217 HD
ENDBRANCH  14  19
BRANCH  16  21
HETATM   21  N   UNL     1      35.137 -12.500  -6.127  1.00  0.00    -0.382 N 
BRANCH  21  22
HETATM   22  C   UNL     1      33.980 -11.606  -5.964  1.00  0.00     0.118 C 
HETATM   23  C   UNL     1      33.032 -12.138  -4.898  1.00  0.00     0.026 C 
ENDBRANCH  21  22
BRANCH  21  24
HETATM   24  C   UNL     1      35.388 -12.963  -7.500  1.00  0.00     0.118 C 
HETATM   25  C   UNL     1      34.325 -12.434  -8.451  1.00  0.00     0.026 C 
ENDBRANCH  21  24
ENDBRANCH  16  21
ENDBRANCH  12  13
ENDBRANCH   8  11
ENDBRANCH   1   7
BRANCH   4  26
HETATM   26  N   UNL     1      43.017 -15.462   5.369  1.00  0.00    -0.335 N 
HETATM   27  C   UNL     1      43.649 -16.661   5.371  1.00  0.00     0.171 A 
HETATM   28  S   UNL     1      44.684 -17.059   6.696  1.00  0.00    -0.061 SA
HETATM   29  N   UNL     1      43.545 -17.613   4.472  1.00  0.00    -0.223 NA
HETATM   30  C   UNL     1      44.995 -18.593   5.997  1.00  0.00     0.085 A 
HETATM   31  C   UNL     1      44.299 -18.727   4.813  1.00  0.00     0.076 A 
HETATM   32  H   UNL     1      43.135 -14.886   6.192  1.00  0.00     0.168 HD
BRANCH  31  33
HETATM   33  C   UNL     1      44.302 -19.915   3.957  1.00  0.00    -0.007 A 
HETATM   34  C   UNL     1      44.726 -21.174   4.407  1.00  0.00     0.014 A 
HETATM   35  C   UNL     1      44.703 -22.283   3.554  1.00  0.00     0.001 A 
HETATM   36  C   UNL     1      44.259 -22.149   2.241  1.00  0.00     0.000 A 
HETATM   37  C   UNL     1      43.837 -20.907   1.777  1.00  0.00     0.001 A 
HETATM   38  C   UNL     1      43.859 -19.800   2.628  1.00  0.00     0.014 A 
ENDBRANCH  31  33
ENDBRANCH   4  26
TORSDOF 9
ENDMDL
MODEL 3
REMARK VINA RESULT:      -8.0      6.412     13.040
REMARK  9 active torsions:
REMARK  status: ('A' for Active; 'I' for Inactive)
REMARK    1  A    between atoms: C_2  and  N_3 
REMARK    2  A    between atoms: N_3  and  C_4 
REMARK    3  A    between atoms: N_3  and  C_34 
REMARK    4  A    between atoms: C_6  and  O_7 
REMARK    5  A    between atoms: C_8  and  C_9 
REMARK    6  A    between atoms: N_10  and  N_11 
REMARK       I    between atoms: N_11  and  C_12 
REMARK    7  A    between atoms: C_12  and  C_13 
REMARK    8  A    between atoms: C_16  and  N_17 
REMARK    9  A    between atoms: C_21  and  C_22 
ROOT
HETATM    1  C   UNL     1      39.632 -13.340  -1.655  1.00  0.00     0.033 A 
HETATM    2  C   UNL     1      39.831 -12.167  -2.392  1.00  0.00     0.019 A 
HETATM    3  C   UNL     1      38.971 -11.851  -3.453  1.00  0.00     0.030 A 
HETATM    4  C   UNL     1      37.905 -12.694  -3.811  1.00  0.00     0.034 A 
HETATM    5  C   UNL     1      37.738 -13.875  -3.078  1.00  0.00     0.030 A 
HETATM    6  C   UNL     1      38.587 -14.195  -2.011  1.00  0.00     0.019 A 
ENDROOT
BRANCH   1   7
HETATM    7  C   UNL     1      40.521 -13.737  -0.525  1.00  0.00     0.271 C 
HETATM    8  N   UNL     1      40.200 -14.946   0.085  1.00  0.00    -0.243 N 
HETATM    9  H   UNL     1      39.634 -15.602  -0.443  1.00  0.00     0.192 HD
HETATM   10  O   UNL     1      41.470 -13.013  -0.238  1.00  0.00    -0.266 OA
BRANCH   8  11
HETATM   11  N   UNL     1      40.945 -15.554   1.063  1.00  0.00    -0.183 NA
HETATM   12  C   UNL     1      41.357 -16.767   0.845  1.00  0.00     0.153 C 
BRANCH  12  13
HETATM   13  C   UNL     1      42.112 -17.520   1.869  1.00  0.00     0.016 A 
HETATM   14  C   UNL     1      41.658 -17.589   3.181  1.00  0.00     0.079 A 
HETATM   15  C   UNL     1      42.389 -18.295   4.150  1.00  0.00     0.066 A 
HETATM   16  C   UNL     1      43.600 -18.950   3.852  1.00  0.00     0.032 A 
HETATM   17  C   UNL     1      44.025 -18.860   2.514  1.00  0.00     0.030 A 
HETATM   18  C   UNL     1      43.302 -18.162   1.535  1.00  0.00     0.018 A 
BRANCH  14  19
HETATM   19  O   UNL     1      40.491 -16.969   3.536  1.00  0.00    -0.360 OA
HETATM   20  H   UNL     1      40.366 -17.045   4.496  1.00  0.00     0.217 HD
ENDBRANCH  14  19
BRANCH  16  21
HETATM   21  N   UNL     1      44.327 -19.643   4.816  1.00  0.00    -0.382 N 
BRANCH  21  22
HETATM   22  C   UNL     1      45.162 -20.807   4.477  1.00  0.00     0.118 C 
HETATM   23  C   UNL     1      44.794 -22.006   5.339  1.00  0.00     0.026 C 
ENDBRANCH  21  22
BRANCH  21  24
HETATM   24  C   UNL     1      44.365 -19.228   6.226  1.00  0.00     0.118 C 
HETATM   25  C   UNL     1      45.292 -18.035   6.413  1.00  0.00     0.026 C 
ENDBRANCH  21  24
ENDBRANCH  16  21
ENDBRANCH  12  13
ENDBRANCH   8  11
ENDBRANCH   1   7
BRANCH   4  26
HETATM   26  N   UNL     1      37.116 -12.347  -4.921  1.00  0.00    -0.335 N 
HETATM   27  C   UNL     1      35.806 -12.005  -4.952  1.00  0.00     0.171 A 
HETATM   28  S   UNL     1      35.111 -11.492  -6.449  1.00  0.00    -0.061 SA
HETATM   29  N   UNL     1      34.952 -12.046  -3.956  1.00  0.00    -0.223 NA
HETATM   30  C   UNL     1      33.585 -11.322  -5.687  1.00  0.00     0.085 A 
HETATM   31  C   UNL     1      33.678 -11.667  -4.354  1.00  0.00     0.076 A 
HETATM   32  H   UNL     1      37.606 -12.349  -5.806  1.00  0.00     0.168 HD
BRANCH  31  33
HETATM   33  C   UNL     1      32.567 -11.669  -3.399  1.00  0.00    -0.007 A 
HETATM   34  C   UNL     1      31.506 -12.584  -3.471  1.00  0.00     0.014 A 
HETATM   35  C   UNL     1      30.471 -12.553  -2.530  1.00  0.00     0.001 A 
HETATM   36  C   UNL     1      30.481 -11.609  -1.506  1.00  0.00     0.000 A 
HETATM   37  C   UNL     1      31.525 -10.693  -1.421  1.00  0.00     0.001 A 
HETATM   38  C   UNL     1      32.559 -10.724  -2.360  1.00  0.00     0.014 A 
ENDBRANCH  31  33
ENDBRANCH   4  26
TORSDOF 9
ENDMDL
MODEL 4
REMARK VINA RESULT:      -7.8      5.980     12.618
REMARK  9 active torsions:
REMARK  status: ('A' for Active; 'I' for Inactive)
REMARK    1  A    between atoms: C_2  and  N_3 
REMARK    2  A    between atoms: N_3  and  C_4 
REMARK    3  A    between atoms: N_3  and  C_34 
REMARK    4  A    between atoms: C_6  and  O_7 
REMARK    5  A    between atoms: C_8  and  C_9 
REMARK    6  A    between atoms: N_10  and  N_11 
REMARK       I    between atoms: N_11  and  C_12 
REMARK    7  A    between atoms: C_12  and  C_13 
REMARK    8  A    between atoms: C_16  and  N_17 
REMARK    9  A    between atoms: C_21  and  C_22 
ROOT
HETATM    1  C   UNL     1      39.533 -14.381  -2.981  1.00  0.00     0.033 A 
HETATM    2  C   UNL     1      38.301 -14.878  -3.420  1.00  0.00     0.019 A 
HETATM    3  C   UNL     1      37.354 -14.010  -3.979  1.00  0.00     0.030 A 
HETATM    4  C   UNL     1      37.604 -12.633  -4.108  1.00  0.00     0.034 A 
HETATM    5  C   UNL     1      38.833 -12.151  -3.640  1.00  0.00     0.030 A 
HETATM    6  C   UNL     1      39.789 -13.011  -3.087  1.00  0.00     0.019 A 
ENDROOT
BRANCH   1   7
HETATM    7  C   UNL     1      40.576 -15.252  -2.365  1.00  0.00     0.271 C 
HETATM    8  N   UNL     1      40.484 -15.401  -0.984  1.00  0.00    -0.243 N 
HETATM    9  H   UNL     1      39.589 -15.201  -0.550  1.00  0.00     0.192 HD
HETATM   10  O   UNL     1      41.400 -15.794  -3.096  1.00  0.00    -0.266 OA
BRANCH   8  11
HETATM   11  N   UNL     1      41.264 -16.241  -0.231  1.00  0.00    -0.183 NA
HETATM   12  C   UNL     1      41.011 -16.327   1.040  1.00  0.00     0.153 C 
BRANCH  12  13
HETATM   13  C   UNL     1      41.840 -17.160   1.937  1.00  0.00     0.016 A 
HETATM   14  C   UNL     1      41.522 -17.289   3.285  1.00  0.00     0.079 A 
HETATM   15  C   UNL     1      42.322 -18.070   4.133  1.00  0.00     0.066 A 
HETATM   16  C   UNL     1      43.472 -18.744   3.675  1.00  0.00     0.032 A 
HETATM   17  C   UNL     1      43.759 -18.593   2.306  1.00  0.00     0.030 A 
HETATM   18  C   UNL     1      42.965 -17.818   1.447  1.00  0.00     0.018 A 
BRANCH  14  19
HETATM   19  O   UNL     1      40.421 -16.654   3.792  1.00  0.00    -0.360 OA
HETATM   20  H   UNL     1      40.705 -15.887   4.315  1.00  0.00     0.217 HD
ENDBRANCH  14  19
BRANCH  16  21
HETATM   21  N   UNL     1      44.268 -19.513   4.519  1.00  0.00    -0.382 N 
BRANCH  21  22
HETATM   22  C   UNL     1      45.126 -20.595   4.012  1.00  0.00     0.118 C 
HETATM   23  C   UNL     1      44.883 -21.885   4.783  1.00  0.00     0.026 C 
ENDBRANCH  21  22
BRANCH  21  24
HETATM   24  C   UNL     1      44.359 -19.260   5.965  1.00  0.00     0.118 C 
HETATM   25  C   UNL     1      45.334 -18.127   6.254  1.00  0.00     0.026 C 
ENDBRANCH  21  24
ENDBRANCH  16  21
ENDBRANCH  12  13
ENDBRANCH   8  11
ENDBRANCH   1   7
BRANCH   4  26
HETATM   26  N   UNL     1      36.589 -11.810  -4.624  1.00  0.00    -0.335 N 
HETATM   27  C   UNL     1      35.612 -11.154  -3.954  1.00  0.00     0.171 A 
HETATM   28  S   UNL     1      34.563 -10.095  -4.829  1.00  0.00    -0.061 SA
HETATM   29  N   UNL     1      35.325 -11.248  -2.676  1.00  0.00    -0.223 NA
HETATM   30  C   UNL     1      33.693  -9.760  -3.391  1.00  0.00     0.085 A 
HETATM   31  C   UNL     1      34.230 -10.468  -2.335  1.00  0.00     0.076 A 
HETATM   32  H   UNL     1      36.607 -11.693  -5.629  1.00  0.00     0.168 HD
BRANCH  31  33
HETATM   33  C   UNL     1      33.728 -10.450  -0.959  1.00  0.00    -0.007 A 
HETATM   34  C   UNL     1      32.361 -10.382  -0.651  1.00  0.00     0.014 A 
HETATM   35  C   UNL     1      31.927 -10.377   0.679  1.00  0.00     0.001 A 
HETATM   36  C   UNL     1      32.852 -10.439   1.719  1.00  0.00     0.000 A 
HETATM   37  C   UNL     1      34.212 -10.505   1.432  1.00  0.00     0.001 A 
HETATM   38  C   UNL     1      34.645 -10.510   0.104  1.00  0.00     0.014 A 
ENDBRANCH  31  33
ENDBRANCH   4  26
TORSDOF 9
ENDMDL
MODEL 5
REMARK VINA RESULT:      -7.4      4.408     12.782
REMARK  9 active torsions:
REMARK  status: ('A' for Active; 'I' for Inactive)
REMARK    1  A    between atoms: C_2  and  N_3 
REMARK    2  A    between atoms: N_3  and  C_4 
REMARK    3  A    between atoms: N_3  and  C_34 
REMARK    4  A    between atoms: C_6  and  O_7 
REMARK    5  A    between atoms: C_8  and  C_9 
REMARK    6  A    between atoms: N_10  and  N_11 
REMARK       I    between atoms: N_11  and  C_12 
REMARK    7  A    between atoms: C_12  and  C_13 
REMARK    8  A    between atoms: C_16  and  N_17 
REMARK    9  A    between atoms: C_21  and  C_22 
ROOT
HETATM    1  C   UNL     1      38.322 -13.644  -0.799  1.00  0.00     0.033 A 
HETATM    2  C   UNL     1      37.784 -12.362  -0.637  1.00  0.00     0.019 A 
HETATM    3  C   UNL     1      37.219 -11.695  -1.732  1.00  0.00     0.030 A 
HETATM    4  C   UNL     1      37.182 -12.280  -3.010  1.00  0.00     0.034 A 
HETATM    5  C   UNL     1      37.749 -13.551  -3.157  1.00  0.00     0.030 A 
HETATM    6  C   UNL     1      38.309 -14.229  -2.067  1.00  0.00     0.019 A 
ENDROOT
BRANCH   1   7
HETATM    7  C   UNL     1      38.950 -14.398   0.324  1.00  0.00     0.271 C 
HETATM    8  N   UNL     1      40.244 -14.850   0.085  1.00  0.00    -0.243 N 
HETATM    9  H   UNL     1      40.773 -14.390  -0.648  1.00  0.00     0.192 HD
HETATM   10  O   UNL     1      38.318 -14.536   1.368  1.00  0.00    -0.266 OA
BRANCH   8  11
HETATM   11  N   UNL     1      41.046 -15.462   1.015  1.00  0.00    -0.183 NA
HETATM   12  C   UNL     1      41.205 -16.748   0.926  1.00  0.00     0.153 C 
BRANCH  12  13
HETATM   13  C   UNL     1      42.002 -17.498   1.920  1.00  0.00     0.016 A 
HETATM   14  C   UNL     1      41.630 -17.518   3.261  1.00  0.00     0.079 A 
HETATM   15  C   UNL     1      42.399 -18.220   4.201  1.00  0.00     0.066 A 
HETATM   16  C   UNL     1      43.569 -18.920   3.847  1.00  0.00     0.032 A 
HETATM   17  C   UNL     1      43.911 -18.880   2.482  1.00  0.00     0.030 A 
HETATM   18  C   UNL     1      43.148 -18.185   1.531  1.00  0.00     0.018 A 
BRANCH  14  19
HETATM   19  O   UNL     1      40.507 -16.852   3.670  1.00  0.00    -0.360 OA
HETATM   20  H   UNL     1      39.731 -17.224   3.219  1.00  0.00     0.217 HD
ENDBRANCH  14  19
BRANCH  16  21
HETATM   21  N   UNL     1      44.335 -19.611   4.783  1.00  0.00    -0.382 N 
BRANCH  21  22
HETATM   22  C   UNL     1      44.341 -19.247   6.208  1.00  0.00     0.118 C 
HETATM   23  C   UNL     1      45.237 -18.042   6.454  1.00  0.00     0.026 C 
ENDBRANCH  21  22
BRANCH  21  24
HETATM   24  C   UNL     1      45.139 -20.789   4.428  1.00  0.00     0.118 C 
HETATM   25  C   UNL     1      44.778 -21.975   5.311  1.00  0.00     0.026 C 
ENDBRANCH  21  24
ENDBRANCH  16  21
ENDBRANCH  12  13
ENDBRANCH   8  11
ENDBRANCH   1   7
BRANCH   4  26
HETATM   26  N   UNL     1      36.653 -11.533  -4.076  1.00  0.00    -0.335 N 
HETATM   27  C   UNL     1      37.316 -10.810  -5.011  1.00  0.00     0.171 A 
HETATM   28  S   UNL     1      36.420 -10.089  -6.301  1.00  0.00    -0.061 SA
HETATM   29  N   UNL     1      38.602 -10.549  -5.047  1.00  0.00    -0.223 NA
HETATM   30  C   UNL     1      37.861  -9.400  -6.922  1.00  0.00     0.085 A 
HETATM   31  C   UNL     1      38.934  -9.740  -6.124  1.00  0.00     0.076 A 
HETATM   32  H   UNL     1      35.645 -11.553  -4.149  1.00  0.00     0.168 HD
BRANCH  31  33
HETATM   33  C   UNL     1      40.317  -9.308  -6.333  1.00  0.00    -0.007 A 
HETATM   34  C   UNL     1      40.910  -9.248  -7.603  1.00  0.00     0.014 A 
HETATM   35  C   UNL     1      42.234  -8.821  -7.755  1.00  0.00     0.001 A 
HETATM   36  C   UNL     1      42.983  -8.447  -6.641  1.00  0.00     0.000 A 
HETATM   37  C   UNL     1      42.411  -8.502  -5.374  1.00  0.00     0.001 A 
HETATM   38  C   UNL     1      41.090  -8.929  -5.223  1.00  0.00     0.014 A 
ENDBRANCH  31  33
ENDBRANCH   4  26
TORSDOF 9
ENDMDL
MODEL 6
REMARK VINA RESULT:      -7.4      4.336      5.007
REMARK  9 active torsions:
REMARK  status: ('A' for Active; 'I' for Inactive)
REMARK    1  A    between atoms: C_2  and  N_3 
REMARK    2  A    between atoms: N_3  and  C_4 
REMARK    3  A    between atoms: N_3  and  C_34 
REMARK    4  A    between atoms: C_6  and  O_7 
REMARK    5  A    between atoms: C_8  and  C_9 
REMARK    6  A    between atoms: N_10  and  N_11 
REMARK       I    between atoms: N_11  and  C_12 
REMARK    7  A    between atoms: C_12  and  C_13 
REMARK    8  A    between atoms: C_16  and  N_17 
REMARK    9  A    between atoms: C_21  and  C_22 
ROOT
HETATM    1  C   UNL     1      40.871 -14.408   0.982  1.00  0.00     0.033 A 
HETATM    2  C   UNL     1      42.081 -13.829   1.379  1.00  0.00     0.019 A 
HETATM    3  C   UNL     1      42.685 -14.222   2.581  1.00  0.00     0.030 A 
HETATM    4  C   UNL     1      42.100 -15.188   3.417  1.00  0.00     0.034 A 
HETATM    5  C   UNL     1      40.877 -15.737   3.014  1.00  0.00     0.030 A 
HETATM    6  C   UNL     1      40.269 -15.357   1.812  1.00  0.00     0.019 A 
ENDROOT
BRANCH   1   7
HETATM    7  C   UNL     1      40.172 -14.022  -0.278  1.00  0.00     0.271 C 
HETATM    8  N   UNL     1      38.829 -14.380  -0.345  1.00  0.00    -0.243 N 
HETATM    9  H   UNL     1      38.349 -14.566   0.530  1.00  0.00     0.192 HD
HETATM   10  O   UNL     1      40.797 -13.401  -1.132  1.00  0.00    -0.266 OA
BRANCH   8  11
HETATM   11  N   UNL     1      37.972 -14.026  -1.356  1.00  0.00    -0.183 NA
HETATM   12  C   UNL     1      37.855 -12.763  -1.637  1.00  0.00     0.153 C 
BRANCH  12  13
HETATM   13  C   UNL     1      36.909 -12.287  -2.669  1.00  0.00     0.016 A 
HETATM   14  C   UNL     1      36.872 -12.877  -3.928  1.00  0.00     0.079 A 
HETATM   15  C   UNL     1      35.981 -12.411  -4.906  1.00  0.00     0.066 A 
HETATM   16  C   UNL     1      35.100 -11.335  -4.673  1.00  0.00     0.032 A 
HETATM   17  C   UNL     1      35.165 -10.767  -3.387  1.00  0.00     0.030 A 
HETATM   18  C   UNL     1      36.048 -11.227  -2.399  1.00  0.00     0.018 A 
BRANCH  14  19
HETATM   19  O   UNL     1      37.706 -13.922  -4.219  1.00  0.00    -0.360 OA
HETATM   20  H   UNL     1      37.854 -13.958  -5.178  1.00  0.00     0.217 HD
ENDBRANCH  14  19
BRANCH  16  21
HETATM   21  N   UNL     1      34.222 -10.869  -5.647  1.00  0.00    -0.382 N 
BRANCH  21  22
HETATM   22  C   UNL     1      34.541 -10.932  -7.082  1.00  0.00     0.118 C 
HETATM   23  C   UNL     1      33.564 -11.840  -7.814  1.00  0.00     0.026 C 
ENDBRANCH  21  22
BRANCH  21  24
HETATM   24  C   UNL     1      32.890 -10.340  -5.319  1.00  0.00     0.118 C 
HETATM   25  C   UNL     1      32.008 -11.429  -4.726  1.00  0.00     0.026 C 
ENDBRANCH  21  24
ENDBRANCH  16  21
ENDBRANCH  12  13
ENDBRANCH   8  11
ENDBRANCH   1   7
BRANCH   4  26
HETATM   26  N   UNL     1      42.729 -15.494   4.636  1.00  0.00    -0.335 N 
HETATM   27  C   UNL     1      43.380 -16.629   4.989  1.00  0.00     0.171 A 
HETATM   28  S   UNL     1      44.182 -16.692   6.518  1.00  0.00    -0.061 SA
HETATM   29  N   UNL     1      43.454 -17.746   4.303  1.00  0.00    -0.223 NA
HETATM   30  C   UNL     1      44.645 -18.313   6.213  1.00  0.00     0.085 A 
HETATM   31  C   UNL     1      44.165 -18.722   4.985  1.00  0.00     0.076 A 
HETATM   32  H   UNL     1      42.691 -14.758   5.329  1.00  0.00     0.168 HD
BRANCH  31  33
HETATM   33  C   UNL     1      44.344 -20.055   4.406  1.00  0.00    -0.007 A 
HETATM   34  C   UNL     1      44.170 -20.318   3.039  1.00  0.00     0.014 A 
HETATM   35  C   UNL     1      44.360 -21.607   2.530  1.00  0.00     0.001 A 
HETATM   36  C   UNL     1      44.725 -22.651   3.377  1.00  0.00     0.000 A 
HETATM   37  C   UNL     1      44.900 -22.408   4.736  1.00  0.00     0.001 A 
HETATM   38  C   UNL     1      44.710 -21.121   5.245  1.00  0.00     0.014 A 
ENDBRANCH  31  33
ENDBRANCH   4  26
TORSDOF 9
ENDMDL
MODEL 7
REMARK VINA RESULT:      -7.2      3.897      4.586
REMARK  9 active torsions:
REMARK  status: ('A' for Active; 'I' for Inactive)
REMARK    1  A    between atoms: C_2  and  N_3 
REMARK    2  A    between atoms: N_3  and  C_4 
REMARK    3  A    between atoms: N_3  and  C_34 
REMARK    4  A    between atoms: C_6  and  O_7 
REMARK    5  A    between atoms: C_8  and  C_9 
REMARK    6  A    between atoms: N_10  and  N_11 
REMARK       I    between atoms: N_11  and  C_12 
REMARK    7  A    between atoms: C_12  and  C_13 
REMARK    8  A    between atoms: C_16  and  N_17 
REMARK    9  A    between atoms: C_21  and  C_22 
ROOT
HETATM    1  C   UNL     1      40.216 -13.699   3.173  1.00  0.00     0.033 A 
HETATM    2  C   UNL     1      39.775 -14.274   4.370  1.00  0.00     0.019 A 
HETATM    3  C   UNL     1      40.700 -14.842   5.258  1.00  0.00     0.030 A 
HETATM    4  C   UNL     1      42.076 -14.859   4.973  1.00  0.00     0.034 A 
HETATM    5  C   UNL     1      42.494 -14.301   3.760  1.00  0.00     0.030 A 
HETATM    6  C   UNL     1      41.580 -13.724   2.870  1.00  0.00     0.019 A 
ENDROOT
BRANCH   1   7
HETATM    7  C   UNL     1      39.280 -13.092   2.183  1.00  0.00     0.271 C 
HETATM    8  N   UNL     1      38.996 -13.883   1.074  1.00  0.00    -0.243 N 
HETATM    9  H   UNL     1      39.159 -14.881   1.155  1.00  0.00     0.192 HD
HETATM   10  O   UNL     1      38.807 -11.984   2.420  1.00  0.00    -0.266 OA
BRANCH   8  11
HETATM   11  N   UNL     1      38.079 -13.572   0.102  1.00  0.00    -0.183 NA
HETATM   12  C   UNL     1      38.521 -13.067  -1.010  1.00  0.00     0.153 C 
BRANCH  12  13
HETATM   13  C   UNL     1      37.599 -12.645  -2.086  1.00  0.00     0.016 A 
HETATM   14  C   UNL     1      36.878 -11.460  -1.982  1.00  0.00     0.079 A 
HETATM   15  C   UNL     1      35.994 -11.074  -3.001  1.00  0.00     0.066 A 
HETATM   16  C   UNL     1      35.787 -11.854  -4.156  1.00  0.00     0.032 A 
HETATM   17  C   UNL     1      36.536 -13.044  -4.227  1.00  0.00     0.030 A 
HETATM   18  C   UNL     1      37.427 -13.439  -3.217  1.00  0.00     0.018 A 
BRANCH  14  19
HETATM   19  O   UNL     1      37.030 -10.661  -0.882  1.00  0.00    -0.360 OA
HETATM   20  H   UNL     1      36.172 -10.560  -0.438  1.00  0.00     0.217 HD
ENDBRANCH  14  19
BRANCH  16  21
HETATM   21  N   UNL     1      34.905 -11.473  -5.164  1.00  0.00    -0.382 N 
BRANCH  21  22
HETATM   22  C   UNL     1      33.662 -10.740  -4.877  1.00  0.00     0.118 C 
HETATM   23  C   UNL     1      32.448 -11.526  -5.350  1.00  0.00     0.026 C 
ENDBRANCH  21  22
BRANCH  21  24
HETATM   24  C   UNL     1      35.180 -11.717  -6.587  1.00  0.00     0.118 C 
HETATM   25  C   UNL     1      36.252 -10.766  -7.101  1.00  0.00     0.026 C 
ENDBRANCH  21  24
ENDBRANCH  16  21
ENDBRANCH  12  13
ENDBRANCH   8  11
ENDBRANCH   1   7
BRANCH   4  26
HETATM   26  N   UNL     1      42.942 -15.495   5.879  1.00  0.00    -0.335 N 
HETATM   27  C   UNL     1      43.593 -16.675   5.737  1.00  0.00     0.171 A 
HETATM   28  S   UNL     1      44.710 -17.167   6.961  1.00  0.00    -0.061 SA
HETATM   29  N   UNL     1      43.454 -17.546   4.764  1.00  0.00    -0.223 NA
HETATM   30  C   UNL     1      45.006 -18.625   6.111  1.00  0.00     0.085 A 
HETATM   31  C   UNL     1      44.245 -18.668   4.961  1.00  0.00     0.076 A 
HETATM   32  H   UNL     1      43.098 -14.992   6.742  1.00  0.00     0.168 HD
BRANCH  31  33
HETATM   33  C   UNL     1      44.219 -19.775   4.002  1.00  0.00    -0.007 A 
HETATM   34  C   UNL     1      44.708 -21.054   4.305  1.00  0.00     0.014 A 
HETATM   35  C   UNL     1      44.654 -22.083   3.360  1.00  0.00     0.001 A 
HETATM   36  C   UNL     1      44.112 -21.850   2.098  1.00  0.00     0.000 A 
HETATM   37  C   UNL     1      43.623 -20.586   1.779  1.00  0.00     0.001 A 
HETATM   38  C   UNL     1      43.677 -19.559   2.724  1.00  0.00     0.014 A 
ENDBRANCH  31  33
ENDBRANCH   4  26
TORSDOF 9
ENDMDL
MODEL 8
REMARK VINA RESULT:      -7.2      6.297     12.711
REMARK  9 active torsions:
REMARK  status: ('A' for Active; 'I' for Inactive)
REMARK    1  A    between atoms: C_2  and  N_3 
REMARK    2  A    between atoms: N_3  and  C_4 
REMARK    3  A    between atoms: N_3  and  C_34 
REMARK    4  A    between atoms: C_6  and  O_7 
REMARK    5  A    between atoms: C_8  and  C_9 
REMARK    6  A    between atoms: N_10  and  N_11 
REMARK       I    between atoms: N_11  and  C_12 
REMARK    7  A    between atoms: C_12  and  C_13 
REMARK    8  A    between atoms: C_16  and  N_17 
REMARK    9  A    between atoms: C_21  and  C_22 
ROOT
HETATM    1  C   UNL     1      39.178 -13.627  -1.647  1.00  0.00     0.033 A 
HETATM    2  C   UNL     1      38.162 -13.993  -2.537  1.00  0.00     0.019 A 
HETATM    3  C   UNL     1      37.369 -13.008  -3.141  1.00  0.00     0.030 A 
HETATM    4  C   UNL     1      37.562 -11.642  -2.869  1.00  0.00     0.034 A 
HETATM    5  C   UNL     1      38.566 -11.298  -1.957  1.00  0.00     0.030 A 
HETATM    6  C   UNL     1      39.368 -12.274  -1.355  1.00  0.00     0.019 A 
ENDROOT
BRANCH   1   7
HETATM    7  C   UNL     1      40.044 -14.630  -0.963  1.00  0.00     0.271 C 
HETATM    8  N   UNL     1      39.694 -14.916   0.354  1.00  0.00    -0.243 N 
HETATM    9  H   UNL     1      38.747 -14.700   0.644  1.00  0.00     0.192 HD
HETATM   10  O   UNL     1      40.959 -15.149  -1.596  1.00  0.00    -0.266 OA
BRANCH   8  11
HETATM   11  N   UNL     1      40.280 -15.885   1.129  1.00  0.00    -0.183 NA
HETATM   12  C   UNL     1      41.466 -15.647   1.602  1.00  0.00     0.153 C 
BRANCH  12  13
HETATM   13  C   UNL     1      42.197 -16.659   2.395  1.00  0.00     0.016 A 
HETATM   14  C   UNL     1      41.671 -17.146   3.586  1.00  0.00     0.079 A 
HETATM   15  C   UNL     1      42.377 -18.095   4.340  1.00  0.00     0.066 A 
HETATM   16  C   UNL     1      43.636 -18.589   3.943  1.00  0.00     0.032 A 
HETATM   17  C   UNL     1      44.134 -18.075   2.731  1.00  0.00     0.030 A 
HETATM   18  C   UNL     1      43.435 -17.130   1.965  1.00  0.00     0.018 A 
BRANCH  14  19
HETATM   19  O   UNL     1      40.455 -16.701   4.030  1.00  0.00    -0.360 OA
HETATM   20  H   UNL     1      40.267 -17.095   4.897  1.00  0.00     0.217 HD
ENDBRANCH  14  19
BRANCH  16  21
HETATM   21  N   UNL     1      44.339 -19.526   4.695  1.00  0.00    -0.382 N 
BRANCH  21  22
HETATM   22  C   UNL     1      44.473 -19.413   6.156  1.00  0.00     0.118 C 
HETATM   23  C   UNL     1      45.291 -18.185   6.530  1.00  0.00     0.026 C 
ENDBRANCH  21  22
BRANCH  21  24
HETATM   24  C   UNL     1      44.941 -20.726   4.097  1.00  0.00     0.118 C 
HETATM   25  C   UNL     1      44.923 -21.888   5.080  1.00  0.00     0.026 C 
ENDBRANCH  21  24
ENDBRANCH  16  21
ENDBRANCH  12  13
ENDBRANCH   8  11
ENDBRANCH   1   7
BRANCH   4  26
HETATM   26  N   UNL     1      36.695 -10.709  -3.464  1.00  0.00    -0.335 N 
HETATM   27  C   UNL     1      35.524 -10.223  -2.988  1.00  0.00     0.171 A 
HETATM   28  S   UNL     1      34.716  -8.975  -3.870  1.00  0.00    -0.061 SA
HETATM   29  N   UNL     1      34.879 -10.616  -1.914  1.00  0.00    -0.223 NA
HETATM   30  C   UNL     1      33.441  -8.985  -2.725  1.00  0.00     0.085 A 
HETATM   31  C   UNL     1      33.686  -9.929  -1.749  1.00  0.00     0.076 A 
HETATM   32  H   UNL     1      37.001 -10.357  -4.361  1.00  0.00     0.168 HD
BRANCH  31  33
HETATM   33  C   UNL     1      32.799 -10.235  -0.624  1.00  0.00    -0.007 A 
HETATM   34  C   UNL     1      31.415 -10.409  -0.773  1.00  0.00     0.014 A 
HETATM   35  C   UNL     1      30.609 -10.709   0.330  1.00  0.00     0.001 A 
HETATM   36  C   UNL     1      31.173 -10.839   1.597  1.00  0.00     0.000 A 
HETATM   37  C   UNL     1      32.544 -10.669   1.764  1.00  0.00     0.001 A 
HETATM   38  C   UNL     1      33.349 -10.369   0.662  1.00  0.00     0.014 A 
ENDBRANCH  31  33
ENDBRANCH   4  26
TORSDOF 9
ENDMDL
MODEL 9
REMARK VINA RESULT:      -7.2      4.733      5.761
REMARK  9 active torsions:
REMARK  status: ('A' for Active; 'I' for Inactive)
REMARK    1  A    between atoms: C_2  and  N_3 
REMARK    2  A    between atoms: N_3  and  C_4 
REMARK    3  A    between atoms: N_3  and  C_34 
REMARK    4  A    between atoms: C_6  and  O_7 
REMARK    5  A    between atoms: C_8  and  C_9 
REMARK    6  A    between atoms: N_10  and  N_11 
REMARK       I    between atoms: N_11  and  C_12 
REMARK    7  A    between atoms: C_12  and  C_13 
REMARK    8  A    between atoms: C_16  and  N_17 
REMARK    9  A    between atoms: C_21  and  C_22 
ROOT
HETATM    1  C   UNL     1      40.782 -13.025   3.077  1.00  0.00     0.033 A 
HETATM    2  C   UNL     1      42.161 -12.881   3.267  1.00  0.00     0.019 A 
HETATM    3  C   UNL     1      42.827 -13.681   4.206  1.00  0.00     0.030 A 
HETATM    4  C   UNL     1      42.140 -14.633   4.979  1.00  0.00     0.034 A 
HETATM    5  C   UNL     1      40.757 -14.744   4.792  1.00  0.00     0.030 A 
HETATM    6  C   UNL     1      40.084 -13.955   3.852  1.00  0.00     0.019 A 
ENDROOT
BRANCH   1   7
HETATM    7  C   UNL     1      40.015 -12.194   2.105  1.00  0.00     0.271 C 
HETATM    8  N   UNL     1      39.175 -12.903   1.252  1.00  0.00    -0.243 N 
HETATM    9  H   UNL     1      38.896 -13.835   1.537  1.00  0.00     0.192 HD
HETATM   10  O   UNL     1      40.142 -10.973   2.143  1.00  0.00    -0.266 OA
BRANCH   8  11
HETATM   11  N   UNL     1      38.299 -12.334   0.362  1.00  0.00    -0.183 NA
HETATM   12  C   UNL     1      37.115 -12.019   0.795  1.00  0.00     0.153 C 
BRANCH  12  13
HETATM   13  C   UNL     1      36.087 -11.460  -0.109  1.00  0.00     0.016 A 
HETATM   14  C   UNL     1      34.878 -10.990   0.393  1.00  0.00     0.079 A 
HETATM   15  C   UNL     1      33.901 -10.474  -0.473  1.00  0.00     0.066 A 
HETATM   16  C   UNL     1      34.086 -10.414  -1.868  1.00  0.00     0.032 A 
HETATM   17  C   UNL     1      35.322 -10.896  -2.338  1.00  0.00     0.030 A 
HETATM   18  C   UNL     1      36.309 -11.410  -1.482  1.00  0.00     0.018 A 
BRANCH  14  19
HETATM   19  O   UNL     1      34.635 -11.026   1.739  1.00  0.00    -0.360 OA
HETATM   20  H   UNL     1      34.098 -11.807   1.947  1.00  0.00     0.217 HD
ENDBRANCH  14  19
BRANCH  16  21
HETATM   21  N   UNL     1      33.113  -9.908  -2.726  1.00  0.00    -0.382 N 
BRANCH  21  22
HETATM   22  C   UNL     1      33.355  -8.729  -3.572  1.00  0.00     0.118 C 
HETATM   23  C   UNL     1      33.609  -9.141  -5.015  1.00  0.00     0.026 C 
ENDBRANCH  21  22
BRANCH  21  24
HETATM   24  C   UNL     1      31.802 -10.550  -2.897  1.00  0.00     0.118 C 
HETATM   25  C   UNL     1      31.960 -12.043  -3.150  1.00  0.00     0.026 C 
ENDBRANCH  21  24
ENDBRANCH  16  21
ENDBRANCH  12  13
ENDBRANCH   8  11
ENDBRANCH   1   7
BRANCH   4  26
HETATM   26  N   UNL     1      42.858 -15.362   5.943  1.00  0.00    -0.335 N 
HETATM   27  C   UNL     1      43.461 -16.568   5.812  1.00  0.00     0.171 A 
HETATM   28  S   UNL     1      44.397 -17.182   7.129  1.00  0.00    -0.061 SA
HETATM   29  N   UNL     1      43.395 -17.380   4.782  1.00  0.00    -0.223 NA
HETATM   30  C   UNL     1      44.718 -18.611   6.239  1.00  0.00     0.085 A 
HETATM   31  C   UNL     1      44.099 -18.554   5.007  1.00  0.00     0.076 A 
HETATM   32  H   UNL     1      42.935 -14.911   6.845  1.00  0.00     0.168 HD
BRANCH  31  33
HETATM   33  C   UNL     1      44.132 -19.609   3.991  1.00  0.00    -0.007 A 
HETATM   34  C   UNL     1      44.719 -20.862   4.218  1.00  0.00     0.014 A 
HETATM   35  C   UNL     1      44.719 -21.843   3.220  1.00  0.00     0.001 A 
HETATM   36  C   UNL     1      44.134 -21.584   1.982  1.00  0.00     0.000 A 
HETATM   37  C   UNL     1      43.549 -20.345   1.740  1.00  0.00     0.001 A 
HETATM   38  C   UNL     1      43.549 -19.367   2.736  1.00  0.00     0.014 A 
ENDBRANCH  31  33
ENDBRANCH   4  26
TORSDOF 9
ENDMDL
MODEL 10
REMARK VINA RESULT:      -7.2      5.838     12.718
REMARK  9 active torsions:
REMARK  status: ('A' for Active; 'I' for Inactive)
REMARK    1  A    between atoms: C_2  and  N_3 
REMARK    2  A    between atoms: N_3  and  C_4 
REMARK    3  A    between atoms: N_3  and  C_34 
REMARK    4  A    between atoms: C_6  and  O_7 
REMARK    5  A    between atoms: C_8  and  C_9 
REMARK    6  A    between atoms: N_10  and  N_11 
REMARK       I    between atoms: N_11  and  C_12 
REMARK    7  A    between atoms: C_12  and  C_13 
REMARK    8  A    between atoms: C_16  and  N_17 
REMARK    9  A    between atoms: C_21  and  C_22 
ROOT
HETATM    1  C   UNL     1      39.166 -12.547   3.684  1.00  0.00     0.033 A 
HETATM    2  C   UNL     1      39.931 -13.714   3.584  1.00  0.00     0.019 A 
HETATM    3  C   UNL     1      40.096 -14.341   2.342  1.00  0.00     0.030 A 
HETATM    4  C   UNL     1      39.500 -13.831   1.176  1.00  0.00     0.034 A 
HETATM    5  C   UNL     1      38.717 -12.677   1.301  1.00  0.00     0.030 A 
HETATM    6  C   UNL     1      38.553 -12.039   2.536  1.00  0.00     0.019 A 
ENDROOT
BRANCH   1   7
HETATM    7  C   UNL     1      38.942 -11.843   4.979  1.00  0.00     0.271 C 
HETATM    8  N   UNL     1      39.374 -12.529   6.110  1.00  0.00    -0.243 N 
HETATM    9  H   UNL     1      40.066 -13.259   5.979  1.00  0.00     0.192 HD
HETATM   10  O   UNL     1      38.441 -10.722   4.962  1.00  0.00    -0.266 OA
BRANCH   8  11
HETATM   11  N   UNL     1      39.371 -12.022   7.384  1.00  0.00    -0.183 NA
HETATM   12  C   UNL     1      40.347 -11.235   7.726  1.00  0.00     0.153 C 
BRANCH  12  13
HETATM   13  C   UNL     1      40.457 -10.693   9.098  1.00  0.00     0.016 A 
HETATM   14  C   UNL     1      39.323 -10.296   9.799  1.00  0.00     0.079 A 
HETATM   15  C   UNL     1      39.437  -9.770  11.095  1.00  0.00     0.066 A 
HETATM   16  C   UNL     1      40.681  -9.611  11.738  1.00  0.00     0.032 A 
HETATM   17  C   UNL     1      41.804 -10.026  10.998  1.00  0.00     0.030 A 
HETATM   18  C   UNL     1      41.703 -10.558   9.703  1.00  0.00     0.018 A 
BRANCH  14  19
HETATM   19  O   UNL     1      38.086 -10.420   9.228  1.00  0.00    -0.360 OA
HETATM   20  H   UNL     1      37.433  -9.952   9.773  1.00  0.00     0.217 HD
ENDBRANCH  14  19
BRANCH  16  21
HETATM   21  N   UNL     1      40.793  -9.082  13.021  1.00  0.00    -0.382 N 
BRANCH  21  22
HETATM   22  C   UNL     1      41.369  -9.851  14.135  1.00  0.00     0.118 C 
HETATM   23  C   UNL     1      42.765  -9.348  14.474  1.00  0.00     0.026 C 
ENDBRANCH  21  22
BRANCH  21  24
HETATM   24  C   UNL     1      40.404  -7.701  13.341  1.00  0.00     0.118 C 
HETATM   25  C   UNL     1      39.156  -7.679  14.213  1.00  0.00     0.026 C 
ENDBRANCH  21  24
ENDBRANCH  16  21
ENDBRANCH  12  13
ENDBRANCH   8  11
ENDBRANCH   1   7
BRANCH   4  26
HETATM   26  N   UNL     1      39.658 -14.540  -0.027  1.00  0.00    -0.335 N 
HETATM   27  C   UNL     1      40.252 -14.134  -1.175  1.00  0.00     0.171 A 
HETATM   28  S   UNL     1      40.426 -15.264  -2.471  1.00  0.00    -0.061 SA
HETATM   29  N   UNL     1      40.701 -12.933  -1.453  1.00  0.00    -0.223 NA
HETATM   30  C   UNL     1      41.147 -14.048  -3.439  1.00  0.00     0.085 A 
HETATM   31  C   UNL     1      41.210 -12.859  -2.742  1.00  0.00     0.076 A 
HETATM   32  H   UNL     1      39.281 -15.479  -0.018  1.00  0.00     0.168 HD
BRANCH  31  33
HETATM   33  C   UNL     1      41.739 -11.596  -3.262  1.00  0.00    -0.007 A 
HETATM   34  C   UNL     1      41.794 -11.304  -4.633  1.00  0.00     0.014 A 
HETATM   35  C   UNL     1      42.301 -10.080  -5.084  1.00  0.00     0.001 A 
HETATM   36  C   UNL     1      42.760  -9.132  -4.172  1.00  0.00     0.000 A 
HETATM   37  C   UNL     1      42.715  -9.406  -2.809  1.00  0.00     0.001 A 
HETATM   38  C   UNL     1      42.209 -10.628  -2.359  1.00  0.00     0.014 A 
ENDBRANCH  31  33
ENDBRANCH   4  26
TORSDOF 9
ENDMDL
