MODEL 1
REMARK VINA RESULT:      -9.1      0.000      0.000
REMARK  3 active torsions:
REMARK  status: ('A' for Active; 'I' for Inactive)
REMARK    1  A    between atoms: C_5  and  C_6 
REMARK       I    between atoms: C_6  and  N_7 
REMARK    2  A    between atoms: N_7  and  C_8 
REMARK    3  A    between atoms: C_15  and  C_16 
REMARK       I    between atoms: C_16  and  N_17 
ROOT
HETATM    1  C   UNL     1      41.387 -15.206   1.655  1.00  0.00     0.035 A 
HETATM    2  C   UNL     1      41.404 -15.315   0.256  1.00  0.00     0.046 A 
HETATM    3  C   UNL     1      40.426 -14.642  -0.508  1.00  0.00     0.030 A 
HETATM    4  C   UNL     1      39.438 -13.925   0.154  1.00  0.00     0.063 A 
HETATM    5  N   UNL     1      38.643 -13.409  -0.831  1.00  0.00    -0.277 N 
HETATM    6  H   UNL     1      37.814 -12.838  -0.713  1.00  0.00     0.189 HD
HETATM    7  N   UNL     1      39.047 -13.697  -2.080  1.00  0.00    -0.168 NA
HETATM    8  C   UNL     1      40.150 -14.457  -1.895  1.00  0.00     0.156 A 
HETATM    9  C   UNL     1      39.374 -13.824   1.544  1.00  0.00     0.034 A 
HETATM   10  C   UNL     1      40.377 -14.469   2.280  1.00  0.00     0.032 A 
ENDROOT
BRANCH   1  11
HETATM   11  N   UNL     1      42.406 -15.874   2.364  1.00  0.00    -0.326 N 
HETATM   12  C   UNL     1      42.246 -16.919   3.266  1.00  0.00     0.240 C 
HETATM   13  O   UNL     1      41.163 -17.388   3.619  1.00  0.00    -0.272 OA
HETATM   14  H   UNL     1      43.336 -15.473   2.291  1.00  0.00     0.169 HD
BRANCH  12  15
HETATM   15  C   UNL     1      43.565 -17.498   3.832  1.00  0.00     0.172 C 
HETATM   16  C   UNL     1      43.850 -18.952   3.447  1.00  0.00    -0.029 A 
HETATM   17  C   UNL     1      44.388 -19.905   4.339  1.00  0.00    -0.050 A 
HETATM   18  C   UNL     1      43.627 -19.346   2.109  1.00  0.00     0.009 A 
HETATM   19  C   UNL     1      44.591 -21.228   3.903  1.00  0.00     0.007 A 
HETATM   20  C   UNL     1      44.730 -19.594   5.780  1.00  0.00     0.049 C 
HETATM   21  C   UNL     1      44.318 -21.603   2.591  1.00  0.00     0.001 A 
HETATM   22  C   UNL     1      43.846 -20.659   1.690  1.00  0.00     0.001 A 
HETATM   23  C   UNL     1      45.005 -18.127   6.064  1.00  0.00     0.080 C 
HETATM   24  S   UNL     1      43.546 -17.158   5.632  1.00  0.00    -0.149 SA
ENDBRANCH  12  15
ENDBRANCH   1  11
BRANCH   8  25
HETATM   25  C   UNL     1      40.927 -14.967  -3.033  1.00  0.00     0.270 C 
HETATM   26  N   UNL     1      42.136 -14.350  -3.206  1.00  0.00    -0.365 N 
HETATM   27  H   UNL     1      42.408 -13.626  -2.551  1.00  0.00     0.159 HD
HETATM   28  H   UNL     1      42.757 -14.658  -3.936  1.00  0.00     0.159 HD
HETATM   29  O   UNL     1      40.561 -15.875  -3.772  1.00  0.00    -0.266 OA
ENDBRANCH   8  25
TORSDOF 3
ENDMDL
MODEL 2
REMARK VINA RESULT:      -8.7      1.554      2.617
REMARK  3 active torsions:
REMARK  status: ('A' for Active; 'I' for Inactive)
REMARK    1  A    between atoms: C_5  and  C_6 
REMARK       I    between atoms: C_6  and  N_7 
REMARK    2  A    between atoms: N_7  and  C_8 
REMARK    3  A    between atoms: C_15  and  C_16 
REMARK       I    between atoms: C_16  and  N_17 
ROOT
HETATM    1  C   UNL     1      40.551 -15.977   1.468  1.00  0.00     0.035 A 
HETATM    2  C   UNL     1      40.987 -15.710   0.160  1.00  0.00     0.046 A 
HETATM    3  C   UNL     1      40.444 -14.614  -0.545  1.00  0.00     0.030 A 
HETATM    4  C   UNL     1      39.453 -13.854   0.062  1.00  0.00     0.063 A 
HETATM    5  N   UNL     1      39.120 -12.895  -0.853  1.00  0.00    -0.277 N 
HETATM    6  H   UNL     1      38.420 -12.169  -0.752  1.00  0.00     0.189 HD
HETATM    7  N   UNL     1      39.834 -12.940  -1.990  1.00  0.00    -0.168 NA
HETATM    8  C   UNL     1      40.658 -13.998  -1.813  1.00  0.00     0.156 A 
HETATM    9  C   UNL     1      38.976 -14.114   1.348  1.00  0.00     0.034 A 
HETATM   10  C   UNL     1      39.555 -15.184   2.042  1.00  0.00     0.032 A 
ENDROOT
BRANCH   1  11
HETATM   11  N   UNL     1      41.150 -17.067   2.134  1.00  0.00    -0.326 N 
HETATM   12  C   UNL     1      42.406 -17.091   2.729  1.00  0.00     0.240 C 
HETATM   13  O   UNL     1      43.211 -16.158   2.718  1.00  0.00    -0.272 OA
HETATM   14  H   UNL     1      40.660 -17.952   2.069  1.00  0.00     0.169 HD
BRANCH  12  15
HETATM   15  C   UNL     1      42.760 -18.414   3.449  1.00  0.00     0.172 C 
HETATM   16  C   UNL     1      43.027 -18.281   4.950  1.00  0.00    -0.029 A 
HETATM   17  C   UNL     1      44.055 -18.974   5.625  1.00  0.00    -0.050 A 
HETATM   18  C   UNL     1      42.155 -17.476   5.717  1.00  0.00     0.009 A 
HETATM   19  C   UNL     1      44.242 -18.768   7.005  1.00  0.00     0.007 A 
HETATM   20  C   UNL     1      45.017 -19.914   4.932  1.00  0.00     0.049 C 
HETATM   21  C   UNL     1      43.398 -17.931   7.729  1.00  0.00     0.001 A 
HETATM   22  C   UNL     1      42.346 -17.293   7.086  1.00  0.00     0.001 A 
HETATM   23  C   UNL     1      44.496 -20.512   3.636  1.00  0.00     0.080 C 
HETATM   24  S   UNL     1      44.115 -19.180   2.482  1.00  0.00    -0.149 SA
ENDBRANCH  12  15
ENDBRANCH   1  11
BRANCH   8  25
HETATM   25  C   UNL     1      41.642 -14.382  -2.834  1.00  0.00     0.270 C 
HETATM   26  N   UNL     1      42.692 -13.513  -2.953  1.00  0.00    -0.365 N 
HETATM   27  H   UNL     1      42.726 -12.707  -2.339  1.00  0.00     0.159 HD
HETATM   28  H   UNL     1      43.438 -13.712  -3.600  1.00  0.00     0.159 HD
HETATM   29  O   UNL     1      41.566 -15.392  -3.526  1.00  0.00    -0.266 OA
ENDBRANCH   8  25
TORSDOF 3
ENDMDL
MODEL 3
REMARK VINA RESULT:      -8.6      2.876      8.065
REMARK  3 active torsions:
REMARK  status: ('A' for Active; 'I' for Inactive)
REMARK    1  A    between atoms: C_5  and  C_6 
REMARK       I    between atoms: C_6  and  N_7 
REMARK    2  A    between atoms: N_7  and  C_8 
REMARK    3  A    between atoms: C_15  and  C_16 
REMARK       I    between atoms: C_16  and  N_17 
ROOT
HETATM    1  C   UNL     1      43.146 -17.446   2.215  1.00  0.00     0.035 A 
HETATM    2  C   UNL     1      43.328 -17.474   3.607  1.00  0.00     0.046 A 
HETATM    3  C   UNL     1      43.862 -18.630   4.217  1.00  0.00     0.030 A 
HETATM    4  C   UNL     1      44.149 -19.732   3.423  1.00  0.00     0.063 A 
HETATM    5  N   UNL     1      44.627 -20.682   4.281  1.00  0.00    -0.277 N 
HETATM    6  H   UNL     1      44.927 -21.622   4.049  1.00  0.00     0.189 HD
HETATM    7  N   UNL     1      44.711 -20.283   5.562  1.00  0.00    -0.168 NA
HETATM    8  C   UNL     1      44.243 -19.014   5.536  1.00  0.00     0.156 A 
HETATM    9  C   UNL     1      43.949 -19.747   2.042  1.00  0.00     0.034 A 
HETATM   10  C   UNL     1      43.453 -18.577   1.454  1.00  0.00     0.032 A 
ENDROOT
BRANCH   1  11
HETATM   11  N   UNL     1      42.637 -16.255   1.658  1.00  0.00    -0.326 N 
HETATM   12  C   UNL     1      41.299 -15.909   1.509  1.00  0.00     0.240 C 
HETATM   13  O   UNL     1      40.346 -16.631   1.805  1.00  0.00    -0.272 OA
HETATM   14  H   UNL     1      43.318 -15.642   1.220  1.00  0.00     0.169 HD
BRANCH  12  15
HETATM   15  C   UNL     1      41.053 -14.497   0.926  1.00  0.00     0.172 C 
HETATM   16  C   UNL     1      41.295 -14.368  -0.580  1.00  0.00    -0.029 A 
HETATM   17  C   UNL     1      41.924 -13.254  -1.177  1.00  0.00    -0.050 A 
HETATM   18  C   UNL     1      40.802 -15.386  -1.427  1.00  0.00     0.009 A 
HETATM   19  C   UNL     1      42.128 -13.235  -2.570  1.00  0.00     0.007 A 
HETATM   20  C   UNL     1      42.440 -12.070  -0.389  1.00  0.00     0.049 C 
HETATM   21  C   UNL     1      41.675 -14.274  -3.378  1.00  0.00     0.001 A 
HETATM   22  C   UNL     1      41.001 -15.346  -2.807  1.00  0.00     0.001 A 
HETATM   23  C   UNL     1      41.768 -11.862   0.958  1.00  0.00     0.080 C 
HETATM   24  S   UNL     1      42.009 -13.334   1.971  1.00  0.00    -0.149 SA
ENDBRANCH  12  15
ENDBRANCH   1  11
BRANCH   8  25
HETATM   25  C   UNL     1      44.192 -18.193   6.753  1.00  0.00     0.270 C 
HETATM   26  N   UNL     1      43.607 -18.814   7.822  1.00  0.00    -0.365 N 
HETATM   27  H   UNL     1      43.281 -19.767   7.709  1.00  0.00     0.159 HD
HETATM   28  H   UNL     1      43.561 -18.346   8.712  1.00  0.00     0.159 HD
HETATM   29  O   UNL     1      44.638 -17.053   6.840  1.00  0.00    -0.266 OA
ENDBRANCH   8  25
TORSDOF 3
ENDMDL
MODEL 4
REMARK VINA RESULT:      -8.5      1.663      2.062
REMARK  3 active torsions:
REMARK  status: ('A' for Active; 'I' for Inactive)
REMARK    1  A    between atoms: C_5  and  C_6 
REMARK       I    between atoms: C_6  and  N_7 
REMARK    2  A    between atoms: N_7  and  C_8 
REMARK    3  A    between atoms: C_15  and  C_16 
REMARK       I    between atoms: C_16  and  N_17 
ROOT
HETATM    1  C   UNL     1      40.306 -14.701   1.249  1.00  0.00     0.035 A 
HETATM    2  C   UNL     1      40.738 -14.678  -0.086  1.00  0.00     0.046 A 
HETATM    3  C   UNL     1      39.871 -14.199  -1.091  1.00  0.00     0.030 A 
HETATM    4  C   UNL     1      38.588 -13.806  -0.736  1.00  0.00     0.063 A 
HETATM    5  N   UNL     1      37.992 -13.414  -1.902  1.00  0.00    -0.277 N 
HETATM    6  H   UNL     1      37.045 -13.075  -2.021  1.00  0.00     0.189 HD
HETATM    7  N   UNL     1      38.787 -13.483  -2.982  1.00  0.00    -0.168 NA
HETATM    8  C   UNL     1      39.953 -13.965  -2.496  1.00  0.00     0.156 A 
HETATM    9  C   UNL     1      38.117 -13.848   0.578  1.00  0.00     0.034 A 
HETATM   10  C   UNL     1      39.007 -14.292   1.564  1.00  0.00     0.032 A 
ENDROOT
BRANCH   1  11
HETATM   11  N   UNL     1      41.225 -15.162   2.214  1.00  0.00    -0.326 N 
HETATM   12  C   UNL     1      42.369 -14.506   2.654  1.00  0.00     0.240 C 
HETATM   13  O   UNL     1      42.777 -13.428   2.220  1.00  0.00    -0.272 OA
HETATM   14  H   UNL     1      41.097 -16.117   2.532  1.00  0.00     0.169 HD
BRANCH  12  15
HETATM   15  C   UNL     1      43.144 -15.233   3.779  1.00  0.00     0.172 C 
HETATM   16  C   UNL     1      43.429 -16.714   3.514  1.00  0.00    -0.029 A 
HETATM   17  C   UNL     1      43.332 -17.717   4.503  1.00  0.00    -0.050 A 
HETATM   18  C   UNL     1      43.881 -17.089   2.229  1.00  0.00     0.009 A 
HETATM   19  C   UNL     1      43.588 -19.058   4.160  1.00  0.00     0.007 A 
HETATM   20  C   UNL     1      42.921 -17.438   5.932  1.00  0.00     0.049 C 
HETATM   21  C   UNL     1      43.986 -19.408   2.873  1.00  0.00     0.001 A 
HETATM   22  C   UNL     1      44.143 -18.421   1.909  1.00  0.00     0.001 A 
HETATM   23  C   UNL     1      43.165 -16.011   6.396  1.00  0.00     0.080 C 
HETATM   24  S   UNL     1      42.244 -14.880   5.336  1.00  0.00    -0.149 SA
ENDBRANCH  12  15
ENDBRANCH   1  11
BRANCH   8  25
HETATM   25  C   UNL     1      41.120 -14.167  -3.365  1.00  0.00     0.270 C 
HETATM   26  N   UNL     1      41.711 -13.008  -3.786  1.00  0.00    -0.365 N 
HETATM   27  H   UNL     1      41.330 -12.125  -3.464  1.00  0.00     0.159 HD
HETATM   28  H   UNL     1      42.543 -13.045  -4.353  1.00  0.00     0.159 HD
HETATM   29  O   UNL     1      41.559 -15.265  -3.693  1.00  0.00    -0.266 OA
ENDBRANCH   8  25
TORSDOF 3
ENDMDL
MODEL 5
REMARK VINA RESULT:      -8.3      5.489      8.354
REMARK  3 active torsions:
REMARK  status: ('A' for Active; 'I' for Inactive)
REMARK    1  A    between atoms: C_5  and  C_6 
REMARK       I    between atoms: C_6  and  N_7 
REMARK    2  A    between atoms: N_7  and  C_8 
REMARK    3  A    between atoms: C_15  and  C_16 
REMARK       I    between atoms: C_16  and  N_17 
ROOT
HETATM    1  C   UNL     1      44.491 -13.891   6.881  1.00  0.00     0.035 A 
HETATM    2  C   UNL     1      43.752 -13.141   7.811  1.00  0.00     0.046 A 
HETATM    3  C   UNL     1      44.404 -12.161   8.590  1.00  0.00     0.030 A 
HETATM    4  C   UNL     1      45.775 -11.998   8.448  1.00  0.00     0.063 A 
HETATM    5  N   UNL     1      46.116 -11.007   9.327  1.00  0.00    -0.277 N 
HETATM    6  H   UNL     1      47.041 -10.634   9.499  1.00  0.00     0.189 HD
HETATM    7  N   UNL     1      45.079 -10.485  10.003  1.00  0.00    -0.168 NA
HETATM    8  C   UNL     1      44.014 -11.188   9.556  1.00  0.00     0.156 A 
HETATM    9  C   UNL     1      46.542 -12.749   7.557  1.00  0.00     0.034 A 
HETATM   10  C   UNL     1      45.869 -13.691   6.768  1.00  0.00     0.032 A 
ENDROOT
BRANCH   1  11
HETATM   11  N   UNL     1      43.781 -14.835   6.110  1.00  0.00    -0.326 N 
HETATM   12  C   UNL     1      43.303 -16.069   6.536  1.00  0.00     0.240 C 
HETATM   13  O   UNL     1      43.475 -16.544   7.659  1.00  0.00    -0.272 OA
HETATM   14  H   UNL     1      43.717 -14.640   5.116  1.00  0.00     0.169 HD
BRANCH  12  15
HETATM   15  C   UNL     1      42.496 -16.855   5.476  1.00  0.00     0.172 C 
HETATM   16  C   UNL     1      43.255 -18.003   4.806  1.00  0.00    -0.029 A 
HETATM   17  C   UNL     1      43.166 -18.301   3.429  1.00  0.00    -0.050 A 
HETATM   18  C   UNL     1      44.035 -18.855   5.621  1.00  0.00     0.009 A 
HETATM   19  C   UNL     1      43.924 -19.361   2.897  1.00  0.00     0.007 A 
HETATM   20  C   UNL     1      42.318 -17.505   2.461  1.00  0.00     0.049 C 
HETATM   21  C   UNL     1      44.722 -20.156   3.713  1.00  0.00     0.001 A 
HETATM   22  C   UNL     1      44.769 -19.910   5.079  1.00  0.00     0.001 A 
HETATM   23  C   UNL     1      41.158 -16.760   3.098  1.00  0.00     0.080 C 
HETATM   24  S   UNL     1      41.800 -15.607   4.328  1.00  0.00    -0.149 SA
ENDBRANCH  12  15
ENDBRANCH   1  11
BRANCH   8  25
HETATM   25  C   UNL     1      42.654 -10.904  10.035  1.00  0.00     0.270 C 
HETATM   26  N   UNL     1      42.305 -11.591  11.165  1.00  0.00    -0.365 N 
HETATM   27  H   UNL     1      42.989 -12.209  11.587  1.00  0.00     0.159 HD
HETATM   28  H   UNL     1      41.406 -11.433  11.592  1.00  0.00     0.159 HD
HETATM   29  O   UNL     1      41.881 -10.114   9.501  1.00  0.00    -0.266 OA
ENDBRANCH   8  25
TORSDOF 3
ENDMDL
MODEL 6
REMARK VINA RESULT:      -8.2      3.378      5.501
REMARK  3 active torsions:
REMARK  status: ('A' for Active; 'I' for Inactive)
REMARK    1  A    between atoms: C_5  and  C_6 
REMARK       I    between atoms: C_6  and  N_7 
REMARK    2  A    between atoms: N_7  and  C_8 
REMARK    3  A    between atoms: C_15  and  C_16 
REMARK       I    between atoms: C_16  and  N_17 
ROOT
HETATM    1  C   UNL     1      39.920 -14.696   3.252  1.00  0.00     0.035 A 
HETATM    2  C   UNL     1      40.022 -13.990   4.462  1.00  0.00     0.046 A 
HETATM    3  C   UNL     1      39.449 -12.705   4.569  1.00  0.00     0.030 A 
HETATM    4  C   UNL     1      38.838 -12.151   3.452  1.00  0.00     0.063 A 
HETATM    5  N   UNL     1      38.401 -10.918   3.851  1.00  0.00    -0.277 N 
HETATM    6  H   UNL     1      37.917 -10.228   3.289  1.00  0.00     0.189 HD
HETATM    7  N   UNL     1      38.643 -10.635   5.142  1.00  0.00    -0.168 NA
HETATM    8  C   UNL     1      39.289 -11.732   5.599  1.00  0.00     0.156 A 
HETATM    9  C   UNL     1      38.748 -12.813   2.227  1.00  0.00     0.034 A 
HETATM   10  C   UNL     1      39.291 -14.102   2.155  1.00  0.00     0.032 A 
ENDROOT
BRANCH   1  11
HETATM   11  N   UNL     1      40.485 -15.988   3.213  1.00  0.00    -0.326 N 
HETATM   12  C   UNL     1      41.827 -16.305   3.040  1.00  0.00     0.240 C 
HETATM   13  O   UNL     1      42.727 -15.487   2.845  1.00  0.00    -0.272 OA
HETATM   14  H   UNL     1      39.828 -16.761   3.195  1.00  0.00     0.169 HD
BRANCH  12  15
HETATM   15  C   UNL     1      42.153 -17.816   3.115  1.00  0.00     0.172 C 
HETATM   16  C   UNL     1      42.898 -18.255   4.378  1.00  0.00    -0.029 A 
HETATM   17  C   UNL     1      43.949 -19.197   4.377  1.00  0.00    -0.050 A 
HETATM   18  C   UNL     1      42.466 -17.742   5.622  1.00  0.00     0.009 A 
HETATM   19  C   UNL     1      44.594 -19.519   5.586  1.00  0.00     0.007 A 
HETATM   20  C   UNL     1      44.464 -19.866   3.122  1.00  0.00     0.049 C 
HETATM   21  C   UNL     1      44.181 -18.963   6.793  1.00  0.00     0.001 A 
HETATM   22  C   UNL     1      43.108 -18.082   6.813  1.00  0.00     0.001 A 
HETATM   23  C   UNL     1      43.465 -19.923   1.978  1.00  0.00     0.080 C 
HETATM   24  S   UNL     1      42.979 -18.243   1.536  1.00  0.00    -0.149 SA
ENDBRANCH  12  15
ENDBRANCH   1  11
BRANCH   8  25
HETATM   25  C   UNL     1      39.714 -11.841   7.001  1.00  0.00     0.270 C 
HETATM   26  N   UNL     1      41.065 -11.735   7.185  1.00  0.00    -0.365 N 
HETATM   27  H   UNL     1      41.653 -11.574   6.375  1.00  0.00     0.159 HD
HETATM   28  H   UNL     1      41.449 -11.757   8.116  1.00  0.00     0.159 HD
HETATM   29  O   UNL     1      38.950 -12.000   7.948  1.00  0.00    -0.266 OA
ENDBRANCH   8  25
TORSDOF 3
ENDMDL
MODEL 7
REMARK VINA RESULT:      -8.0      3.524      5.135
REMARK  3 active torsions:
REMARK  status: ('A' for Active; 'I' for Inactive)
REMARK    1  A    between atoms: C_5  and  C_6 
REMARK       I    between atoms: C_6  and  N_7 
REMARK    2  A    between atoms: N_7  and  C_8 
REMARK    3  A    between atoms: C_15  and  C_16 
REMARK       I    between atoms: C_16  and  N_17 
ROOT
HETATM    1  C   UNL     1      41.084 -13.755   3.898  1.00  0.00     0.035 A 
HETATM    2  C   UNL     1      40.825 -12.700   4.788  1.00  0.00     0.046 A 
HETATM    3  C   UNL     1      39.740 -11.831   4.541  1.00  0.00     0.030 A 
HETATM    4  C   UNL     1      38.983 -12.016   3.393  1.00  0.00     0.063 A 
HETATM    5  N   UNL     1      38.035 -11.032   3.420  1.00  0.00    -0.277 N 
HETATM    6  H   UNL     1      37.314 -10.857   2.730  1.00  0.00     0.189 HD
HETATM    7  N   UNL     1      38.085 -10.243   4.506  1.00  0.00    -0.168 NA
HETATM    8  C   UNL     1      39.134 -10.727   5.210  1.00  0.00     0.156 A 
HETATM    9  C   UNL     1      39.234 -13.035   2.472  1.00  0.00     0.034 A 
HETATM   10  C   UNL     1      40.293 -13.908   2.756  1.00  0.00     0.032 A 
ENDROOT
BRANCH   1  11
HETATM   11  N   UNL     1      42.162 -14.609   4.211  1.00  0.00    -0.326 N 
HETATM   12  C   UNL     1      42.083 -15.886   4.753  1.00  0.00     0.240 C 
HETATM   13  O   UNL     1      41.039 -16.448   5.089  1.00  0.00    -0.272 OA
HETATM   14  H   UNL     1      43.088 -14.201   4.138  1.00  0.00     0.169 HD
BRANCH  12  15
HETATM   15  C   UNL     1      43.441 -16.608   4.918  1.00  0.00     0.172 C 
HETATM   16  C   UNL     1      43.652 -17.806   3.989  1.00  0.00    -0.029 A 
HETATM   17  C   UNL     1      44.262 -19.013   4.397  1.00  0.00    -0.050 A 
HETATM   18  C   UNL     1      43.282 -17.675   2.632  1.00  0.00     0.009 A 
HETATM   19  C   UNL     1      44.390 -20.072   3.479  1.00  0.00     0.007 A 
HETATM   20  C   UNL     1      44.760 -19.257   5.805  1.00  0.00     0.049 C 
HETATM   21  C   UNL     1      43.972 -19.934   2.158  1.00  0.00     0.001 A 
HETATM   22  C   UNL     1      43.427 -18.731   1.732  1.00  0.00     0.001 A 
HETATM   23  C   UNL     1      45.095 -17.998   6.587  1.00  0.00     0.080 C 
HETATM   24  S   UNL     1      43.620 -16.967   6.706  1.00  0.00    -0.149 SA
ENDBRANCH  12  15
ENDBRANCH   1  11
BRANCH   8  25
HETATM   25  C   UNL     1      39.519 -10.150   6.505  1.00  0.00     0.270 C 
HETATM   26  N   UNL     1      40.349  -9.067   6.409  1.00  0.00    -0.365 N 
HETATM   27  H   UNL     1      40.614  -8.740   5.487  1.00  0.00     0.159 HD
HETATM   28  H   UNL     1      40.636  -8.578   7.242  1.00  0.00     0.159 HD
HETATM   29  O   UNL     1      39.135 -10.568   7.593  1.00  0.00    -0.266 OA
ENDBRANCH   8  25
TORSDOF 3
ENDMDL
MODEL 8
REMARK VINA RESULT:      -7.9      2.985      8.444
REMARK  3 active torsions:
REMARK  status: ('A' for Active; 'I' for Inactive)
REMARK    1  A    between atoms: C_5  and  C_6 
REMARK       I    between atoms: C_6  and  N_7 
REMARK    2  A    between atoms: N_7  and  C_8 
REMARK    3  A    between atoms: C_15  and  C_16 
REMARK       I    between atoms: C_16  and  N_17 
ROOT
HETATM    1  C   UNL     1      43.332 -17.619   2.598  1.00  0.00     0.035 A 
HETATM    2  C   UNL     1      43.080 -17.521   3.975  1.00  0.00     0.046 A 
HETATM    3  C   UNL     1      43.517 -18.548   4.839  1.00  0.00     0.030 A 
HETATM    4  C   UNL     1      44.147 -19.657   4.293  1.00  0.00     0.063 A 
HETATM    5  N   UNL     1      44.434 -20.471   5.353  1.00  0.00    -0.277 N 
HETATM    6  H   UNL     1      44.886 -21.377   5.325  1.00  0.00     0.189 HD
HETATM    7  N   UNL     1      44.078 -19.972   6.549  1.00  0.00    -0.168 NA
HETATM    8  C   UNL     1      43.511 -18.781   6.246  1.00  0.00     0.156 A 
HETATM    9  C   UNL     1      44.384 -19.800   2.925  1.00  0.00     0.034 A 
HETATM   10  C   UNL     1      43.974 -18.752   2.091  1.00  0.00     0.032 A 
ENDROOT
BRANCH   1  11
HETATM   11  N   UNL     1      42.899 -16.549   1.788  1.00  0.00    -0.326 N 
HETATM   12  C   UNL     1      41.701 -16.466   1.088  1.00  0.00     0.240 C 
HETATM   13  O   UNL     1      40.850 -17.354   1.037  1.00  0.00    -0.272 OA
HETATM   14  H   UNL     1      43.583 -15.821   1.609  1.00  0.00     0.169 HD
BRANCH  12  15
HETATM   15  C   UNL     1      41.476 -15.129   0.341  1.00  0.00     0.172 C 
HETATM   16  C   UNL     1      40.476 -14.179   1.005  1.00  0.00    -0.029 A 
HETATM   17  C   UNL     1      39.527 -13.418   0.288  1.00  0.00    -0.050 A 
HETATM   18  C   UNL     1      40.550 -14.000   2.405  1.00  0.00     0.009 A 
HETATM   19  C   UNL     1      38.628 -12.591   0.987  1.00  0.00     0.007 A 
HETATM   20  C   UNL     1      39.387 -13.471  -1.218  1.00  0.00     0.049 C 
HETATM   21  C   UNL     1      38.691 -12.469   2.372  1.00  0.00     0.001 A 
HETATM   22  C   UNL     1      39.660 -13.166   3.081  1.00  0.00     0.001 A 
HETATM   23  C   UNL     1      40.638 -13.916  -1.956  1.00  0.00     0.080 C 
HETATM   24  S   UNL     1      41.097 -15.568  -1.397  1.00  0.00    -0.149 SA
ENDBRANCH  12  15
ENDBRANCH   1  11
BRANCH   8  25
HETATM   25  C   UNL     1      43.003 -17.887   7.295  1.00  0.00     0.270 C 
HETATM   26  N   UNL     1      43.653 -18.005   8.493  1.00  0.00    -0.365 N 
HETATM   27  H   UNL     1      44.422 -18.661   8.564  1.00  0.00     0.159 HD
HETATM   28  H   UNL     1      43.402 -17.405   9.262  1.00  0.00     0.159 HD
HETATM   29  O   UNL     1      42.089 -17.084   7.140  1.00  0.00    -0.266 OA
ENDBRANCH   8  25
TORSDOF 3
ENDMDL
MODEL 9
REMARK VINA RESULT:      -7.8      3.171      8.369
REMARK  3 active torsions:
REMARK  status: ('A' for Active; 'I' for Inactive)
REMARK    1  A    between atoms: C_5  and  C_6 
REMARK       I    between atoms: C_6  and  N_7 
REMARK    2  A    between atoms: N_7  and  C_8 
REMARK    3  A    between atoms: C_15  and  C_16 
REMARK       I    between atoms: C_16  and  N_17 
ROOT
HETATM    1  C   UNL     1      43.039 -17.431   2.505  1.00  0.00     0.035 A 
HETATM    2  C   UNL     1      43.324 -17.739   3.845  1.00  0.00     0.046 A 
HETATM    3  C   UNL     1      43.873 -18.998   4.169  1.00  0.00     0.030 A 
HETATM    4  C   UNL     1      44.073 -19.922   3.152  1.00  0.00     0.063 A 
HETATM    5  N   UNL     1      44.590 -21.030   3.764  1.00  0.00    -0.277 N 
HETATM    6  H   UNL     1      44.848 -21.906   3.327  1.00  0.00     0.189 HD
HETATM    7  N   UNL     1      44.779 -20.895   5.088  1.00  0.00    -0.168 NA
HETATM    8  C   UNL     1      44.342 -19.643   5.351  1.00  0.00     0.156 A 
HETATM    9  C   UNL     1      43.769 -19.659   1.815  1.00  0.00     0.034 A 
HETATM   10  C   UNL     1      43.260 -18.389   1.512  1.00  0.00     0.032 A 
ENDROOT
BRANCH   1  11
HETATM   11  N   UNL     1      42.520 -16.148   2.237  1.00  0.00    -0.326 N 
HETATM   12  C   UNL     1      41.179 -15.785   2.186  1.00  0.00     0.240 C 
HETATM   13  O   UNL     1      40.232 -16.560   2.324  1.00  0.00    -0.272 OA
HETATM   14  H   UNL     1      43.193 -15.449   1.940  1.00  0.00     0.169 HD
BRANCH  12  15
HETATM   15  C   UNL     1      40.922 -14.279   1.941  1.00  0.00     0.172 C 
HETATM   16  C   UNL     1      40.299 -13.529   3.121  1.00  0.00    -0.029 A 
HETATM   17  C   UNL     1      39.289 -12.552   2.981  1.00  0.00    -0.050 A 
HETATM   18  C   UNL     1      40.808 -13.777   4.415  1.00  0.00     0.009 A 
HETATM   19  C   UNL     1      38.757 -11.933   4.127  1.00  0.00     0.007 A 
HETATM   20  C   UNL     1      38.703 -12.149   1.645  1.00  0.00     0.049 C 
HETATM   21  C   UNL     1      39.243 -12.231   5.397  1.00  0.00     0.001 A 
HETATM   22  C   UNL     1      40.277 -13.145   5.540  1.00  0.00     0.001 A 
HETATM   23  C   UNL     1      39.609 -12.405   0.452  1.00  0.00     0.080 C 
HETATM   24  S   UNL     1      39.990 -14.166   0.367  1.00  0.00    -0.149 SA
ENDBRANCH  12  15
ENDBRANCH   1  11
BRANCH   8  25
HETATM   25  C   UNL     1      44.402 -19.081   6.708  1.00  0.00     0.270 C 
HETATM   26  N   UNL     1      45.291 -18.051   6.847  1.00  0.00    -0.365 N 
HETATM   27  H   UNL     1      45.811 -17.747   6.032  1.00  0.00     0.159 HD
HETATM   28  H   UNL     1      45.374 -17.575   7.731  1.00  0.00     0.159 HD
HETATM   29  O   UNL     1      43.718 -19.468   7.650  1.00  0.00    -0.266 OA
ENDBRANCH   8  25
TORSDOF 3
ENDMDL
MODEL 10
REMARK VINA RESULT:      -7.8      2.943      7.842
REMARK  3 active torsions:
REMARK  status: ('A' for Active; 'I' for Inactive)
REMARK    1  A    between atoms: C_5  and  C_6 
REMARK       I    between atoms: C_6  and  N_7 
REMARK    2  A    between atoms: N_7  and  C_8 
REMARK    3  A    between atoms: C_15  and  C_16 
REMARK       I    between atoms: C_16  and  N_17 
ROOT
HETATM    1  C   UNL     1      42.095 -16.964   3.358  1.00  0.00     0.035 A 
HETATM    2  C   UNL     1      42.619 -18.191   2.921  1.00  0.00     0.046 A 
HETATM    3  C   UNL     1      43.611 -18.838   3.690  1.00  0.00     0.030 A 
HETATM    4  C   UNL     1      44.078 -18.215   4.839  1.00  0.00     0.063 A 
HETATM    5  N   UNL     1      45.026 -19.058   5.349  1.00  0.00    -0.277 N 
HETATM    6  H   UNL     1      45.586 -18.918   6.182  1.00  0.00     0.189 HD
HETATM    7  N   UNL     1      45.192 -20.194   4.652  1.00  0.00    -0.168 NA
HETATM    8  C   UNL     1      44.321 -20.073   3.624  1.00  0.00     0.156 A 
HETATM    9  C   UNL     1      43.601 -16.981   5.282  1.00  0.00     0.034 A 
HETATM   10  C   UNL     1      42.591 -16.375   4.524  1.00  0.00     0.032 A 
ENDROOT
BRANCH   1  11
HETATM   11  N   UNL     1      41.085 -16.379   2.566  1.00  0.00    -0.326 N 
HETATM   12  C   UNL     1      41.212 -15.268   1.741  1.00  0.00     0.240 C 
HETATM   13  O   UNL     1      42.234 -14.592   1.618  1.00  0.00    -0.272 OA
HETATM   14  H   UNL     1      40.146 -16.740   2.705  1.00  0.00     0.169 HD
BRANCH  12  15
HETATM   15  C   UNL     1      39.940 -14.905   0.939  1.00  0.00     0.172 C 
HETATM   16  C   UNL     1      40.162 -14.689  -0.560  1.00  0.00    -0.029 A 
HETATM   17  C   UNL     1      39.534 -13.665  -1.303  1.00  0.00    -0.050 A 
HETATM   18  C   UNL     1      40.985 -15.603  -1.254  1.00  0.00     0.009 A 
HETATM   19  C   UNL     1      39.820 -13.526  -2.674  1.00  0.00     0.007 A 
HETATM   20  C   UNL     1      38.582 -12.660  -0.692  1.00  0.00     0.049 C 
HETATM   21  C   UNL     1      40.673 -14.413  -3.325  1.00  0.00     0.001 A 
HETATM   22  C   UNL     1      41.248 -15.459  -2.616  1.00  0.00     0.001 A 
HETATM   23  C   UNL     1      37.900 -13.126   0.583  1.00  0.00     0.080 C 
HETATM   24  S   UNL     1      39.157 -13.502   1.821  1.00  0.00    -0.149 SA
ENDBRANCH  12  15
ENDBRANCH   1  11
BRANCH   8  25
HETATM   25  C   UNL     1      44.167 -21.137   2.622  1.00  0.00     0.270 C 
HETATM   26  N   UNL     1      44.473 -22.387   3.084  1.00  0.00    -0.365 N 
HETATM   27  H   UNL     1      44.755 -22.490   4.052  1.00  0.00     0.159 HD
HETATM   28  H   UNL     1      44.359 -23.187   2.482  1.00  0.00     0.159 HD
HETATM   29  O   UNL     1      43.785 -20.955   1.470  1.00  0.00    -0.266 OA
ENDBRANCH   8  25
TORSDOF 3
ENDMDL
