MODEL 1
REMARK VINA RESULT:      -8.7      0.000      0.000
REMARK  3 active torsions:
REMARK  status: ('A' for Active; 'I' for Inactive)
REMARK    1  A    between atoms: C_9  and  C_10 
REMARK    2  A    between atoms: C_16  and  C_17 
REMARK       I    between atoms: C_17  and  N_18 
REMARK    3  A    between atoms: N_18  and  C_19 
ROOT
HETATM    1  C   UNL     1      42.877 -17.217   7.860  1.00  0.00     0.070 C 
HETATM    2  C   UNL     1      42.887 -16.397   6.596  1.00  0.00     0.037 A 
HETATM    3  N   UNL     1      42.239 -15.167   6.669  1.00  0.00    -0.191 N 
HETATM    4  C   UNL     1      42.310 -14.243   5.690  1.00  0.00     0.735 A 
HETATM    5  N   UNL     1      42.943 -14.555   4.519  1.00  0.00    -0.091 N 
HETATM    6  N   UNL     1      43.031 -13.465   3.735  1.00  0.00     0.012 NA
HETATM    7  N   UNL     1      42.373 -12.523   4.403  1.00  0.00     0.033 NA
HETATM    8  N   UNL     1      41.923 -12.992   5.623  1.00  0.00     0.030 NA
HETATM    9  C   UNL     1      43.572 -15.836   4.232  1.00  0.00     0.216 A 
HETATM   10  C   UNL     1      43.520 -16.752   5.450  1.00  0.00     0.063 A 
HETATM   11  H   UNL     1      41.828 -14.901   7.561  1.00  0.00     0.184 HD
ENDROOT
BRANCH  10  12
HETATM   12  C   UNL     1      44.285 -18.011   5.270  1.00  0.00     0.256 C 
HETATM   13  N   UNL     1      43.660 -18.916   4.441  1.00  0.00    -0.323 N 
HETATM   14  H   UNL     1      42.807 -18.604   3.992  1.00  0.00     0.169 HD
HETATM   15  O   UNL     1      45.377 -18.113   5.815  1.00  0.00    -0.267 OA
BRANCH  13  16
HETATM   16  C   UNL     1      44.083 -20.225   4.130  1.00  0.00     0.035 A 
HETATM   17  C   UNL     1      44.512 -21.152   5.081  1.00  0.00     0.029 A 
HETATM   18  C   UNL     1      44.896 -22.439   4.692  1.00  0.00     0.002 A 
HETATM   19  C   UNL     1      44.846 -22.813   3.352  1.00  0.00     0.000 A 
HETATM   20  C   UNL     1      44.419 -21.896   2.395  1.00  0.00     0.002 A 
HETATM   21  C   UNL     1      44.042 -20.607   2.782  1.00  0.00     0.029 A 
ENDBRANCH  13  16
ENDBRANCH  10  12
BRANCH   9  22
HETATM   22  C   UNL     1      42.898 -16.449   3.011  1.00  0.00     0.064 A 
HETATM   23  N   UNL     1      41.564 -16.723   3.083  1.00  0.00    -0.263 NA
HETATM   24  C   UNL     1      40.971 -17.226   1.977  1.00  0.00     0.117 A 
HETATM   25  C   UNL     1      41.640 -17.483   0.793  1.00  0.00     0.019 A 
HETATM   26  C   UNL     1      42.999 -17.206   0.732  1.00  0.00     0.003 A 
HETATM   27  C   UNL     1      43.640 -16.682   1.851  1.00  0.00     0.030 A 
ENDBRANCH   9  22
TORSDOF 3
ENDMDL
MODEL 2
REMARK VINA RESULT:      -8.5      2.082      4.030
REMARK  3 active torsions:
REMARK  status: ('A' for Active; 'I' for Inactive)
REMARK    1  A    between atoms: C_9  and  C_10 
REMARK    2  A    between atoms: C_16  and  C_17 
REMARK       I    between atoms: C_17  and  N_18 
REMARK    3  A    between atoms: N_18  and  C_19 
ROOT
HETATM    1  C   UNL     1      40.505 -16.264   1.419  1.00  0.00     0.070 C 
HETATM    2  C   UNL     1      40.559 -15.537   2.738  1.00  0.00     0.037 A 
HETATM    3  N   UNL     1      40.050 -14.241   2.734  1.00  0.00    -0.191 N 
HETATM    4  C   UNL     1      39.861 -13.526   3.862  1.00  0.00     0.735 A 
HETATM    5  N   UNL     1      40.289 -14.033   5.056  1.00  0.00    -0.091 N 
HETATM    6  N   UNL     1      39.884 -13.243   6.067  1.00  0.00     0.012 NA
HETATM    7  N   UNL     1      39.287 -12.218   5.467  1.00  0.00     0.033 NA
HETATM    8  N   UNL     1      39.261 -12.384   4.095  1.00  0.00     0.030 NA
HETATM    9  C   UNL     1      40.947 -15.322   5.223  1.00  0.00     0.216 A 
HETATM   10  C   UNL     1      41.005 -16.077   3.900  1.00  0.00     0.063 A 
HETATM   11  H   UNL     1      39.665 -13.887   1.861  1.00  0.00     0.184 HD
ENDROOT
BRANCH  10  12
HETATM   12  C   UNL     1      41.520 -17.463   4.038  1.00  0.00     0.256 C 
HETATM   13  N   UNL     1      42.657 -17.698   3.300  1.00  0.00    -0.323 N 
HETATM   14  H   UNL     1      43.056 -16.901   2.817  1.00  0.00     0.169 HD
HETATM   15  O   UNL     1      40.938 -18.228   4.796  1.00  0.00    -0.267 OA
BRANCH  13  16
HETATM   16  C   UNL     1      43.344 -18.920   3.153  1.00  0.00     0.035 A 
HETATM   17  C   UNL     1      44.276 -19.407   4.071  1.00  0.00     0.029 A 
HETATM   18  C   UNL     1      44.900 -20.640   3.861  1.00  0.00     0.002 A 
HETATM   19  C   UNL     1      44.591 -21.403   2.737  1.00  0.00     0.000 A 
HETATM   20  C   UNL     1      43.662 -20.928   1.816  1.00  0.00     0.002 A 
HETATM   21  C   UNL     1      43.044 -19.690   2.020  1.00  0.00     0.029 A 
ENDBRANCH  13  16
ENDBRANCH  10  12
BRANCH   9  22
HETATM   22  C   UNL     1      42.328 -15.091   5.824  1.00  0.00     0.064 A 
HETATM   23  N   UNL     1      43.063 -14.040   5.363  1.00  0.00    -0.263 NA
HETATM   24  C   UNL     1      44.268 -13.823   5.936  1.00  0.00     0.117 A 
HETATM   25  C   UNL     1      44.792 -14.607   6.949  1.00  0.00     0.019 A 
HETATM   26  C   UNL     1      44.038 -15.679   7.407  1.00  0.00     0.003 A 
HETATM   27  C   UNL     1      42.790 -15.928   6.843  1.00  0.00     0.030 A 
ENDBRANCH   9  22
TORSDOF 3
ENDMDL
MODEL 3
REMARK VINA RESULT:      -8.1      2.506      3.322
REMARK  3 active torsions:
REMARK  status: ('A' for Active; 'I' for Inactive)
REMARK    1  A    between atoms: C_9  and  C_10 
REMARK    2  A    between atoms: C_16  and  C_17 
REMARK       I    between atoms: C_17  and  N_18 
REMARK    3  A    between atoms: N_18  and  C_19 
ROOT
HETATM    1  C   UNL     1      40.928 -16.654   6.673  1.00  0.00     0.070 C 
HETATM    2  C   UNL     1      40.730 -15.389   5.877  1.00  0.00     0.037 A 
HETATM    3  N   UNL     1      39.813 -14.483   6.403  1.00  0.00    -0.191 N 
HETATM    4  C   UNL     1      39.654 -13.236   5.914  1.00  0.00     0.735 A 
HETATM    5  N   UNL     1      40.327 -12.870   4.782  1.00  0.00    -0.091 N 
HETATM    6  N   UNL     1      40.148 -11.560   4.539  1.00  0.00     0.012 NA
HETATM    7  N   UNL     1      39.296 -11.162   5.480  1.00  0.00     0.033 NA
HETATM    8  N   UNL     1      38.985 -12.194   6.345  1.00  0.00     0.030 NA
HETATM    9  C   UNL     1      41.234 -13.735   4.039  1.00  0.00     0.216 A 
HETATM   10  C   UNL     1      41.412 -15.072   4.749  1.00  0.00     0.063 A 
HETATM   11  H   UNL     1      39.364 -14.722   7.284  1.00  0.00     0.184 HD
ENDROOT
BRANCH  10  12
HETATM   12  C   UNL     1      42.448 -15.933   4.125  1.00  0.00     0.256 C 
HETATM   13  N   UNL     1      42.036 -17.233   3.936  1.00  0.00    -0.323 N 
HETATM   14  H   UNL     1      41.070 -17.439   4.164  1.00  0.00     0.169 HD
HETATM   15  O   UNL     1      43.515 -15.424   3.807  1.00  0.00    -0.267 OA
BRANCH  13  16
HETATM   16  C   UNL     1      42.801 -18.310   3.444  1.00  0.00     0.035 A 
HETATM   17  C   UNL     1      42.714 -18.795   2.138  1.00  0.00     0.029 A 
HETATM   18  C   UNL     1      43.523 -19.857   1.721  1.00  0.00     0.002 A 
HETATM   19  C   UNL     1      44.432 -20.436   2.603  1.00  0.00     0.000 A 
HETATM   20  C   UNL     1      44.528 -19.959   3.908  1.00  0.00     0.002 A 
HETATM   21  C   UNL     1      43.713 -18.904   4.327  1.00  0.00     0.029 A 
ENDBRANCH  13  16
ENDBRANCH  10  12
BRANCH   9  22
HETATM   22  C   UNL     1      40.704 -13.894   2.619  1.00  0.00     0.064 A 
HETATM   23  N   UNL     1      41.509 -13.515   1.587  1.00  0.00    -0.263 NA
HETATM   24  C   UNL     1      41.042 -13.702   0.332  1.00  0.00     0.117 A 
HETATM   25  C   UNL     1      39.801 -14.244   0.044  1.00  0.00     0.019 A 
HETATM   26  C   UNL     1      38.986 -14.621   1.103  1.00  0.00     0.003 A 
HETATM   27  C   UNL     1      39.439 -14.447   2.408  1.00  0.00     0.030 A 
ENDBRANCH   9  22
TORSDOF 3
ENDMDL
MODEL 4
REMARK VINA RESULT:      -8.0      2.501      2.960
REMARK  3 active torsions:
REMARK  status: ('A' for Active; 'I' for Inactive)
REMARK    1  A    between atoms: C_9  and  C_10 
REMARK    2  A    between atoms: C_16  and  C_17 
REMARK       I    between atoms: C_17  and  N_18 
REMARK    3  A    between atoms: N_18  and  C_19 
ROOT
HETATM    1  C   UNL     1      40.467 -16.896   6.579  1.00  0.00     0.070 C 
HETATM    2  C   UNL     1      40.725 -15.694   5.708  1.00  0.00     0.037 A 
HETATM    3  N   UNL     1      40.518 -14.456   6.311  1.00  0.00    -0.191 N 
HETATM    4  C   UNL     1      40.872 -13.291   5.732  1.00  0.00     0.735 A 
HETATM    5  N   UNL     1      41.347 -13.298   4.451  1.00  0.00    -0.091 N 
HETATM    6  N   UNL     1      41.774 -12.070   4.108  1.00  0.00     0.012 NA
HETATM    7  N   UNL     1      41.473 -11.310   5.157  1.00  0.00     0.033 NA
HETATM    8  N   UNL     1      40.916 -12.058   6.176  1.00  0.00     0.030 NA
HETATM    9  C   UNL     1      41.516 -14.492   3.635  1.00  0.00     0.216 A 
HETATM   10  C   UNL     1      41.186 -15.748   4.434  1.00  0.00     0.063 A 
HETATM   11  H   UNL     1      40.232 -14.448   7.288  1.00  0.00     0.184 HD
ENDROOT
BRANCH  10  12
HETATM   12  C   UNL     1      41.493 -17.004   3.705  1.00  0.00     0.256 C 
HETATM   13  N   UNL     1      42.661 -17.604   4.120  1.00  0.00    -0.323 N 
HETATM   14  H   UNL     1      43.131 -17.180   4.911  1.00  0.00     0.169 HD
HETATM   15  O   UNL     1      40.695 -17.401   2.866  1.00  0.00    -0.267 OA
BRANCH  13  16
HETATM   16  C   UNL     1      43.268 -18.757   3.582  1.00  0.00     0.035 A 
HETATM   17  C   UNL     1      43.041 -19.226   2.287  1.00  0.00     0.029 A 
HETATM   18  C   UNL     1      43.699 -20.368   1.821  1.00  0.00     0.002 A 
HETATM   19  C   UNL     1      44.598 -21.046   2.642  1.00  0.00     0.000 A 
HETATM   20  C   UNL     1      44.833 -20.586   3.935  1.00  0.00     0.002 A 
HETATM   21  C   UNL     1      44.168 -19.449   4.404  1.00  0.00     0.029 A 
ENDBRANCH  13  16
ENDBRANCH  10  12
BRANCH   9  22
HETATM   22  C   UNL     1      40.657 -14.355   2.384  1.00  0.00     0.064 A 
HETATM   23  N   UNL     1      39.304 -14.296   2.536  1.00  0.00    -0.263 NA
HETATM   24  C   UNL     1      38.558 -14.131   1.421  1.00  0.00     0.117 A 
HETATM   25  C   UNL     1      39.088 -14.027   0.146  1.00  0.00     0.019 A 
HETATM   26  C   UNL     1      40.468 -14.094   0.002  1.00  0.00     0.003 A 
HETATM   27  C   UNL     1      41.266 -14.258   1.130  1.00  0.00     0.030 A 
ENDBRANCH   9  22
TORSDOF 3
ENDMDL
MODEL 5
REMARK VINA RESULT:      -7.8      2.644      5.266
REMARK  3 active torsions:
REMARK  status: ('A' for Active; 'I' for Inactive)
REMARK    1  A    between atoms: C_9  and  C_10 
REMARK    2  A    between atoms: C_16  and  C_17 
REMARK       I    between atoms: C_17  and  N_18 
REMARK    3  A    between atoms: N_18  and  C_19 
ROOT
HETATM    1  C   UNL     1      43.652 -17.696   1.062  1.00  0.00     0.070 C 
HETATM    2  C   UNL     1      42.542 -16.679   1.127  1.00  0.00     0.037 A 
HETATM    3  N   UNL     1      42.278 -15.996  -0.058  1.00  0.00    -0.191 N 
HETATM    4  C   UNL     1      41.208 -15.191  -0.215  1.00  0.00     0.735 A 
HETATM    5  N   UNL     1      40.404 -14.929   0.857  1.00  0.00    -0.091 N 
HETATM    6  N   UNL     1      39.324 -14.229   0.467  1.00  0.00     0.012 NA
HETATM    7  N   UNL     1      39.529 -13.999  -0.827  1.00  0.00     0.033 NA
HETATM    8  N   UNL     1      40.695 -14.596  -1.265  1.00  0.00     0.030 NA
HETATM    9  C   UNL     1      40.604 -15.466   2.196  1.00  0.00     0.216 A 
HETATM   10  C   UNL     1      41.774 -16.442   2.220  1.00  0.00     0.063 A 
HETATM   11  H   UNL     1      42.830 -16.242  -0.877  1.00  0.00     0.184 HD
ENDROOT
BRANCH  10  12
HETATM   12  C   UNL     1      41.926 -17.144   3.520  1.00  0.00     0.256 C 
HETATM   13  N   UNL     1      42.874 -16.574   4.339  1.00  0.00    -0.323 N 
HETATM   14  H   UNL     1      43.299 -15.715   4.011  1.00  0.00     0.169 HD
HETATM   15  O   UNL     1      41.197 -18.098   3.756  1.00  0.00    -0.267 OA
BRANCH  13  16
HETATM   16  C   UNL     1      43.310 -17.041   5.596  1.00  0.00     0.035 A 
HETATM   17  C   UNL     1      42.730 -16.669   6.810  1.00  0.00     0.029 A 
HETATM   18  C   UNL     1      43.210 -17.193   8.014  1.00  0.00     0.002 A 
HETATM   19  C   UNL     1      44.267 -18.100   8.015  1.00  0.00     0.000 A 
HETATM   20  C   UNL     1      44.852 -18.479   6.810  1.00  0.00     0.002 A 
HETATM   21  C   UNL     1      44.379 -17.948   5.606  1.00  0.00     0.029 A 
ENDBRANCH  13  16
ENDBRANCH  10  12
BRANCH   9  22
HETATM   22  C   UNL     1      40.792 -14.306   3.165  1.00  0.00     0.064 A 
HETATM   23  N   UNL     1      41.950 -13.591   3.095  1.00  0.00    -0.263 NA
HETATM   24  C   UNL     1      42.083 -12.538   3.933  1.00  0.00     0.117 A 
HETATM   25  C   UNL     1      41.121 -12.156   4.852  1.00  0.00     0.019 A 
HETATM   26  C   UNL     1      39.947 -12.895   4.919  1.00  0.00     0.003 A 
HETATM   27  C   UNL     1      39.775 -13.983   4.067  1.00  0.00     0.030 A 
ENDBRANCH   9  22
TORSDOF 3
ENDMDL
MODEL 6
REMARK VINA RESULT:      -7.6      2.671      4.568
REMARK  3 active torsions:
REMARK  status: ('A' for Active; 'I' for Inactive)
REMARK    1  A    between atoms: C_9  and  C_10 
REMARK    2  A    between atoms: C_16  and  C_17 
REMARK       I    between atoms: C_17  and  N_18 
REMARK    3  A    between atoms: N_18  and  C_19 
ROOT
HETATM    1  C   UNL     1      41.277 -15.485  -0.726  1.00  0.00     0.070 C 
HETATM    2  C   UNL     1      40.949 -14.836   0.594  1.00  0.00     0.037 A 
HETATM    3  N   UNL     1      40.565 -13.499   0.530  1.00  0.00    -0.191 N 
HETATM    4  C   UNL     1      40.070 -12.828   1.590  1.00  0.00     0.735 A 
HETATM    5  N   UNL     1      40.046 -13.435   2.814  1.00  0.00    -0.091 N 
HETATM    6  N   UNL     1      39.392 -12.664   3.701  1.00  0.00     0.012 NA
HETATM    7  N   UNL     1      39.101 -11.556   3.026  1.00  0.00     0.033 NA
HETATM    8  N   UNL     1      39.513 -11.648   1.710  1.00  0.00     0.030 NA
HETATM    9  C   UNL     1      40.517 -14.787   3.080  1.00  0.00     0.216 A 
HETATM   10  C   UNL     1      40.949 -15.475   1.790  1.00  0.00     0.063 A 
HETATM   11  H   UNL     1      40.514 -13.065  -0.389  1.00  0.00     0.184 HD
ENDROOT
BRANCH  10  12
HETATM   12  C   UNL     1      41.288 -16.908   1.975  1.00  0.00     0.256 C 
HETATM   13  N   UNL     1      42.532 -17.108   2.531  1.00  0.00    -0.323 N 
HETATM   14  H   UNL     1      43.036 -16.278   2.820  1.00  0.00     0.169 HD
HETATM   15  O   UNL     1      40.452 -17.749   1.670  1.00  0.00    -0.267 OA
BRANCH  13  16
HETATM   16  C   UNL     1      43.178 -18.339   2.762  1.00  0.00     0.035 A 
HETATM   17  C   UNL     1      43.256 -19.367   1.822  1.00  0.00     0.029 A 
HETATM   18  C   UNL     1      43.934 -20.553   2.123  1.00  0.00     0.002 A 
HETATM   19  C   UNL     1      44.547 -20.717   3.362  1.00  0.00     0.000 A 
HETATM   20  C   UNL     1      44.476 -19.697   4.307  1.00  0.00     0.002 A 
HETATM   21  C   UNL     1      43.791 -18.515   4.010  1.00  0.00     0.029 A 
ENDBRANCH  13  16
ENDBRANCH  10  12
BRANCH   9  22
HETATM   22  C   UNL     1      41.639 -14.720   4.109  1.00  0.00     0.064 A 
HETATM   23  N   UNL     1      41.552 -15.522   5.209  1.00  0.00    -0.263 NA
HETATM   24  C   UNL     1      42.575 -15.482   6.091  1.00  0.00     0.117 A 
HETATM   25  C   UNL     1      43.690 -14.675   5.944  1.00  0.00     0.019 A 
HETATM   26  C   UNL     1      43.766 -13.858   4.823  1.00  0.00     0.003 A 
HETATM   27  C   UNL     1      42.732 -13.878   3.891  1.00  0.00     0.030 A 
ENDBRANCH   9  22
TORSDOF 3
ENDMDL
MODEL 7
REMARK VINA RESULT:      -7.6      4.310      5.641
REMARK  3 active torsions:
REMARK  status: ('A' for Active; 'I' for Inactive)
REMARK    1  A    between atoms: C_9  and  C_10 
REMARK    2  A    between atoms: C_16  and  C_17 
REMARK       I    between atoms: C_17  and  N_18 
REMARK    3  A    between atoms: N_18  and  C_19 
ROOT
HETATM    1  C   UNL     1      41.487 -12.592   3.169  1.00  0.00     0.070 C 
HETATM    2  C   UNL     1      41.693 -12.536   1.677  1.00  0.00     0.037 A 
HETATM    3  N   UNL     1      41.858 -11.264   1.137  1.00  0.00    -0.191 N 
HETATM    4  C   UNL     1      42.228 -11.054  -0.143  1.00  0.00     0.735 A 
HETATM    5  N   UNL     1      42.336 -12.119  -0.992  1.00  0.00    -0.091 N 
HETATM    6  N   UNL     1      42.849 -11.722  -2.170  1.00  0.00     0.012 NA
HETATM    7  N   UNL     1      42.966 -10.403  -2.053  1.00  0.00     0.033 NA
HETATM    8  N   UNL     1      42.588  -9.975  -0.795  1.00  0.00     0.030 NA
HETATM    9  C   UNL     1      42.086 -13.505  -0.621  1.00  0.00     0.216 A 
HETATM   10  C   UNL     1      41.783 -13.622   0.869  1.00  0.00     0.063 A 
HETATM   11  H   UNL     1      41.848 -10.473   1.778  1.00  0.00     0.184 HD
ENDROOT
BRANCH  10  12
HETATM   12  C   UNL     1      41.676 -15.027   1.336  1.00  0.00     0.256 C 
HETATM   13  N   UNL     1      42.883 -15.567   1.721  1.00  0.00    -0.323 N 
HETATM   14  H   UNL     1      43.679 -14.941   1.720  1.00  0.00     0.169 HD
HETATM   15  O   UNL     1      40.568 -15.545   1.377  1.00  0.00    -0.267 OA
BRANCH  13  16
HETATM   16  C   UNL     1      43.134 -16.891   2.136  1.00  0.00     0.035 A 
HETATM   17  C   UNL     1      43.387 -17.948   1.260  1.00  0.00     0.029 A 
HETATM   18  C   UNL     1      43.647 -19.230   1.754  1.00  0.00     0.002 A 
HETATM   19  C   UNL     1      43.666 -19.464   3.127  1.00  0.00     0.000 A 
HETATM   20  C   UNL     1      43.417 -18.417   4.009  1.00  0.00     0.002 A 
HETATM   21  C   UNL     1      43.148 -17.137   3.516  1.00  0.00     0.029 A 
ENDBRANCH  13  16
ENDBRANCH  10  12
BRANCH   9  22
HETATM   22  C   UNL     1      40.958 -14.047  -1.490  1.00  0.00     0.064 A 
HETATM   23  N   UNL     1      39.721 -13.489  -1.360  1.00  0.00    -0.263 NA
HETATM   24  C   UNL     1      38.741 -13.951  -2.169  1.00  0.00     0.117 A 
HETATM   25  C   UNL     1      38.922 -14.954  -3.105  1.00  0.00     0.019 A 
HETATM   26  C   UNL     1      40.185 -15.520  -3.225  1.00  0.00     0.003 A 
HETATM   27  C   UNL     1      41.218 -15.064  -2.412  1.00  0.00     0.030 A 
ENDBRANCH   9  22
TORSDOF 3
ENDMDL
MODEL 8
REMARK VINA RESULT:      -7.5      2.396      5.953
REMARK  3 active torsions:
REMARK  status: ('A' for Active; 'I' for Inactive)
REMARK    1  A    between atoms: C_9  and  C_10 
REMARK    2  A    between atoms: C_16  and  C_17 
REMARK       I    between atoms: C_17  and  N_18 
REMARK    3  A    between atoms: N_18  and  C_19 
ROOT
HETATM    1  C   UNL     1      43.229 -19.851   2.086  1.00  0.00     0.070 C 
HETATM    2  C   UNL     1      43.398 -18.997   3.316  1.00  0.00     0.037 A 
HETATM    3  N   UNL     1      43.518 -19.687   4.519  1.00  0.00    -0.191 N 
HETATM    4  C   UNL     1      43.853 -19.085   5.679  1.00  0.00     0.735 A 
HETATM    5  N   UNL     1      43.968 -17.724   5.717  1.00  0.00    -0.091 N 
HETATM    6  N   UNL     1      44.443 -17.333   6.913  1.00  0.00     0.012 NA
HETATM    7  N   UNL     1      44.529 -18.456   7.619  1.00  0.00     0.033 NA
HETATM    8  N   UNL     1      44.170 -19.554   6.861  1.00  0.00     0.030 NA
HETATM    9  C   UNL     1      43.760 -16.841   4.578  1.00  0.00     0.216 A 
HETATM   10  C   UNL     1      43.496 -17.644   3.309  1.00  0.00     0.063 A 
HETATM   11  H   UNL     1      43.504 -20.704   4.484  1.00  0.00     0.184 HD
ENDROOT
BRANCH  10  12
HETATM   12  C   UNL     1      43.435 -16.805   2.086  1.00  0.00     0.256 C 
HETATM   13  N   UNL     1      42.208 -16.213   1.891  1.00  0.00    -0.323 N 
HETATM   14  H   UNL     1      41.520 -16.344   2.623  1.00  0.00     0.169 HD
HETATM   15  O   UNL     1      44.450 -16.684   1.412  1.00  0.00    -0.267 OA
BRANCH  13  16
HETATM   16  C   UNL     1      41.803 -15.426   0.794  1.00  0.00     0.035 A 
HETATM   17  C   UNL     1      41.805 -14.030   0.792  1.00  0.00     0.029 A 
HETATM   18  C   UNL     1      41.406 -13.322  -0.346  1.00  0.00     0.002 A 
HETATM   19  C   UNL     1      41.011 -14.003  -1.495  1.00  0.00     0.000 A 
HETATM   20  C   UNL     1      41.006 -15.395  -1.505  1.00  0.00     0.002 A 
HETATM   21  C   UNL     1      41.396 -16.103  -0.364  1.00  0.00     0.029 A 
ENDBRANCH  13  16
ENDBRANCH  10  12
BRANCH   9  22
HETATM   22  C   UNL     1      42.626 -15.878   4.906  1.00  0.00     0.064 A 
HETATM   23  N   UNL     1      42.802 -14.556   4.622  1.00  0.00    -0.263 NA
HETATM   24  C   UNL     1      41.770 -13.722   4.880  1.00  0.00     0.117 A 
HETATM   25  C   UNL     1      40.562 -14.131   5.418  1.00  0.00     0.019 A 
HETATM   26  C   UNL     1      40.396 -15.479   5.708  1.00  0.00     0.003 A 
HETATM   27  C   UNL     1      41.436 -16.367   5.451  1.00  0.00     0.030 A 
ENDBRANCH   9  22
TORSDOF 3
ENDMDL
MODEL 9
REMARK VINA RESULT:      -7.4      2.138      6.222
REMARK  3 active torsions:
REMARK  status: ('A' for Active; 'I' for Inactive)
REMARK    1  A    between atoms: C_9  and  C_10 
REMARK    2  A    between atoms: C_16  and  C_17 
REMARK       I    between atoms: C_17  and  N_18 
REMARK    3  A    between atoms: N_18  and  C_19 
ROOT
HETATM    1  C   UNL     1      44.514 -17.323   6.673  1.00  0.00     0.070 C 
HETATM    2  C   UNL     1      43.972 -17.848   5.369  1.00  0.00     0.037 A 
HETATM    3  N   UNL     1      44.770 -18.784   4.716  1.00  0.00    -0.191 N 
HETATM    4  C   UNL     1      44.351 -19.479   3.639  1.00  0.00     0.735 A 
HETATM    5  N   UNL     1      43.140 -19.181   3.080  1.00  0.00    -0.091 N 
HETATM    6  N   UNL     1      42.844 -20.071   2.115  1.00  0.00     0.012 NA
HETATM    7  N   UNL     1      43.920 -20.848   2.040  1.00  0.00     0.033 NA
HETATM    8  N   UNL     1      44.863 -20.494   2.986  1.00  0.00     0.030 NA
HETATM    9  C   UNL     1      42.232 -18.152   3.566  1.00  0.00     0.216 A 
HETATM   10  C   UNL     1      42.766 -17.515   4.844  1.00  0.00     0.063 A 
HETATM   11  H   UNL     1      45.640 -19.060   5.167  1.00  0.00     0.184 HD
ENDROOT
BRANCH  10  12
HETATM   12  C   UNL     1      41.808 -16.572   5.474  1.00  0.00     0.256 C 
HETATM   13  N   UNL     1      41.917 -15.285   4.997  1.00  0.00    -0.323 N 
HETATM   14  H   UNL     1      42.565 -15.139   4.232  1.00  0.00     0.169 HD
HETATM   15  O   UNL     1      41.013 -17.010   6.295  1.00  0.00    -0.267 OA
BRANCH  13  16
HETATM   16  C   UNL     1      41.213 -14.147   5.439  1.00  0.00     0.035 A 
HETATM   17  C   UNL     1      39.820 -14.062   5.490  1.00  0.00     0.029 A 
HETATM   18  C   UNL     1      39.198 -12.901   5.961  1.00  0.00     0.002 A 
HETATM   19  C   UNL     1      39.962 -11.821   6.395  1.00  0.00     0.000 A 
HETATM   20  C   UNL     1      41.351 -11.895   6.350  1.00  0.00     0.002 A 
HETATM   21  C   UNL     1      41.974 -13.052   5.870  1.00  0.00     0.029 A 
ENDBRANCH  13  16
ENDBRANCH  10  12
BRANCH   9  22
HETATM   22  C   UNL     1      42.010 -17.133   2.455  1.00  0.00     0.064 A 
HETATM   23  N   UNL     1      43.054 -16.331   2.100  1.00  0.00    -0.263 NA
HETATM   24  C   UNL     1      42.853 -15.461   1.084  1.00  0.00     0.117 A 
HETATM   25  C   UNL     1      41.657 -15.338   0.399  1.00  0.00     0.019 A 
HETATM   26  C   UNL     1      40.599 -16.156   0.773  1.00  0.00     0.003 A 
HETATM   27  C   UNL     1      40.772 -17.066   1.811  1.00  0.00     0.030 A 
ENDBRANCH   9  22
TORSDOF 3
ENDMDL
MODEL 10
REMARK VINA RESULT:      -7.2      2.793      6.472
REMARK  3 active torsions:
REMARK  status: ('A' for Active; 'I' for Inactive)
REMARK    1  A    between atoms: C_9  and  C_10 
REMARK    2  A    between atoms: C_16  and  C_17 
REMARK       I    between atoms: C_17  and  N_18 
REMARK    3  A    between atoms: N_18  and  C_19 
ROOT
HETATM    1  C   UNL     1      44.970 -13.930   6.993  1.00  0.00     0.070 C 
HETATM    2  C   UNL     1      44.329 -15.184   6.457  1.00  0.00     0.037 A 
HETATM    3  N   UNL     1      44.859 -16.382   6.930  1.00  0.00    -0.191 N 
HETATM    4  C   UNL     1      44.287 -17.580   6.691  1.00  0.00     0.735 A 
HETATM    5  N   UNL     1      43.210 -17.652   5.854  1.00  0.00    -0.091 N 
HETATM    6  N   UNL     1      42.703 -18.898   5.858  1.00  0.00     0.012 NA
HETATM    7  N   UNL     1      43.532 -19.591   6.632  1.00  0.00     0.033 NA
HETATM    8  N   UNL     1      44.520 -18.782   7.161  1.00  0.00     0.030 NA
HETATM    9  C   UNL     1      42.602 -16.512   5.183  1.00  0.00     0.216 A 
HETATM   10  C   UNL     1      43.265 -15.210   5.616  1.00  0.00     0.063 A 
HETATM   11  H   UNL     1      45.615 -16.329   7.609  1.00  0.00     0.184 HD
ENDROOT
BRANCH  10  12
HETATM   12  C   UNL     1      42.584 -14.001   5.088  1.00  0.00     0.256 C 
HETATM   13  N   UNL     1      41.448 -13.665   5.789  1.00  0.00    -0.323 N 
HETATM   14  H   UNL     1      41.247 -14.215   6.615  1.00  0.00     0.169 HD
HETATM   15  O   UNL     1      43.094 -13.410   4.144  1.00  0.00    -0.267 OA
BRANCH  13  16
HETATM   16  C   UNL     1      40.539 -12.627   5.498  1.00  0.00     0.035 A 
HETATM   17  C   UNL     1      40.387 -11.481   6.281  1.00  0.00     0.029 A 
HETATM   18  C   UNL     1      39.475 -10.487   5.913  1.00  0.00     0.002 A 
HETATM   19  C   UNL     1      38.716 -10.625   4.753  1.00  0.00     0.000 A 
HETATM   20  C   UNL     1      38.861 -11.762   3.964  1.00  0.00     0.002 A 
HETATM   21  C   UNL     1      39.765 -12.761   4.337  1.00  0.00     0.029 A 
ENDBRANCH  13  16
ENDBRANCH  10  12
BRANCH   9  22
HETATM   22  C   UNL     1      42.680 -16.733   3.677  1.00  0.00     0.064 A 
HETATM   23  N   UNL     1      41.520 -16.697   2.961  1.00  0.00    -0.263 NA
HETATM   24  C   UNL     1      41.611 -16.853   1.621  1.00  0.00     0.117 A 
HETATM   25  C   UNL     1      42.803 -17.052   0.946  1.00  0.00     0.019 A 
HETATM   26  C   UNL     1      43.977 -17.093   1.686  1.00  0.00     0.003 A 
HETATM   27  C   UNL     1      43.921 -16.931   3.067  1.00  0.00     0.030 A 
ENDBRANCH   9  22
TORSDOF 3
ENDMDL
