MODEL 1
REMARK VINA RESULT:      -9.4      0.000      0.000
REMARK  7 active torsions:
REMARK  status: ('A' for Active; 'I' for Inactive)
REMARK    1  A    between atoms: O_2  and  C_3 
REMARK    2  A    between atoms: C_5  and  C_15 
REMARK    3  A    between atoms: C_8  and  C_9 
REMARK       I    between atoms: C_15  and  N_17 
REMARK    4  A    between atoms: N_17  and  C_18 
REMARK    5  A    between atoms: C_18  and  C_19 
REMARK    6  A    between atoms: C_23  and  C_25 
REMARK       I    between atoms: C_25  and  N_27 
REMARK    7  A    between atoms: N_27  and  C_28 
ROOT
HETATM    1  C   UNL     1      40.902 -12.262   4.240  1.00  0.00    -0.040 A 
HETATM    2  C   UNL     1      39.592 -12.747   4.371  1.00  0.00     0.009 A 
HETATM    3  C   UNL     1      38.874 -12.533   5.546  1.00  0.00     0.002 A 
HETATM    4  C   UNL     1      39.459 -11.837   6.603  1.00  0.00     0.017 A 
HETATM    5  C   UNL     1      40.771 -11.358   6.501  1.00  0.00     0.033 A 
HETATM    6  C   UNL     1      41.487 -11.570   5.314  1.00  0.00     0.026 A 
ENDROOT
BRANCH   1   7
HETATM    7  C   UNL     1      41.678 -12.488   2.967  1.00  0.00     0.161 C 
BRANCH   7   8
HETATM    8  N   UNL     1      42.000 -13.885   2.787  1.00  0.00    -0.353 N 
HETATM    9  C   UNL     1      43.228 -14.395   3.150  1.00  0.00     0.252 C 
HETATM   10  O   UNL     1      44.127 -13.716   3.634  1.00  0.00    -0.268 OA
HETATM   11  H   UNL     1      41.230 -14.518   2.631  1.00  0.00     0.163 HD
BRANCH   9  12
HETATM   12  C   UNL     1      43.413 -15.863   2.953  1.00  0.00     0.034 A 
HETATM   13  C   UNL     1      43.210 -16.716   4.047  1.00  0.00     0.054 A 
HETATM   14  C   UNL     1      43.377 -18.103   3.917  1.00  0.00     0.080 A 
HETATM   15  C   UNL     1      43.763 -18.644   2.671  1.00  0.00     0.010 A 
HETATM   16  C   UNL     1      43.983 -17.776   1.587  1.00  0.00     0.016 A 
HETATM   17  C   UNL     1      43.814 -16.396   1.725  1.00  0.00     0.018 A 
BRANCH  14  18
HETATM   18  O   UNL     1      43.174 -18.992   4.944  1.00  0.00    -0.355 OA
HETATM   19  C   UNL     1      44.055 -18.941   6.058  1.00  0.00     0.210 C 
ENDBRANCH  14  18
BRANCH  15  20
HETATM   20  C   UNL     1      43.967 -20.075   2.478  1.00  0.00     0.013 A 
HETATM   21  C   UNL     1      43.229 -21.028   1.739  1.00  0.00     0.152 A 
HETATM   22  N   UNL     1      43.742 -22.260   1.824  1.00  0.00    -0.187 NA
HETATM   23  N   UNL     1      44.822 -22.095   2.601  1.00  0.00    -0.289 N 
HETATM   24  H   UNL     1      45.398 -22.907   2.800  1.00  0.00     0.188 HD
HETATM   25  C   UNL     1      44.998 -20.809   3.026  1.00  0.00     0.123 A 
ENDBRANCH  15  20
ENDBRANCH   9  12
ENDBRANCH   7   8
ENDBRANCH   1   7
BRANCH   5  26
HETATM   26  C   UNL     1      41.331 -10.592   7.658  1.00  0.00     0.257 C 
HETATM   27  O   UNL     1      42.096  -9.667   7.410  1.00  0.00    -0.267 OA
HETATM   28  N   UNL     1      40.905 -10.999   8.902  1.00  0.00    -0.301 N 
HETATM   29  H   UNL     1      40.197 -11.705   9.018  1.00  0.00     0.171 HD
BRANCH  28  30
HETATM   30  C   UNL     1      41.383 -10.434  10.053  1.00  0.00     0.174 A 
HETATM   31  N   UNL     1      42.424 -10.763  10.777  1.00  0.00    -0.228 NA
HETATM   32  C   UNL     1      42.499  -9.918  11.860  1.00  0.00     0.054 A 
HETATM   33  C   UNL     1      43.589 -10.007  12.870  1.00  0.00     0.090 C 
HETATM   34  C   UNL     1      41.512  -8.958  11.936  1.00  0.00     0.039 A 
HETATM   35  C   UNL     1      43.231  -9.152  14.109  1.00  0.00     0.276 C 
HETATM   36  N   UNL     1      42.664  -7.825  13.769  1.00  0.00     0.088 N 
HETATM   37  C   UNL     1      41.385  -7.964  13.037  1.00  0.00     0.317 C 
HETATM   38  H   UNL     1      43.323  -7.344  13.156  1.00  0.00     0.316 HD
HETATM   39  S   UNL     1      40.447  -9.111  10.618  1.00  0.00    -0.053 SA
ENDBRANCH  28  30
ENDBRANCH   5  26
TORSDOF 7
ENDMDL
MODEL 2
REMARK VINA RESULT:      -9.4      3.969     11.484
REMARK  7 active torsions:
REMARK  status: ('A' for Active; 'I' for Inactive)
REMARK    1  A    between atoms: O_2  and  C_3 
REMARK    2  A    between atoms: C_5  and  C_15 
REMARK    3  A    between atoms: C_8  and  C_9 
REMARK       I    between atoms: C_15  and  N_17 
REMARK    4  A    between atoms: N_17  and  C_18 
REMARK    5  A    between atoms: C_18  and  C_19 
REMARK    6  A    between atoms: C_23  and  C_25 
REMARK       I    between atoms: C_25  and  N_27 
REMARK    7  A    between atoms: N_27  and  C_28 
ROOT
HETATM    1  C   UNL     1      43.884 -15.367   6.652  1.00  0.00    -0.040 A 
HETATM    2  C   UNL     1      43.622 -16.447   7.508  1.00  0.00     0.009 A 
HETATM    3  C   UNL     1      42.713 -17.437   7.138  1.00  0.00     0.002 A 
HETATM    4  C   UNL     1      42.053 -17.354   5.913  1.00  0.00     0.017 A 
HETATM    5  C   UNL     1      42.286 -16.276   5.049  1.00  0.00     0.033 A 
HETATM    6  C   UNL     1      43.206 -15.286   5.423  1.00  0.00     0.026 A 
ENDROOT
BRANCH   1   7
HETATM    7  C   UNL     1      44.872 -14.299   7.048  1.00  0.00     0.161 C 
BRANCH   7   8
HETATM    8  N   UNL     1      44.328 -13.430   8.066  1.00  0.00    -0.353 N 
HETATM    9  C   UNL     1      45.087 -12.439   8.649  1.00  0.00     0.252 C 
HETATM   10  O   UNL     1      46.261 -12.227   8.363  1.00  0.00    -0.268 OA
HETATM   11  H   UNL     1      43.323 -13.398   8.156  1.00  0.00     0.163 HD
BRANCH   9  12
HETATM   12  C   UNL     1      44.390 -11.583   9.653  1.00  0.00     0.034 A 
HETATM   13  C   UNL     1      43.131 -11.058   9.326  1.00  0.00     0.054 A 
HETATM   14  C   UNL     1      42.435 -10.242  10.231  1.00  0.00     0.080 A 
HETATM   15  C   UNL     1      43.016  -9.940  11.483  1.00  0.00     0.010 A 
HETATM   16  C   UNL     1      44.287 -10.457  11.791  1.00  0.00     0.016 A 
HETATM   17  C   UNL     1      44.972 -11.268  10.884  1.00  0.00     0.018 A 
BRANCH  14  18
HETATM   18  O   UNL     1      41.194  -9.714   9.979  1.00  0.00    -0.355 OA
HETATM   19  C   UNL     1      40.094 -10.609   9.869  1.00  0.00     0.210 C 
ENDBRANCH  14  18
BRANCH  15  20
HETATM   20  C   UNL     1      42.348  -9.087  12.460  1.00  0.00     0.013 A 
HETATM   21  C   UNL     1      42.366  -7.683  12.635  1.00  0.00     0.152 A 
HETATM   22  N   UNL     1      41.619  -7.281  13.668  1.00  0.00    -0.187 NA
HETATM   23  N   UNL     1      41.105  -8.424  14.146  1.00  0.00    -0.289 N 
HETATM   24  H   UNL     1      40.477  -8.372  14.941  1.00  0.00     0.188 HD
HETATM   25  C   UNL     1      41.515  -9.534  13.464  1.00  0.00     0.123 A 
ENDBRANCH  15  20
ENDBRANCH   9  12
ENDBRANCH   7   8
ENDBRANCH   1   7
BRANCH   5  26
HETATM   26  C   UNL     1      41.569 -16.260   3.736  1.00  0.00     0.257 C 
HETATM   27  O   UNL     1      40.967 -17.275   3.406  1.00  0.00    -0.267 OA
HETATM   28  N   UNL     1      41.644 -15.079   3.032  1.00  0.00    -0.301 N 
HETATM   29  H   UNL     1      42.077 -14.256   3.418  1.00  0.00     0.171 HD
BRANCH  28  30
HETATM   30  C   UNL     1      41.092 -14.940   1.787  1.00  0.00     0.174 A 
HETATM   31  N   UNL     1      41.571 -15.282   0.617  1.00  0.00    -0.228 NA
HETATM   32  C   UNL     1      40.666 -14.926  -0.356  1.00  0.00     0.054 A 
HETATM   33  C   UNL     1      40.896 -15.202  -1.801  1.00  0.00     0.090 C 
HETATM   34  C   UNL     1      39.512 -14.322   0.096  1.00  0.00     0.039 A 
HETATM   35  C   UNL     1      39.872 -14.417  -2.656  1.00  0.00     0.276 C 
HETATM   36  N   UNL     1      38.492 -14.465  -2.120  1.00  0.00     0.088 N 
HETATM   37  C   UNL     1      38.417 -13.831  -0.785  1.00  0.00     0.317 C 
HETATM   38  H   UNL     1      38.224 -15.445  -2.015  1.00  0.00     0.316 HD
HETATM   39  S   UNL     1      39.551 -14.185   1.792  1.00  0.00    -0.053 SA
ENDBRANCH  28  30
ENDBRANCH   5  26
TORSDOF 7
ENDMDL
MODEL 3
REMARK VINA RESULT:      -8.8      4.463      8.371
REMARK  7 active torsions:
REMARK  status: ('A' for Active; 'I' for Inactive)
REMARK    1  A    between atoms: O_2  and  C_3 
REMARK    2  A    between atoms: C_5  and  C_15 
REMARK    3  A    between atoms: C_8  and  C_9 
REMARK       I    between atoms: C_15  and  N_17 
REMARK    4  A    between atoms: N_17  and  C_18 
REMARK    5  A    between atoms: C_18  and  C_19 
REMARK    6  A    between atoms: C_23  and  C_25 
REMARK       I    between atoms: C_25  and  N_27 
REMARK    7  A    between atoms: N_27  and  C_28 
ROOT
HETATM    1  C   UNL     1      42.477 -12.706   5.843  1.00  0.00    -0.040 A 
HETATM    2  C   UNL     1      41.645 -11.820   6.544  1.00  0.00     0.009 A 
HETATM    3  C   UNL     1      40.639 -11.120   5.879  1.00  0.00     0.002 A 
HETATM    4  C   UNL     1      40.460 -11.294   4.508  1.00  0.00     0.017 A 
HETATM    5  C   UNL     1      41.289 -12.160   3.784  1.00  0.00     0.033 A 
HETATM    6  C   UNL     1      42.295 -12.868   4.459  1.00  0.00     0.026 A 
ENDROOT
BRANCH   1   7
HETATM    7  C   UNL     1      43.560 -13.469   6.562  1.00  0.00     0.161 C 
BRANCH   7   8
HETATM    8  N   UNL     1      43.777 -14.767   5.965  1.00  0.00    -0.353 N 
HETATM    9  C   UNL     1      43.954 -15.895   6.735  1.00  0.00     0.252 C 
HETATM   10  O   UNL     1      43.951 -15.886   7.962  1.00  0.00    -0.268 OA
HETATM   11  H   UNL     1      43.543 -14.868   4.988  1.00  0.00     0.163 HD
BRANCH   9  12
HETATM   12  C   UNL     1      44.121 -17.178   5.991  1.00  0.00     0.034 A 
HETATM   13  C   UNL     1      43.305 -17.417   4.876  1.00  0.00     0.054 A 
HETATM   14  C   UNL     1      43.418 -18.609   4.145  1.00  0.00     0.080 A 
HETATM   15  C   UNL     1      44.358 -19.584   4.545  1.00  0.00     0.010 A 
HETATM   16  C   UNL     1      45.156 -19.341   5.676  1.00  0.00     0.016 A 
HETATM   17  C   UNL     1      45.038 -18.151   6.398  1.00  0.00     0.018 A 
BRANCH  14  18
HETATM   18  O   UNL     1      42.663 -18.893   3.034  1.00  0.00    -0.355 OA
HETATM   19  C   UNL     1      42.019 -17.816   2.367  1.00  0.00     0.210 C 
ENDBRANCH  14  18
BRANCH  15  20
HETATM   20  C   UNL     1      44.511 -20.848   3.835  1.00  0.00     0.013 A 
HETATM   21  C   UNL     1      44.535 -21.142   2.451  1.00  0.00     0.152 A 
HETATM   22  N   UNL     1      44.686 -22.446   2.200  1.00  0.00    -0.187 NA
HETATM   23  N   UNL     1      44.780 -22.990   3.423  1.00  0.00    -0.289 N 
HETATM   24  H   UNL     1      44.918 -23.993   3.492  1.00  0.00     0.188 HD
HETATM   25  C   UNL     1      44.674 -22.080   4.435  1.00  0.00     0.123 A 
ENDBRANCH  15  20
ENDBRANCH   9  12
ENDBRANCH   7   8
ENDBRANCH   1   7
BRANCH   5  26
HETATM   26  C   UNL     1      41.026 -12.326   2.321  1.00  0.00     0.257 C 
HETATM   27  O   UNL     1      41.327 -11.397   1.581  1.00  0.00    -0.267 OA
HETATM   28  N   UNL     1      40.483 -13.535   1.948  1.00  0.00    -0.301 N 
HETATM   29  H   UNL     1      40.356 -14.288   2.605  1.00  0.00     0.171 HD
BRANCH  28  30
HETATM   30  C   UNL     1      40.130 -13.803   0.653  1.00  0.00     0.174 A 
HETATM   31  N   UNL     1      39.017 -13.534   0.017  1.00  0.00    -0.228 NA
HETATM   32  C   UNL     1      39.111 -14.014  -1.269  1.00  0.00     0.054 A 
HETATM   33  C   UNL     1      38.020 -13.846  -2.268  1.00  0.00     0.090 C 
HETATM   34  C   UNL     1      40.299 -14.638  -1.586  1.00  0.00     0.039 A 
HETATM   35  C   UNL     1      38.286 -14.749  -3.495  1.00  0.00     0.276 C 
HETATM   36  N   UNL     1      39.695 -14.729  -3.952  1.00  0.00     0.088 N 
HETATM   37  C   UNL     1      40.602 -15.255  -2.907  1.00  0.00     0.317 C 
HETATM   38  H   UNL     1      39.958 -13.759  -4.133  1.00  0.00     0.316 HD
HETATM   39  S   UNL     1      41.339 -14.634  -0.238  1.00  0.00    -0.053 SA
ENDBRANCH  28  30
ENDBRANCH   5  26
TORSDOF 7
ENDMDL
MODEL 4
REMARK VINA RESULT:      -8.7      2.911     11.732
REMARK  7 active torsions:
REMARK  status: ('A' for Active; 'I' for Inactive)
REMARK    1  A    between atoms: O_2  and  C_3 
REMARK    2  A    between atoms: C_5  and  C_15 
REMARK    3  A    between atoms: C_8  and  C_9 
REMARK       I    between atoms: C_15  and  N_17 
REMARK    4  A    between atoms: N_17  and  C_18 
REMARK    5  A    between atoms: C_18  and  C_19 
REMARK    6  A    between atoms: C_23  and  C_25 
REMARK       I    between atoms: C_25  and  N_27 
REMARK    7  A    between atoms: N_27  and  C_28 
ROOT
HETATM    1  C   UNL     1      40.421 -13.296   5.851  1.00  0.00    -0.040 A 
HETATM    2  C   UNL     1      41.303 -12.407   5.218  1.00  0.00     0.009 A 
HETATM    3  C   UNL     1      42.377 -12.889   4.471  1.00  0.00     0.002 A 
HETATM    4  C   UNL     1      42.584 -14.262   4.354  1.00  0.00     0.017 A 
HETATM    5  C   UNL     1      41.726 -15.169   4.991  1.00  0.00     0.033 A 
HETATM    6  C   UNL     1      40.643 -14.679   5.736  1.00  0.00     0.026 A 
ENDROOT
BRANCH   1   7
HETATM    7  C   UNL     1      39.256 -12.776   6.654  1.00  0.00     0.161 C 
BRANCH   7   8
HETATM    8  N   UNL     1      39.701 -12.082   7.840  1.00  0.00    -0.353 N 
HETATM    9  C   UNL     1      39.536 -10.722   7.985  1.00  0.00     0.252 C 
HETATM   10  O   UNL     1      39.019 -10.007   7.133  1.00  0.00    -0.268 OA
HETATM   11  H   UNL     1      39.899 -12.644   8.655  1.00  0.00     0.163 HD
BRANCH   9  12
HETATM   12  C   UNL     1      39.998 -10.139   9.279  1.00  0.00     0.034 A 
HETATM   13  C   UNL     1      40.569 -10.995  10.233  1.00  0.00     0.054 A 
HETATM   14  C   UNL     1      41.013 -10.499  11.467  1.00  0.00     0.080 A 
HETATM   15  C   UNL     1      40.875  -9.123  11.756  1.00  0.00     0.010 A 
HETATM   16  C   UNL     1      40.283  -8.280  10.799  1.00  0.00     0.016 A 
HETATM   17  C   UNL     1      39.844  -8.781   9.572  1.00  0.00     0.018 A 
BRANCH  14  18
HETATM   18  O   UNL     1      41.597 -11.280  12.434  1.00  0.00    -0.355 OA
HETATM   19  C   UNL     1      42.984 -11.571  12.313  1.00  0.00     0.210 C 
ENDBRANCH  14  18
BRANCH  15  20
HETATM   20  C   UNL     1      41.305  -8.552  13.027  1.00  0.00     0.013 A 
HETATM   21  C   UNL     1      40.697  -8.561  14.304  1.00  0.00     0.152 A 
HETATM   22  N   UNL     1      41.413  -7.907  15.224  1.00  0.00    -0.187 NA
HETATM   23  N   UNL     1      42.493  -7.495  14.543  1.00  0.00    -0.289 N 
HETATM   24  H   UNL     1      43.207  -6.977  15.044  1.00  0.00     0.188 HD
HETATM   25  C   UNL     1      42.474  -7.847  13.224  1.00  0.00     0.123 A 
ENDBRANCH  15  20
ENDBRANCH   9  12
ENDBRANCH   7   8
ENDBRANCH   1   7
BRANCH   5  26
HETATM   26  C   UNL     1      41.983 -16.630   4.802  1.00  0.00     0.257 C 
HETATM   27  O   UNL     1      41.018 -17.385   4.831  1.00  0.00    -0.267 OA
HETATM   28  N   UNL     1      43.298 -16.980   4.589  1.00  0.00    -0.301 N 
HETATM   29  H   UNL     1      44.022 -16.289   4.480  1.00  0.00     0.171 HD
BRANCH  28  30
HETATM   30  C   UNL     1      43.690 -18.285   4.464  1.00  0.00     0.174 A 
HETATM   31  N   UNL     1      43.893 -18.998   3.384  1.00  0.00    -0.228 NA
HETATM   32  C   UNL     1      44.259 -20.271   3.752  1.00  0.00     0.054 A 
HETATM   33  C   UNL     1      44.590 -21.328   2.758  1.00  0.00     0.090 C 
HETATM   34  C   UNL     1      44.330 -20.501   5.110  1.00  0.00     0.039 A 
HETATM   35  C   UNL     1      44.652 -22.708   3.455  1.00  0.00     0.276 C 
HETATM   36  N   UNL     1      45.368 -22.684   4.752  1.00  0.00     0.088 N 
HETATM   37  C   UNL     1      44.677 -21.812   5.727  1.00  0.00     0.317 C 
HETATM   38  H   UNL     1      46.300 -22.298   4.595  1.00  0.00     0.316 HD
HETATM   39  S   UNL     1      43.924 -19.087   5.964  1.00  0.00    -0.053 SA
ENDBRANCH  28  30
ENDBRANCH   5  26
TORSDOF 7
ENDMDL
MODEL 5
REMARK VINA RESULT:      -8.6      2.263      2.982
REMARK  7 active torsions:
REMARK  status: ('A' for Active; 'I' for Inactive)
REMARK    1  A    between atoms: O_2  and  C_3 
REMARK    2  A    between atoms: C_5  and  C_15 
REMARK    3  A    between atoms: C_8  and  C_9 
REMARK       I    between atoms: C_15  and  N_17 
REMARK    4  A    between atoms: N_17  and  C_18 
REMARK    5  A    between atoms: C_18  and  C_19 
REMARK    6  A    between atoms: C_23  and  C_25 
REMARK       I    between atoms: C_25  and  N_27 
REMARK    7  A    between atoms: N_27  and  C_28 
ROOT
HETATM    1  C   UNL     1      38.794 -12.925   1.705  1.00  0.00    -0.040 A 
HETATM    2  C   UNL     1      37.979 -11.810   1.456  1.00  0.00     0.009 A 
HETATM    3  C   UNL     1      37.789 -10.840   2.439  1.00  0.00     0.002 A 
HETATM    4  C   UNL     1      38.406 -10.978   3.681  1.00  0.00     0.017 A 
HETATM    5  C   UNL     1      39.210 -12.091   3.959  1.00  0.00     0.033 A 
HETATM    6  C   UNL     1      39.403 -13.061   2.964  1.00  0.00     0.026 A 
ENDROOT
BRANCH   1   7
HETATM    7  C   UNL     1      39.005 -13.971   0.640  1.00  0.00     0.161 C 
BRANCH   7   8
HETATM    8  N   UNL     1      39.809 -15.067   1.130  1.00  0.00    -0.353 N 
HETATM    9  C   UNL     1      41.131 -15.211   0.769  1.00  0.00     0.252 C 
HETATM   10  O   UNL     1      41.713 -14.442   0.011  1.00  0.00    -0.268 OA
HETATM   11  H   UNL     1      39.460 -15.571   1.933  1.00  0.00     0.163 HD
BRANCH   9  12
HETATM   12  C   UNL     1      41.858 -16.360   1.383  1.00  0.00     0.034 A 
HETATM   13  C   UNL     1      41.525 -16.741   2.691  1.00  0.00     0.054 A 
HETATM   14  C   UNL     1      42.182 -17.810   3.318  1.00  0.00     0.080 A 
HETATM   15  C   UNL     1      43.199 -18.504   2.625  1.00  0.00     0.010 A 
HETATM   16  C   UNL     1      43.537 -18.100   1.322  1.00  0.00     0.016 A 
HETATM   17  C   UNL     1      42.877 -17.034   0.705  1.00  0.00     0.018 A 
BRANCH  14  18
HETATM   18  O   UNL     1      41.889 -18.244   4.587  1.00  0.00    -0.355 OA
HETATM   19  C   UNL     1      41.085 -17.411   5.411  1.00  0.00     0.210 C 
ENDBRANCH  14  18
BRANCH  15  20
HETATM   20  C   UNL     1      43.928 -19.614   3.228  1.00  0.00     0.013 A 
HETATM   21  C   UNL     1      44.595 -19.723   4.470  1.00  0.00     0.152 A 
HETATM   22  N   UNL     1      45.160 -20.921   4.652  1.00  0.00    -0.187 NA
HETATM   23  N   UNL     1      44.838 -21.591   3.536  1.00  0.00    -0.289 N 
HETATM   24  H   UNL     1      45.149 -22.552   3.446  1.00  0.00     0.188 HD
HETATM   25  C   UNL     1      44.109 -20.852   2.648  1.00  0.00     0.123 A 
ENDBRANCH  15  20
ENDBRANCH   9  12
ENDBRANCH   7   8
ENDBRANCH   1   7
BRANCH   5  26
HETATM   26  C   UNL     1      39.868 -12.166   5.300  1.00  0.00     0.257 C 
HETATM   27  O   UNL     1      40.152 -13.277   5.732  1.00  0.00    -0.267 OA
HETATM   28  N   UNL     1      40.110 -10.956   5.912  1.00  0.00    -0.301 N 
HETATM   29  H   UNL     1      39.937 -10.080   5.446  1.00  0.00     0.171 HD
BRANCH  28  30
HETATM   30  C   UNL     1      40.647 -10.873   7.168  1.00  0.00     0.174 A 
HETATM   31  N   UNL     1      41.900 -10.774   7.536  1.00  0.00    -0.228 NA
HETATM   32  C   UNL     1      41.959 -10.739   8.910  1.00  0.00     0.054 A 
HETATM   33  C   UNL     1      43.242 -10.601   9.653  1.00  0.00     0.090 C 
HETATM   34  C   UNL     1      40.745 -10.811   9.560  1.00  0.00     0.039 A 
HETATM   35  C   UNL     1      43.018 -10.909  11.153  1.00  0.00     0.276 C 
HETATM   36  N   UNL     1      41.790 -10.291  11.707  1.00  0.00     0.088 N 
HETATM   37  C   UNL     1      40.580 -10.821  11.040  1.00  0.00     0.317 C 
HETATM   38  H   UNL     1      41.829  -9.287  11.529  1.00  0.00     0.316 HD
HETATM   39  S   UNL     1      39.482 -10.929   8.426  1.00  0.00    -0.053 SA
ENDBRANCH  28  30
ENDBRANCH   5  26
TORSDOF 7
ENDMDL
MODEL 6
REMARK VINA RESULT:      -8.5      3.264      4.593
REMARK  7 active torsions:
REMARK  status: ('A' for Active; 'I' for Inactive)
REMARK    1  A    between atoms: O_2  and  C_3 
REMARK    2  A    between atoms: C_5  and  C_15 
REMARK    3  A    between atoms: C_8  and  C_9 
REMARK       I    between atoms: C_15  and  N_17 
REMARK    4  A    between atoms: N_17  and  C_18 
REMARK    5  A    between atoms: C_18  and  C_19 
REMARK    6  A    between atoms: C_23  and  C_25 
REMARK       I    between atoms: C_25  and  N_27 
REMARK    7  A    between atoms: N_27  and  C_28 
ROOT
HETATM    1  C   UNL     1      38.412 -13.014   0.007  1.00  0.00    -0.040 A 
HETATM    2  C   UNL     1      37.388 -12.313  -0.647  1.00  0.00     0.009 A 
HETATM    3  C   UNL     1      36.706 -11.288   0.007  1.00  0.00     0.002 A 
HETATM    4  C   UNL     1      37.034 -10.959   1.321  1.00  0.00     0.017 A 
HETATM    5  C   UNL     1      38.041 -11.658   2.000  1.00  0.00     0.033 A 
HETATM    6  C   UNL     1      38.730 -12.683   1.335  1.00  0.00     0.026 A 
ENDROOT
BRANCH   1   7
HETATM    7  C   UNL     1      39.156 -14.119  -0.701  1.00  0.00     0.161 C 
BRANCH   7   8
HETATM    8  N   UNL     1      39.920 -14.919   0.228  1.00  0.00    -0.353 N 
HETATM    9  C   UNL     1      40.965 -15.712  -0.192  1.00  0.00     0.252 C 
HETATM   10  O   UNL     1      41.315 -15.807  -1.364  1.00  0.00    -0.268 OA
HETATM   11  H   UNL     1      39.838 -14.691   1.208  1.00  0.00     0.163 HD
BRANCH   9  12
HETATM   12  C   UNL     1      41.699 -16.451   0.876  1.00  0.00     0.034 A 
HETATM   13  C   UNL     1      41.077 -16.620   2.122  1.00  0.00     0.054 A 
HETATM   14  C   UNL     1      41.726 -17.301   3.162  1.00  0.00     0.080 A 
HETATM   15  C   UNL     1      43.026 -17.814   2.955  1.00  0.00     0.010 A 
HETATM   16  C   UNL     1      43.647 -17.620   1.708  1.00  0.00     0.016 A 
HETATM   17  C   UNL     1      42.993 -16.941   0.677  1.00  0.00     0.018 A 
BRANCH  14  18
HETATM   18  O   UNL     1      41.164 -17.517   4.396  1.00  0.00    -0.355 OA
HETATM   19  C   UNL     1      41.001 -16.402   5.263  1.00  0.00     0.210 C 
ENDBRANCH  14  18
BRANCH  15  20
HETATM   20  C   UNL     1      43.757 -18.517   4.002  1.00  0.00     0.013 A 
HETATM   21  C   UNL     1      44.045 -19.892   4.173  1.00  0.00     0.152 A 
HETATM   22  N   UNL     1      44.742 -20.141   5.286  1.00  0.00    -0.187 NA
HETATM   23  N   UNL     1      44.920 -18.924   5.822  1.00  0.00    -0.289 N 
HETATM   24  H   UNL     1      45.448 -18.852   6.685  1.00  0.00     0.188 HD
HETATM   25  C   UNL     1      44.344 -17.919   5.098  1.00  0.00     0.123 A 
ENDBRANCH  15  20
ENDBRANCH   9  12
ENDBRANCH   7   8
ENDBRANCH   1   7
BRANCH   5  26
HETATM   26  C   UNL     1      38.368 -11.237   3.397  1.00  0.00     0.257 C 
HETATM   27  O   UNL     1      37.882 -10.187   3.803  1.00  0.00    -0.267 OA
HETATM   28  N   UNL     1      39.177 -12.098   4.104  1.00  0.00    -0.301 N 
HETATM   29  H   UNL     1      39.455 -12.992   3.733  1.00  0.00     0.171 HD
BRANCH  28  30
HETATM   30  C   UNL     1      39.610 -11.812   5.370  1.00  0.00     0.174 A 
HETATM   31  N   UNL     1      38.946 -11.800   6.499  1.00  0.00    -0.228 NA
HETATM   32  C   UNL     1      39.798 -11.432   7.514  1.00  0.00     0.054 A 
HETATM   33  C   UNL     1      39.360 -11.349   8.935  1.00  0.00     0.090 C 
HETATM   34  C   UNL     1      41.098 -11.174   7.136  1.00  0.00     0.039 A 
HETATM   35  C   UNL     1      40.434 -10.617   9.775  1.00  0.00     0.276 C 
HETATM   36  N   UNL     1      41.820 -11.046   9.467  1.00  0.00     0.088 N 
HETATM   37  C   UNL     1      42.175 -10.733   8.065  1.00  0.00     0.317 C 
HETATM   38  H   UNL     1      41.874 -12.058   9.584  1.00  0.00     0.316 HD
HETATM   39  S   UNL     1      41.272 -11.390   5.457  1.00  0.00    -0.053 SA
ENDBRANCH  28  30
ENDBRANCH   5  26
TORSDOF 7
ENDMDL
MODEL 7
REMARK VINA RESULT:      -8.4      7.785     11.804
REMARK  7 active torsions:
REMARK  status: ('A' for Active; 'I' for Inactive)
REMARK    1  A    between atoms: O_2  and  C_3 
REMARK    2  A    between atoms: C_5  and  C_15 
REMARK    3  A    between atoms: C_8  and  C_9 
REMARK       I    between atoms: C_15  and  N_17 
REMARK    4  A    between atoms: N_17  and  C_18 
REMARK    5  A    between atoms: C_18  and  C_19 
REMARK    6  A    between atoms: C_23  and  C_25 
REMARK       I    between atoms: C_25  and  N_27 
REMARK    7  A    between atoms: N_27  and  C_28 
ROOT
HETATM    1  C   UNL     1      40.468 -14.710  -1.912  1.00  0.00    -0.040 A 
HETATM    2  C   UNL     1      40.630 -15.919  -2.605  1.00  0.00     0.009 A 
HETATM    3  C   UNL     1      39.758 -16.266  -3.635  1.00  0.00     0.002 A 
HETATM    4  C   UNL     1      38.712 -15.411  -3.980  1.00  0.00     0.017 A 
HETATM    5  C   UNL     1      38.520 -14.206  -3.291  1.00  0.00     0.033 A 
HETATM    6  C   UNL     1      39.404 -13.858  -2.260  1.00  0.00     0.026 A 
ENDROOT
BRANCH   1   7
HETATM    7  C   UNL     1      41.414 -14.330  -0.802  1.00  0.00     0.161 C 
BRANCH   7   8
HETATM    8  N   UNL     1      41.956 -15.499  -0.149  1.00  0.00    -0.353 N 
HETATM    9  C   UNL     1      42.239 -15.507   1.200  1.00  0.00     0.252 C 
HETATM   10  O   UNL     1      42.067 -14.539   1.934  1.00  0.00    -0.268 OA
HETATM   11  H   UNL     1      41.882 -16.378  -0.641  1.00  0.00     0.163 HD
BRANCH   9  12
HETATM   12  C   UNL     1      42.751 -16.794   1.756  1.00  0.00     0.034 A 
HETATM   13  C   UNL     1      42.441 -17.119   3.085  1.00  0.00     0.054 A 
HETATM   14  C   UNL     1      42.903 -18.313   3.658  1.00  0.00     0.080 A 
HETATM   15  C   UNL     1      43.697 -19.193   2.890  1.00  0.00     0.010 A 
HETATM   16  C   UNL     1      44.017 -18.845   1.566  1.00  0.00     0.016 A 
HETATM   17  C   UNL     1      43.553 -17.654   1.002  1.00  0.00     0.018 A 
BRANCH  14  18
HETATM   18  O   UNL     1      42.618 -18.698   4.945  1.00  0.00    -0.355 OA
HETATM   19  C   UNL     1      42.447 -17.683   5.926  1.00  0.00     0.210 C 
ENDBRANCH  14  18
BRANCH  15  20
HETATM   20  C   UNL     1      44.218 -20.441   3.435  1.00  0.00     0.013 A 
HETATM   21  C   UNL     1      44.201 -21.759   2.922  1.00  0.00     0.152 A 
HETATM   22  N   UNL     1      44.782 -22.642   3.741  1.00  0.00    -0.187 NA
HETATM   23  N   UNL     1      45.192 -21.888   4.772  1.00  0.00    -0.289 N 
HETATM   24  H   UNL     1      45.686 -22.343   5.532  1.00  0.00     0.188 HD
HETATM   25  C   UNL     1      44.872 -20.566   4.643  1.00  0.00     0.123 A 
ENDBRANCH  15  20
ENDBRANCH   9  12
ENDBRANCH   7   8
ENDBRANCH   1   7
BRANCH   5  26
HETATM   26  C   UNL     1      37.398 -13.319  -3.728  1.00  0.00     0.257 C 
HETATM   27  O   UNL     1      37.318 -12.209  -3.214  1.00  0.00    -0.267 OA
HETATM   28  N   UNL     1      36.570 -13.840  -4.697  1.00  0.00    -0.301 N 
HETATM   29  H   UNL     1      36.761 -14.723  -5.142  1.00  0.00     0.171 HD
BRANCH  28  30
HETATM   30  C   UNL     1      35.466 -13.168  -5.146  1.00  0.00     0.174 A 
HETATM   31  N   UNL     1      34.483 -12.627  -4.470  1.00  0.00    -0.228 NA
HETATM   32  C   UNL     1      33.584 -12.076  -5.353  1.00  0.00     0.054 A 
HETATM   33  C   UNL     1      32.361 -11.355  -4.905  1.00  0.00     0.090 C 
HETATM   34  C   UNL     1      33.904 -12.207  -6.688  1.00  0.00     0.039 A 
HETATM   35  C   UNL     1      31.410 -11.135  -6.105  1.00  0.00     0.276 C 
HETATM   36  N   UNL     1      32.103 -10.688  -7.337  1.00  0.00     0.088 N 
HETATM   37  C   UNL     1      33.060 -11.713  -7.811  1.00  0.00     0.317 C 
HETATM   38  H   UNL     1      32.635  -9.845  -7.116  1.00  0.00     0.316 HD
HETATM   39  S   UNL     1      35.373 -13.049  -6.856  1.00  0.00    -0.053 SA
ENDBRANCH  28  30
ENDBRANCH   5  26
TORSDOF 7
ENDMDL
MODEL 8
REMARK VINA RESULT:      -8.4      4.719      8.232
REMARK  7 active torsions:
REMARK  status: ('A' for Active; 'I' for Inactive)
REMARK    1  A    between atoms: O_2  and  C_3 
REMARK    2  A    between atoms: C_5  and  C_15 
REMARK    3  A    between atoms: C_8  and  C_9 
REMARK       I    between atoms: C_15  and  N_17 
REMARK    4  A    between atoms: N_17  and  C_18 
REMARK    5  A    between atoms: C_18  and  C_19 
REMARK    6  A    between atoms: C_23  and  C_25 
REMARK       I    between atoms: C_25  and  N_27 
REMARK    7  A    between atoms: N_27  and  C_28 
ROOT
HETATM    1  C   UNL     1      41.576 -12.764   5.379  1.00  0.00    -0.040 A 
HETATM    2  C   UNL     1      40.325 -12.609   5.995  1.00  0.00     0.009 A 
HETATM    3  C   UNL     1      39.262 -12.035   5.299  1.00  0.00     0.002 A 
HETATM    4  C   UNL     1      39.441 -11.606   3.985  1.00  0.00     0.017 A 
HETATM    5  C   UNL     1      40.685 -11.736   3.355  1.00  0.00     0.033 A 
HETATM    6  C   UNL     1      41.750 -12.320   4.057  1.00  0.00     0.026 A 
ENDROOT
BRANCH   1   7
HETATM    7  C   UNL     1      42.725 -13.390   6.128  1.00  0.00     0.161 C 
BRANCH   7   8
HETATM    8  N   UNL     1      43.013 -14.718   5.639  1.00  0.00    -0.353 N 
HETATM    9  C   UNL     1      43.930 -15.535   6.264  1.00  0.00     0.252 C 
HETATM   10  O   UNL     1      44.567 -15.202   7.258  1.00  0.00    -0.268 OA
HETATM   11  H   UNL     1      42.351 -15.124   4.993  1.00  0.00     0.163 HD
BRANCH   9  12
HETATM   12  C   UNL     1      44.096 -16.900   5.683  1.00  0.00     0.034 A 
HETATM   13  C   UNL     1      43.447 -17.197   4.476  1.00  0.00     0.054 A 
HETATM   14  C   UNL     1      43.566 -18.466   3.890  1.00  0.00     0.080 A 
HETATM   15  C   UNL     1      44.341 -19.459   4.531  1.00  0.00     0.010 A 
HETATM   16  C   UNL     1      44.970 -19.154   5.751  1.00  0.00     0.016 A 
HETATM   17  C   UNL     1      44.847 -17.887   6.327  1.00  0.00     0.018 A 
BRANCH  14  18
HETATM   18  O   UNL     1      42.973 -18.813   2.702  1.00  0.00    -0.355 OA
HETATM   19  C   UNL     1      42.123 -17.862   2.074  1.00  0.00     0.210 C 
ENDBRANCH  14  18
BRANCH  15  20
HETATM   20  C   UNL     1      44.490 -20.800   3.979  1.00  0.00     0.013 A 
HETATM   21  C   UNL     1      44.420 -21.272   2.647  1.00  0.00     0.152 A 
HETATM   22  N   UNL     1      44.603 -22.592   2.554  1.00  0.00    -0.187 NA
HETATM   23  N   UNL     1      44.812 -22.969   3.825  1.00  0.00    -0.289 N 
HETATM   24  H   UNL     1      44.995 -23.949   4.011  1.00  0.00     0.188 HD
HETATM   25  C   UNL     1      44.747 -21.937   4.717  1.00  0.00     0.123 A 
ENDBRANCH  15  20
ENDBRANCH   9  12
ENDBRANCH   7   8
ENDBRANCH   1   7
BRANCH   5  26
HETATM   26  C   UNL     1      40.804 -11.284   1.934  1.00  0.00     0.257 C 
HETATM   27  O   UNL     1      40.015 -10.433   1.541  1.00  0.00    -0.267 OA
HETATM   28  N   UNL     1      41.820 -11.866   1.208  1.00  0.00    -0.301 N 
HETATM   29  H   UNL     1      42.490 -12.485   1.633  1.00  0.00     0.171 HD
BRANCH  28  30
HETATM   30  C   UNL     1      42.007 -11.598  -0.121  1.00  0.00     0.174 A 
HETATM   31  N   UNL     1      42.429 -10.502  -0.701  1.00  0.00    -0.228 NA
HETATM   32  C   UNL     1      42.437 -10.694  -2.063  1.00  0.00     0.054 A 
HETATM   33  C   UNL     1      42.893  -9.645  -3.017  1.00  0.00     0.090 C 
HETATM   34  C   UNL     1      42.022 -11.937  -2.492  1.00  0.00     0.039 A 
HETATM   35  C   UNL     1      42.492 -10.034  -4.460  1.00  0.00     0.276 C 
HETATM   36  N   UNL     1      42.740 -11.460  -4.779  1.00  0.00     0.088 N 
HETATM   37  C   UNL     1      41.924 -12.348  -3.920  1.00  0.00     0.317 C 
HETATM   38  H   UNL     1      43.723 -11.663  -4.592  1.00  0.00     0.316 HD
HETATM   39  S   UNL     1      41.602 -12.905  -1.157  1.00  0.00    -0.053 SA
ENDBRANCH  28  30
ENDBRANCH   5  26
TORSDOF 7
ENDMDL
MODEL 9
REMARK VINA RESULT:      -8.4      3.027     10.694
REMARK  7 active torsions:
REMARK  status: ('A' for Active; 'I' for Inactive)
REMARK    1  A    between atoms: O_2  and  C_3 
REMARK    2  A    between atoms: C_5  and  C_15 
REMARK    3  A    between atoms: C_8  and  C_9 
REMARK       I    between atoms: C_15  and  N_17 
REMARK    4  A    between atoms: N_17  and  C_18 
REMARK    5  A    between atoms: C_18  and  C_19 
REMARK    6  A    between atoms: C_23  and  C_25 
REMARK       I    between atoms: C_25  and  N_27 
REMARK    7  A    between atoms: N_27  and  C_28 
ROOT
HETATM    1  C   UNL     1      40.417 -12.235   3.124  1.00  0.00    -0.040 A 
HETATM    2  C   UNL     1      41.135 -11.658   2.066  1.00  0.00     0.009 A 
HETATM    3  C   UNL     1      42.050 -12.415   1.337  1.00  0.00     0.002 A 
HETATM    4  C   UNL     1      42.262 -13.754   1.663  1.00  0.00     0.017 A 
HETATM    5  C   UNL     1      41.569 -14.347   2.726  1.00  0.00     0.033 A 
HETATM    6  C   UNL     1      40.644 -13.583   3.452  1.00  0.00     0.026 A 
ENDROOT
BRANCH   1   7
HETATM    7  C   UNL     1      39.422 -11.418   3.910  1.00  0.00     0.161 C 
BRANCH   7   8
HETATM    8  N   UNL     1      39.951 -11.042   5.200  1.00  0.00    -0.353 N 
HETATM    9  C   UNL     1      39.553 -11.677   6.357  1.00  0.00     0.252 C 
HETATM   10  O   UNL     1      38.730 -12.586   6.381  1.00  0.00    -0.268 OA
HETATM   11  H   UNL     1      40.794 -10.487   5.208  1.00  0.00     0.163 HD
BRANCH   9  12
HETATM   12  C   UNL     1      40.212 -11.222   7.616  1.00  0.00     0.034 A 
HETATM   13  C   UNL     1      41.611 -11.134   7.645  1.00  0.00     0.054 A 
HETATM   14  C   UNL     1      42.280 -10.717   8.806  1.00  0.00     0.080 A 
HETATM   15  C   UNL     1      41.534 -10.392   9.961  1.00  0.00     0.010 A 
HETATM   16  C   UNL     1      40.133 -10.504   9.924  1.00  0.00     0.016 A 
HETATM   17  C   UNL     1      39.475 -10.919   8.764  1.00  0.00     0.018 A 
BRANCH  14  18
HETATM   18  O   UNL     1      43.644 -10.591   8.893  1.00  0.00    -0.355 OA
HETATM   19  C   UNL     1      44.428 -11.777   8.897  1.00  0.00     0.210 C 
ENDBRANCH  14  18
BRANCH  15  20
HETATM   20  C   UNL     1      42.173  -9.967  11.200  1.00  0.00     0.013 A 
HETATM   21  C   UNL     1      42.813 -10.710  12.220  1.00  0.00     0.152 A 
HETATM   22  N   UNL     1      43.268  -9.942  13.214  1.00  0.00    -0.187 NA
HETATM   23  N   UNL     1      42.939  -8.701  12.826  1.00  0.00    -0.289 N 
HETATM   24  H   UNL     1      43.200  -7.925  13.425  1.00  0.00     0.188 HD
HETATM   25  C   UNL     1      42.275  -8.661  11.632  1.00  0.00     0.123 A 
ENDBRANCH  15  20
ENDBRANCH   9  12
ENDBRANCH   7   8
ENDBRANCH   1   7
BRANCH   5  26
HETATM   26  C   UNL     1      41.818 -15.795   3.005  1.00  0.00     0.257 C 
HETATM   27  O   UNL     1      40.845 -16.505   3.234  1.00  0.00    -0.267 OA
HETATM   28  N   UNL     1      43.135 -16.194   2.954  1.00  0.00    -0.301 N 
HETATM   29  H   UNL     1      43.869 -15.569   2.661  1.00  0.00     0.171 HD
BRANCH  28  30
HETATM   30  C   UNL     1      43.518 -17.473   3.251  1.00  0.00     0.174 A 
HETATM   31  N   UNL     1      43.794 -18.016   4.410  1.00  0.00    -0.228 NA
HETATM   32  C   UNL     1      44.154 -19.329   4.214  1.00  0.00     0.054 A 
HETATM   33  C   UNL     1      44.502 -20.240   5.339  1.00  0.00     0.090 C 
HETATM   34  C   UNL     1      44.143 -19.760   2.904  1.00  0.00     0.039 A 
HETATM   35  C   UNL     1      45.158 -21.530   4.788  1.00  0.00     0.276 C 
HETATM   36  N   UNL     1      44.471 -22.080   3.596  1.00  0.00     0.088 N 
HETATM   37  C   UNL     1      44.526 -21.130   2.463  1.00  0.00     0.317 C 
HETATM   38  H   UNL     1      43.489 -22.227   3.832  1.00  0.00     0.316 HD
HETATM   39  S   UNL     1      43.672 -18.489   1.876  1.00  0.00    -0.053 SA
ENDBRANCH  28  30
ENDBRANCH   5  26
TORSDOF 7
ENDMDL
MODEL 10
REMARK VINA RESULT:      -8.4      4.582      8.611
REMARK  7 active torsions:
REMARK  status: ('A' for Active; 'I' for Inactive)
REMARK    1  A    between atoms: O_2  and  C_3 
REMARK    2  A    between atoms: C_5  and  C_15 
REMARK    3  A    between atoms: C_8  and  C_9 
REMARK       I    between atoms: C_15  and  N_17 
REMARK    4  A    between atoms: N_17  and  C_18 
REMARK    5  A    between atoms: C_18  and  C_19 
REMARK    6  A    between atoms: C_23  and  C_25 
REMARK       I    between atoms: C_25  and  N_27 
REMARK    7  A    between atoms: N_27  and  C_28 
ROOT
HETATM    1  C   UNL     1      41.085 -12.267   5.027  1.00  0.00    -0.040 A 
HETATM    2  C   UNL     1      40.463 -11.165   5.631  1.00  0.00     0.009 A 
HETATM    3  C   UNL     1      39.386 -10.534   5.011  1.00  0.00     0.002 A 
HETATM    4  C   UNL     1      38.925 -10.994   3.778  1.00  0.00     0.017 A 
HETATM    5  C   UNL     1      39.542 -12.082   3.147  1.00  0.00     0.033 A 
HETATM    6  C   UNL     1      40.621 -12.718   3.779  1.00  0.00     0.026 A 
ENDROOT
BRANCH   1   7
HETATM    7  C   UNL     1      42.246 -12.955   5.699  1.00  0.00     0.161 C 
BRANCH   7   8
HETATM    8  N   UNL     1      42.452 -14.282   5.169  1.00  0.00    -0.353 N 
HETATM    9  C   UNL     1      43.349 -14.522   4.151  1.00  0.00     0.252 C 
HETATM   10  O   UNL     1      44.022 -13.645   3.620  1.00  0.00    -0.268 OA
HETATM   11  H   UNL     1      42.119 -15.057   5.725  1.00  0.00     0.163 HD
BRANCH   9  12
HETATM   12  C   UNL     1      43.498 -15.946   3.729  1.00  0.00     0.034 A 
HETATM   13  C   UNL     1      43.421 -16.946   4.710  1.00  0.00     0.054 A 
HETATM   14  C   UNL     1      43.560 -18.300   4.368  1.00  0.00     0.080 A 
HETATM   15  C   UNL     1      43.791 -18.657   3.021  1.00  0.00     0.010 A 
HETATM   16  C   UNL     1      43.886 -17.644   2.051  1.00  0.00     0.016 A 
HETATM   17  C   UNL     1      43.746 -16.299   2.400  1.00  0.00     0.018 A 
BRANCH  14  18
HETATM   18  O   UNL     1      43.475 -19.326   5.276  1.00  0.00    -0.355 OA
HETATM   19  C   UNL     1      43.689 -19.026   6.649  1.00  0.00     0.210 C 
ENDBRANCH  14  18
BRANCH  15  20
HETATM   20  C   UNL     1      43.959 -20.045   2.606  1.00  0.00     0.013 A 
HETATM   21  C   UNL     1      43.170 -20.868   1.770  1.00  0.00     0.152 A 
HETATM   22  N   UNL     1      43.663 -22.104   1.644  1.00  0.00    -0.187 NA
HETATM   23  N   UNL     1      44.782 -22.070   2.383  1.00  0.00    -0.289 N 
HETATM   24  H   UNL     1      45.351 -22.909   2.430  1.00  0.00     0.188 HD
HETATM   25  C   UNL     1      45.001 -20.865   2.987  1.00  0.00     0.123 A 
ENDBRANCH  15  20
ENDBRANCH   9  12
ENDBRANCH   7   8
ENDBRANCH   1   7
BRANCH   5  26
HETATM   26  C   UNL     1      38.982 -12.546   1.841  1.00  0.00     0.257 C 
HETATM   27  O   UNL     1      37.768 -12.477   1.687  1.00  0.00    -0.267 OA
HETATM   28  N   UNL     1      39.905 -12.990   0.921  1.00  0.00    -0.301 N 
HETATM   29  H   UNL     1      40.896 -12.922   1.087  1.00  0.00     0.171 HD
BRANCH  28  30
HETATM   30  C   UNL     1      39.533 -13.504  -0.292  1.00  0.00     0.174 A 
HETATM   31  N   UNL     1      38.462 -13.268  -1.007  1.00  0.00    -0.228 NA
HETATM   32  C   UNL     1      38.510 -14.032  -2.149  1.00  0.00     0.054 A 
HETATM   33  C   UNL     1      37.452 -13.978  -3.194  1.00  0.00     0.090 C 
HETATM   34  C   UNL     1      39.623 -14.836  -2.280  1.00  0.00     0.039 A 
HETATM   35  C   UNL     1      37.622 -15.158  -4.179  1.00  0.00     0.276 C 
HETATM   36  N   UNL     1      39.029 -15.393  -4.584  1.00  0.00     0.088 N 
HETATM   37  C   UNL     1      39.863 -15.764  -3.420  1.00  0.00     0.317 C 
HETATM   38  H   UNL     1      39.400 -14.523  -4.969  1.00  0.00     0.316 HD
HETATM   39  S   UNL     1      40.647 -14.640  -0.936  1.00  0.00    -0.053 SA
ENDBRANCH  28  30
ENDBRANCH   5  26
TORSDOF 7
ENDMDL
