MODEL 1
REMARK VINA RESULT:      -9.8      0.000      0.000
REMARK  7 active torsions:
REMARK  status: ('A' for Active; 'I' for Inactive)
REMARK    1  A    between atoms: O_2  and  C_3 
REMARK    2  A    between atoms: C_4  and  C_5 
REMARK    3  A    between atoms: N_10  and  C_12 
REMARK    4  A    between atoms: C_12  and  C_13 
REMARK       I    between atoms: C_13  and  N_14 
REMARK    5  A    between atoms: N_14  and  C_15 
REMARK    6  A    between atoms: C_15  and  C_16 
REMARK    7  A    between atoms: C_16  and  C_17 
ROOT
HETATM    1  C   UNL     1      42.123 -11.089   7.824  1.00  0.00     0.190 C 
HETATM    2  O   UNL     1      42.810 -10.076   8.581  1.00  0.00    -0.339 OA
HETATM    3  C   UNL     1      42.985 -10.491   9.874  1.00  0.00     0.077 A 
HETATM    4  C   UNL     1      43.889 -11.514  10.178  1.00  0.00     0.001 A 
HETATM    5  C   UNL     1      44.727 -12.140   9.104  1.00  0.00     0.276 C 
HETATM    6  N   UNL     1      43.926 -12.891   8.075  1.00  0.00    -0.056 N 
HETATM    7  H   UNL     1      43.220 -13.457   8.576  1.00  0.00     0.280 HD
HETATM    8  C   UNL     1      43.159 -11.981   7.107  1.00  0.00     0.273 C 
HETATM    9  C   UNL     1      42.249  -9.851  10.868  1.00  0.00     0.037 A 
HETATM   10  C   UNL     1      42.382 -10.260  12.192  1.00  0.00     0.003 A 
HETATM   11  C   UNL     1      43.258 -11.296  12.515  1.00  0.00     0.001 A 
HETATM   12  C   UNL     1      44.012 -11.918  11.516  1.00  0.00     0.012 A 
ENDROOT
BRANCH   6  13
HETATM   13  C   UNL     1      44.768 -13.913   7.313  1.00  0.00     0.337 C 
BRANCH  13  14
HETATM   14  C   UNL     1      43.907 -15.114   6.923  1.00  0.00     0.243 C 
HETATM   15  N   UNL     1      43.584 -15.975   7.941  1.00  0.00    -0.359 N 
HETATM   16  H   UNL     1      44.091 -15.910   8.820  1.00  0.00     0.162 HD
HETATM   17  O   UNL     1      43.634 -15.304   5.737  1.00  0.00    -0.272 OA
BRANCH  15  18
HETATM   18  C   UNL     1      43.053 -17.299   7.657  1.00  0.00     0.130 C 
BRANCH  18  19
HETATM   19  C   UNL     1      44.149 -18.357   7.525  1.00  0.00     0.098 C 
BRANCH  19  20
HETATM   20  C   UNL     1      44.174 -18.989   6.148  1.00  0.00     0.109 A 
HETATM   21  N   UNL     1      44.472 -20.245   5.992  1.00  0.00    -0.234 NA
HETATM   22  C   UNL     1      44.467 -20.753   4.676  1.00  0.00     0.074 A 
HETATM   23  C   UNL     1      44.200 -19.956   3.558  1.00  0.00     0.061 A 
HETATM   24  C   UNL     1      44.726 -22.111   4.474  1.00  0.00     0.032 A 
HETATM   25  C   UNL     1      43.912 -18.533   3.793  1.00  0.00     0.259 A 
HETATM   26  C   UNL     1      44.194 -20.486   2.264  1.00  0.00     0.019 A 
HETATM   27  O   UNL     1      43.693 -17.747   2.881  1.00  0.00    -0.267 OA
HETATM   28  N   UNL     1      43.905 -18.143   5.107  1.00  0.00    -0.311 N 
HETATM   29  H   UNL     1      43.706 -17.162   5.254  1.00  0.00     0.170 HD
HETATM   30  C   UNL     1      44.456 -21.840   2.081  1.00  0.00     0.001 A 
HETATM   31  C   UNL     1      44.721 -22.654   3.184  1.00  0.00     0.002 A 
ENDBRANCH  19  20
ENDBRANCH  18  19
ENDBRANCH  15  18
ENDBRANCH  13  14
ENDBRANCH   6  13
BRANCH   1  32
HETATM   32  C   UNL     1      41.201 -10.380   6.843  1.00  0.00     0.006 A 
HETATM   33  C   UNL     1      40.049 -11.032   6.353  1.00  0.00     0.077 A 
HETATM   34  C   UNL     1      39.215 -10.377   5.440  1.00  0.00     0.037 A 
HETATM   35  C   UNL     1      39.502  -9.077   5.025  1.00  0.00     0.003 A 
HETATM   36  C   UNL     1      40.617  -8.414   5.526  1.00  0.00     0.001 A 
HETATM   37  C   UNL     1      41.456  -9.056   6.436  1.00  0.00     0.012 A 
BRANCH  33  38
HETATM   38  O   UNL     1      39.838 -12.307   6.807  1.00  0.00    -0.355 OA
HETATM   39  C   UNL     1      39.583 -13.312   5.830  1.00  0.00     0.210 C 
ENDBRANCH  33  38
ENDBRANCH   1  32
TORSDOF 7
ENDMDL
MODEL 2
REMARK VINA RESULT:      -9.6      2.571      9.353
REMARK  7 active torsions:
REMARK  status: ('A' for Active; 'I' for Inactive)
REMARK    1  A    between atoms: O_2  and  C_3 
REMARK    2  A    between atoms: C_4  and  C_5 
REMARK    3  A    between atoms: N_10  and  C_12 
REMARK    4  A    between atoms: C_12  and  C_13 
REMARK       I    between atoms: C_13  and  N_14 
REMARK    5  A    between atoms: N_14  and  C_15 
REMARK    6  A    between atoms: C_15  and  C_16 
REMARK    7  A    between atoms: C_16  and  C_17 
ROOT
HETATM    1  C   UNL     1      41.615 -14.792   4.333  1.00  0.00     0.190 C 
HETATM    2  O   UNL     1      40.905 -16.025   4.120  1.00  0.00    -0.339 OA
HETATM    3  C   UNL     1      41.677 -16.895   3.398  1.00  0.00     0.077 A 
HETATM    4  C   UNL     1      42.804 -17.493   3.971  1.00  0.00     0.001 A 
HETATM    5  C   UNL     1      43.160 -17.239   5.405  1.00  0.00     0.276 C 
HETATM    6  N   UNL     1      43.536 -15.809   5.688  1.00  0.00    -0.056 N 
HETATM    7  H   UNL     1      44.169 -15.494   4.934  1.00  0.00     0.280 HD
HETATM    8  C   UNL     1      42.340 -14.848   5.695  1.00  0.00     0.273 C 
HETATM    9  C   UNL     1      41.291 -17.174   2.089  1.00  0.00     0.037 A 
HETATM   10  C   UNL     1      42.062 -18.036   1.314  1.00  0.00     0.003 A 
HETATM   11  C   UNL     1      43.205 -18.623   1.857  1.00  0.00     0.001 A 
HETATM   12  C   UNL     1      43.573 -18.359   3.179  1.00  0.00     0.012 A 
ENDROOT
BRANCH   6  13
HETATM   13  C   UNL     1      44.359 -15.667   6.967  1.00  0.00     0.337 C 
BRANCH  13  14
HETATM   14  C   UNL     1      44.768 -14.207   7.165  1.00  0.00     0.243 C 
HETATM   15  N   UNL     1      44.333 -13.616   8.325  1.00  0.00    -0.359 N 
HETATM   16  H   UNL     1      43.604 -14.073   8.866  1.00  0.00     0.162 HD
HETATM   17  O   UNL     1      45.364 -13.617   6.264  1.00  0.00    -0.272 OA
BRANCH  15  18
HETATM   18  C   UNL     1      44.376 -12.172   8.486  1.00  0.00     0.130 C 
BRANCH  18  19
HETATM   19  C   UNL     1      44.938 -11.746   9.843  1.00  0.00     0.098 C 
BRANCH  19  20
HETATM   20  C   UNL     1      43.864 -11.204  10.764  1.00  0.00     0.109 A 
HETATM   21  N   UNL     1      44.175 -10.575  11.859  1.00  0.00    -0.234 NA
HETATM   22  C   UNL     1      43.113 -10.099  12.657  1.00  0.00     0.074 A 
HETATM   23  C   UNL     1      41.769 -10.317  12.335  1.00  0.00     0.061 A 
HETATM   24  C   UNL     1      43.408  -9.369  13.811  1.00  0.00     0.032 A 
HETATM   25  C   UNL     1      41.479 -11.071  11.107  1.00  0.00     0.259 A 
HETATM   26  C   UNL     1      40.735  -9.828  13.139  1.00  0.00     0.019 A 
HETATM   27  O   UNL     1      40.338 -11.338  10.752  1.00  0.00    -0.267 OA
HETATM   28  N   UNL     1      42.575 -11.460  10.382  1.00  0.00    -0.311 N 
HETATM   29  H   UNL     1      42.362 -11.978   9.540  1.00  0.00     0.170 HD
HETATM   30  C   UNL     1      41.046  -9.104  14.286  1.00  0.00     0.001 A 
HETATM   31  C   UNL     1      42.381  -8.873  14.622  1.00  0.00     0.002 A 
ENDBRANCH  19  20
ENDBRANCH  18  19
ENDBRANCH  15  18
ENDBRANCH  13  14
ENDBRANCH   6  13
BRANCH   1  32
HETATM   32  C   UNL     1      40.599 -13.662   4.271  1.00  0.00     0.006 A 
HETATM   33  C   UNL     1      40.293 -13.047   3.039  1.00  0.00     0.077 A 
HETATM   34  C   UNL     1      39.368 -11.998   2.996  1.00  0.00     0.037 A 
HETATM   35  C   UNL     1      38.729 -11.568   4.158  1.00  0.00     0.003 A 
HETATM   36  C   UNL     1      39.000 -12.189   5.373  1.00  0.00     0.001 A 
HETATM   37  C   UNL     1      39.920 -13.234   5.429  1.00  0.00     0.012 A 
BRANCH  33  38
HETATM   38  O   UNL     1      40.963 -13.525   1.943  1.00  0.00    -0.355 OA
HETATM   39  C   UNL     1      41.932 -12.667   1.347  1.00  0.00     0.210 C 
ENDBRANCH  33  38
ENDBRANCH   1  32
TORSDOF 7
ENDMDL
MODEL 3
REMARK VINA RESULT:      -9.4      3.552      9.259
REMARK  7 active torsions:
REMARK  status: ('A' for Active; 'I' for Inactive)
REMARK    1  A    between atoms: O_2  and  C_3 
REMARK    2  A    between atoms: C_4  and  C_5 
REMARK    3  A    between atoms: N_10  and  C_12 
REMARK    4  A    between atoms: C_12  and  C_13 
REMARK       I    between atoms: C_13  and  N_14 
REMARK    5  A    between atoms: N_14  and  C_15 
REMARK    6  A    between atoms: C_15  and  C_16 
REMARK    7  A    between atoms: C_16  and  C_17 
ROOT
HETATM    1  C   UNL     1      40.882 -15.078   2.200  1.00  0.00     0.190 C 
HETATM    2  O   UNL     1      40.558 -16.444   2.516  1.00  0.00    -0.339 OA
HETATM    3  C   UNL     1      41.704 -17.174   2.678  1.00  0.00     0.077 A 
HETATM    4  C   UNL     1      42.525 -16.975   3.792  1.00  0.00     0.001 A 
HETATM    5  C   UNL     1      42.140 -15.998   4.862  1.00  0.00     0.276 C 
HETATM    6  N   UNL     1      42.107 -14.569   4.391  1.00  0.00    -0.056 N 
HETATM    7  H   UNL     1      42.955 -14.406   3.821  1.00  0.00     0.280 HD
HETATM    8  C   UNL     1      40.902 -14.243   3.500  1.00  0.00     0.273 C 
HETATM    9  C   UNL     1      42.011 -18.127   1.709  1.00  0.00     0.037 A 
HETATM   10  C   UNL     1      43.179 -18.874   1.826  1.00  0.00     0.003 A 
HETATM   11  C   UNL     1      44.026 -18.674   2.916  1.00  0.00     0.001 A 
HETATM   12  C   UNL     1      43.701 -17.734   3.897  1.00  0.00     0.012 A 
ENDROOT
BRANCH   6  13
HETATM   13  C   UNL     1      42.219 -13.574   5.544  1.00  0.00     0.337 C 
BRANCH  13  14
HETATM   14  C   UNL     1      43.626 -13.620   6.139  1.00  0.00     0.243 C 
HETATM   15  N   UNL     1      43.708 -13.439   7.497  1.00  0.00    -0.359 N 
HETATM   16  H   UNL     1      42.900 -13.073   7.994  1.00  0.00     0.162 HD
HETATM   17  O   UNL     1      44.598 -13.713   5.390  1.00  0.00    -0.272 OA
BRANCH  15  18
HETATM   18  C   UNL     1      44.981 -13.144   8.135  1.00  0.00     0.130 C 
BRANCH  18  19
HETATM   19  C   UNL     1      44.967 -11.816   8.892  1.00  0.00     0.098 C 
BRANCH  19  20
HETATM   20  C   UNL     1      43.562 -11.364   9.232  1.00  0.00     0.109 A 
HETATM   21  N   UNL     1      42.805 -10.800   8.338  1.00  0.00    -0.234 NA
HETATM   22  C   UNL     1      41.507 -10.414   8.738  1.00  0.00     0.074 A 
HETATM   23  C   UNL     1      41.039 -10.577  10.046  1.00  0.00     0.061 A 
HETATM   24  C   UNL     1      40.646  -9.856   7.790  1.00  0.00     0.032 A 
HETATM   25  C   UNL     1      41.955 -11.182  11.024  1.00  0.00     0.259 A 
HETATM   26  C   UNL     1      39.746 -10.193  10.415  1.00  0.00     0.019 A 
HETATM   27  O   UNL     1      41.651 -11.343  12.198  1.00  0.00    -0.267 OA
HETATM   28  N   UNL     1      43.178 -11.556  10.532  1.00  0.00    -0.311 N 
HETATM   29  H   UNL     1      43.799 -11.970  11.215  1.00  0.00     0.170 HD
HETATM   30  C   UNL     1      38.901  -9.638   9.459  1.00  0.00     0.001 A 
HETATM   31  C   UNL     1      39.348  -9.470   8.147  1.00  0.00     0.002 A 
ENDBRANCH  19  20
ENDBRANCH  18  19
ENDBRANCH  15  18
ENDBRANCH  13  14
ENDBRANCH   6  13
BRANCH   1  32
HETATM   32  C   UNL     1      39.837 -14.576   1.214  1.00  0.00     0.006 A 
HETATM   33  C   UNL     1      40.225 -14.122  -0.064  1.00  0.00     0.077 A 
HETATM   34  C   UNL     1      39.259 -13.649  -0.958  1.00  0.00     0.037 A 
HETATM   35  C   UNL     1      37.910 -13.640  -0.603  1.00  0.00     0.003 A 
HETATM   36  C   UNL     1      37.513 -14.114   0.642  1.00  0.00     0.001 A 
HETATM   37  C   UNL     1      38.467 -14.588   1.542  1.00  0.00     0.012 A 
BRANCH  33  38
HETATM   38  O   UNL     1      41.568 -14.161  -0.336  1.00  0.00    -0.355 OA
HETATM   39  C   UNL     1      42.045 -13.322  -1.384  1.00  0.00     0.210 C 
ENDBRANCH  33  38
ENDBRANCH   1  32
TORSDOF 7
ENDMDL
MODEL 4
REMARK VINA RESULT:      -9.4      2.489      4.218
REMARK  7 active torsions:
REMARK  status: ('A' for Active; 'I' for Inactive)
REMARK    1  A    between atoms: O_2  and  C_3 
REMARK    2  A    between atoms: C_4  and  C_5 
REMARK    3  A    between atoms: N_10  and  C_12 
REMARK    4  A    between atoms: C_12  and  C_13 
REMARK       I    between atoms: C_13  and  N_14 
REMARK    5  A    between atoms: N_14  and  C_15 
REMARK    6  A    between atoms: C_15  and  C_16 
REMARK    7  A    between atoms: C_16  and  C_17 
ROOT
HETATM    1  C   UNL     1      40.630 -10.106  10.130  1.00  0.00     0.190 C 
HETATM    2  O   UNL     1      41.858  -9.372   9.980  1.00  0.00    -0.339 OA
HETATM    3  C   UNL     1      42.921 -10.234   9.943  1.00  0.00     0.077 A 
HETATM    4  C   UNL     1      43.130 -11.062   8.836  1.00  0.00     0.001 A 
HETATM    5  C   UNL     1      42.228 -10.984   7.641  1.00  0.00     0.276 C 
HETATM    6  N   UNL     1      40.810 -11.401   7.927  1.00  0.00    -0.056 N 
HETATM    7  H   UNL     1      40.843 -12.264   8.495  1.00  0.00     0.280 HD
HETATM    8  C   UNL     1      40.017 -10.367   8.737  1.00  0.00     0.273 C 
HETATM    9  C   UNL     1      43.789 -10.243  11.033  1.00  0.00     0.037 A 
HETATM   10  C   UNL     1      44.868 -11.122  11.044  1.00  0.00     0.003 A 
HETATM   11  C   UNL     1      45.081 -11.975   9.961  1.00  0.00     0.001 A 
HETATM   12  C   UNL     1      44.221 -11.944   8.861  1.00  0.00     0.012 A 
ENDROOT
BRANCH   6  13
HETATM   13  C   UNL     1      40.054 -11.801   6.662  1.00  0.00     0.337 C 
BRANCH  13  14
HETATM   14  C   UNL     1      40.920 -12.724   5.805  1.00  0.00     0.243 C 
HETATM   15  N   UNL     1      41.012 -14.025   6.234  1.00  0.00    -0.359 N 
HETATM   16  H   UNL     1      40.707 -14.255   7.176  1.00  0.00     0.162 HD
HETATM   17  O   UNL     1      41.554 -12.256   4.860  1.00  0.00    -0.272 OA
BRANCH  15  18
HETATM   18  C   UNL     1      42.038 -14.911   5.708  1.00  0.00     0.130 C 
BRANCH  18  19
HETATM   19  C   UNL     1      41.547 -15.744   4.522  1.00  0.00     0.098 C 
BRANCH  19  20
HETATM   20  C   UNL     1      42.408 -16.968   4.286  1.00  0.00     0.109 A 
HETATM   21  N   UNL     1      42.197 -17.749   3.268  1.00  0.00    -0.234 NA
HETATM   22  C   UNL     1      43.048 -18.865   3.120  1.00  0.00     0.074 A 
HETATM   23  C   UNL     1      44.060 -19.171   4.037  1.00  0.00     0.061 A 
HETATM   24  C   UNL     1      42.888 -19.695   2.009  1.00  0.00     0.032 A 
HETATM   25  C   UNL     1      44.224 -18.275   5.191  1.00  0.00     0.259 A 
HETATM   26  C   UNL     1      44.895 -20.279   3.863  1.00  0.00     0.019 A 
HETATM   27  O   UNL     1      45.060 -18.471   6.062  1.00  0.00    -0.267 OA
HETATM   28  N   UNL     1      43.374 -17.201   5.228  1.00  0.00    -0.311 N 
HETATM   29  H   UNL     1      43.497 -16.593   6.027  1.00  0.00     0.170 HD
HETATM   30  C   UNL     1      44.721 -21.097   2.751  1.00  0.00     0.001 A 
HETATM   31  C   UNL     1      43.720 -20.806   1.823  1.00  0.00     0.002 A 
ENDBRANCH  19  20
ENDBRANCH  18  19
ENDBRANCH  15  18
ENDBRANCH  13  14
ENDBRANCH   6  13
BRANCH   1  32
HETATM   32  C   UNL     1      39.708  -9.280  11.015  1.00  0.00     0.006 A 
HETATM   33  C   UNL     1      39.807  -9.366  12.420  1.00  0.00     0.077 A 
HETATM   34  C   UNL     1      38.945  -8.614  13.225  1.00  0.00     0.037 A 
HETATM   35  C   UNL     1      38.001  -7.763  12.650  1.00  0.00     0.003 A 
HETATM   36  C   UNL     1      37.917  -7.647  11.268  1.00  0.00     0.001 A 
HETATM   37  C   UNL     1      38.770  -8.392  10.454  1.00  0.00     0.012 A 
BRANCH  33  38
HETATM   38  O   UNL     1      40.758 -10.224  12.907  1.00  0.00    -0.355 OA
HETATM   39  C   UNL     1      41.428  -9.842  14.105  1.00  0.00     0.210 C 
ENDBRANCH  33  38
ENDBRANCH   1  32
TORSDOF 7
ENDMDL
MODEL 5
REMARK VINA RESULT:      -9.3      3.433      9.787
REMARK  7 active torsions:
REMARK  status: ('A' for Active; 'I' for Inactive)
REMARK    1  A    between atoms: O_2  and  C_3 
REMARK    2  A    between atoms: C_4  and  C_5 
REMARK    3  A    between atoms: N_10  and  C_12 
REMARK    4  A    between atoms: C_12  and  C_13 
REMARK       I    between atoms: C_13  and  N_14 
REMARK    5  A    between atoms: N_14  and  C_15 
REMARK    6  A    between atoms: C_15  and  C_16 
REMARK    7  A    between atoms: C_16  and  C_17 
ROOT
HETATM    1  C   UNL     1      41.872 -16.055   2.042  1.00  0.00     0.190 C 
HETATM    2  O   UNL     1      41.683 -17.467   1.839  1.00  0.00    -0.339 OA
HETATM    3  C   UNL     1      42.571 -18.176   2.603  1.00  0.00     0.077 A 
HETATM    4  C   UNL     1      42.434 -18.226   3.994  1.00  0.00     0.001 A 
HETATM    5  C   UNL     1      41.280 -17.552   4.674  1.00  0.00     0.276 C 
HETATM    6  N   UNL     1      41.289 -16.053   4.536  1.00  0.00    -0.056 N 
HETATM    7  H   UNL     1      42.255 -15.727   4.710  1.00  0.00     0.280 HD
HETATM    8  C   UNL     1      40.900 -15.562   3.136  1.00  0.00     0.273 C 
HETATM    9  C   UNL     1      43.597 -18.853   1.949  1.00  0.00     0.037 A 
HETATM   10  C   UNL     1      44.533 -19.566   2.692  1.00  0.00     0.003 A 
HETATM   11  C   UNL     1      44.431 -19.608   4.082  1.00  0.00     0.001 A 
HETATM   12  C   UNL     1      43.385 -18.947   4.731  1.00  0.00     0.012 A 
ENDROOT
BRANCH   6  13
HETATM   13  C   UNL     1      40.450 -15.365   5.610  1.00  0.00     0.337 C 
BRANCH  13  14
HETATM   14  C   UNL     1      41.006 -13.969   5.893  1.00  0.00     0.243 C 
HETATM   15  N   UNL     1      40.157 -13.107   6.542  1.00  0.00    -0.359 N 
HETATM   16  H   UNL     1      39.169 -13.340   6.599  1.00  0.00     0.162 HD
HETATM   17  O   UNL     1      42.113 -13.658   5.455  1.00  0.00    -0.272 OA
BRANCH  15  18
HETATM   18  C   UNL     1      40.435 -11.681   6.585  1.00  0.00     0.130 C 
BRANCH  18  19
HETATM   19  C   UNL     1      39.834 -10.999   7.815  1.00  0.00     0.098 C 
BRANCH  19  20
HETATM   20  C   UNL     1      40.860 -10.777   8.907  1.00  0.00     0.109 A 
HETATM   21  N   UNL     1      40.503 -10.373  10.090  1.00  0.00    -0.234 NA
HETATM   22  C   UNL     1      41.524 -10.195  11.049  1.00  0.00     0.074 A 
HETATM   23  C   UNL     1      42.877 -10.395  10.759  1.00  0.00     0.061 A 
HETATM   24  C   UNL     1      41.173  -9.817  12.347  1.00  0.00     0.032 A 
HETATM   25  C   UNL     1      43.224 -10.810   9.392  1.00  0.00     0.259 A 
HETATM   26  C   UNL     1      43.869 -10.219  11.729  1.00  0.00     0.019 A 
HETATM   27  O   UNL     1      44.381 -10.984   9.030  1.00  0.00    -0.267 OA
HETATM   28  N   UNL     1      42.163 -10.991   8.544  1.00  0.00    -0.311 N 
HETATM   29  H   UNL     1      42.415 -11.276   7.607  1.00  0.00     0.170 HD
HETATM   30  C   UNL     1      43.502  -9.841  13.018  1.00  0.00     0.001 A 
HETATM   31  C   UNL     1      42.156  -9.640  13.328  1.00  0.00     0.002 A 
ENDBRANCH  19  20
ENDBRANCH  18  19
ENDBRANCH  15  18
ENDBRANCH  13  14
ENDBRANCH   6  13
BRANCH   1  32
HETATM   32  C   UNL     1      41.629 -15.365   0.707  1.00  0.00     0.006 A 
HETATM   33  C   UNL     1      41.855 -13.979   0.573  1.00  0.00     0.077 A 
HETATM   34  C   UNL     1      41.615 -13.351  -0.654  1.00  0.00     0.037 A 
HETATM   35  C   UNL     1      41.173 -14.088  -1.752  1.00  0.00     0.003 A 
HETATM   36  C   UNL     1      40.978 -15.459  -1.639  1.00  0.00     0.001 A 
HETATM   37  C   UNL     1      41.213 -16.097  -0.422  1.00  0.00     0.012 A 
BRANCH  33  38
HETATM   38  O   UNL     1      42.287 -13.326   1.698  1.00  0.00    -0.355 OA
HETATM   39  C   UNL     1      41.659 -12.086   2.013  1.00  0.00     0.210 C 
ENDBRANCH  33  38
ENDBRANCH   1  32
TORSDOF 7
ENDMDL
MODEL 6
REMARK VINA RESULT:      -9.2      3.103     10.394
REMARK  7 active torsions:
REMARK  status: ('A' for Active; 'I' for Inactive)
REMARK    1  A    between atoms: O_2  and  C_3 
REMARK    2  A    between atoms: C_4  and  C_5 
REMARK    3  A    between atoms: N_10  and  C_12 
REMARK    4  A    between atoms: C_12  and  C_13 
REMARK       I    between atoms: C_13  and  N_14 
REMARK    5  A    between atoms: N_14  and  C_15 
REMARK    6  A    between atoms: C_15  and  C_16 
REMARK    7  A    between atoms: C_16  and  C_17 
ROOT
HETATM    1  C   UNL     1      41.943 -16.274   4.179  1.00  0.00     0.190 C 
HETATM    2  O   UNL     1      42.582 -15.336   3.293  1.00  0.00    -0.339 OA
HETATM    3  C   UNL     1      41.770 -15.073   2.223  1.00  0.00     0.077 A 
HETATM    4  C   UNL     1      40.600 -14.323   2.382  1.00  0.00     0.001 A 
HETATM    5  C   UNL     1      40.237 -13.745   3.716  1.00  0.00     0.276 C 
HETATM    6  N   UNL     1      39.943 -14.785   4.765  1.00  0.00    -0.056 N 
HETATM    7  H   UNL     1      39.342 -15.507   4.333  1.00  0.00     0.280 HD
HETATM    8  C   UNL     1      41.194 -15.502   5.287  1.00  0.00     0.273 C 
HETATM    9  C   UNL     1      42.159 -15.559   0.977  1.00  0.00     0.037 A 
HETATM   10  C   UNL     1      41.350 -15.331  -0.132  1.00  0.00     0.003 A 
HETATM   11  C   UNL     1      40.165 -14.609   0.008  1.00  0.00     0.001 A 
HETATM   12  C   UNL     1      39.793 -14.103   1.256  1.00  0.00     0.012 A 
ENDROOT
BRANCH   6  13
HETATM   13  C   UNL     1      39.110 -14.229   5.918  1.00  0.00     0.337 C 
BRANCH  13  14
HETATM   14  C   UNL     1      39.445 -12.755   6.143  1.00  0.00     0.243 C 
HETATM   15  N   UNL     1      40.430 -12.500   7.065  1.00  0.00    -0.359 N 
HETATM   16  H   UNL     1      40.720 -13.244   7.694  1.00  0.00     0.162 HD
HETATM   17  O   UNL     1      38.774 -11.889   5.583  1.00  0.00    -0.272 OA
BRANCH  15  18
HETATM   18  C   UNL     1      40.619 -11.161   7.600  1.00  0.00     0.130 C 
BRANCH  18  19
HETATM   19  C   UNL     1      39.615 -10.819   8.702  1.00  0.00     0.098 C 
BRANCH  19  20
HETATM   20  C   UNL     1      40.271 -10.716  10.064  1.00  0.00     0.109 A 
HETATM   21  N   UNL     1      41.192  -9.829  10.299  1.00  0.00    -0.234 NA
HETATM   22  C   UNL     1      41.747  -9.800  11.596  1.00  0.00     0.074 A 
HETATM   23  C   UNL     1      41.374 -10.701  12.599  1.00  0.00     0.061 A 
HETATM   24  C   UNL     1      42.699  -8.824  11.903  1.00  0.00     0.032 A 
HETATM   25  C   UNL     1      40.358 -11.709  12.262  1.00  0.00     0.259 A 
HETATM   26  C   UNL     1      41.933 -10.646  13.879  1.00  0.00     0.019 A 
HETATM   27  O   UNL     1      39.984 -12.559  13.059  1.00  0.00    -0.267 OA
HETATM   28  N   UNL     1      39.854 -11.634  10.990  1.00  0.00    -0.311 N 
HETATM   29  H   UNL     1      39.156 -12.334  10.771  1.00  0.00     0.170 HD
HETATM   30  C   UNL     1      42.882  -9.668  14.167  1.00  0.00     0.001 A 
HETATM   31  C   UNL     1      43.264  -8.757  13.181  1.00  0.00     0.002 A 
ENDBRANCH  19  20
ENDBRANCH  18  19
ENDBRANCH  15  18
ENDBRANCH  13  14
ENDBRANCH   6  13
BRANCH   1  32
HETATM   32  C   UNL     1      43.027 -17.179   4.745  1.00  0.00     0.006 A 
HETATM   33  C   UNL     1      43.383 -18.368   4.074  1.00  0.00     0.077 A 
HETATM   34  C   UNL     1      44.370 -19.202   4.610  1.00  0.00     0.037 A 
HETATM   35  C   UNL     1      45.021 -18.857   5.794  1.00  0.00     0.003 A 
HETATM   36  C   UNL     1      44.701 -17.672   6.447  1.00  0.00     0.001 A 
HETATM   37  C   UNL     1      43.718 -16.833   5.923  1.00  0.00     0.012 A 
BRANCH  33  38
HETATM   38  O   UNL     1      42.696 -18.637   2.918  1.00  0.00    -0.355 OA
HETATM   39  C   UNL     1      43.241 -19.630   2.053  1.00  0.00     0.210 C 
ENDBRANCH  33  38
ENDBRANCH   1  32
TORSDOF 7
ENDMDL
MODEL 7
REMARK VINA RESULT:      -9.0      3.778      9.116
REMARK  7 active torsions:
REMARK  status: ('A' for Active; 'I' for Inactive)
REMARK    1  A    between atoms: O_2  and  C_3 
REMARK    2  A    between atoms: C_4  and  C_5 
REMARK    3  A    between atoms: N_10  and  C_12 
REMARK    4  A    between atoms: C_12  and  C_13 
REMARK       I    between atoms: C_13  and  N_14 
REMARK    5  A    between atoms: N_14  and  C_15 
REMARK    6  A    between atoms: C_15  and  C_16 
REMARK    7  A    between atoms: C_16  and  C_17 
ROOT
HETATM    1  C   UNL     1      42.308 -17.547   2.597  1.00  0.00     0.190 C 
HETATM    2  O   UNL     1      41.120 -17.778   3.377  1.00  0.00    -0.339 OA
HETATM    3  C   UNL     1      40.654 -16.595   3.885  1.00  0.00     0.077 A 
HETATM    4  C   UNL     1      40.075 -15.637   3.048  1.00  0.00     0.001 A 
HETATM    5  C   UNL     1      39.900 -15.906   1.583  1.00  0.00     0.276 C 
HETATM    6  N   UNL     1      41.199 -16.052   0.837  1.00  0.00    -0.056 N 
HETATM    7  H   UNL     1      41.831 -15.297   1.154  1.00  0.00     0.280 HD
HETATM    8  C   UNL     1      41.920 -17.378   1.112  1.00  0.00     0.273 C 
HETATM    9  C   UNL     1      40.761 -16.392   5.259  1.00  0.00     0.037 A 
HETATM   10  C   UNL     1      40.320 -15.193   5.812  1.00  0.00     0.003 A 
HETATM   11  C   UNL     1      39.763 -14.213   4.992  1.00  0.00     0.001 A 
HETATM   12  C   UNL     1      39.636 -14.433   3.618  1.00  0.00     0.012 A 
ENDROOT
BRANCH   6  13
HETATM   13  C   UNL     1      41.039 -15.818  -0.663  1.00  0.00     0.337 C 
BRANCH  13  14
HETATM   14  C   UNL     1      41.377 -14.367  -1.005  1.00  0.00     0.243 C 
HETATM   15  N   UNL     1      42.103 -13.684  -0.062  1.00  0.00    -0.359 N 
HETATM   16  H   UNL     1      42.185 -14.074   0.874  1.00  0.00     0.162 HD
HETATM   17  O   UNL     1      40.916 -13.862  -2.028  1.00  0.00    -0.272 OA
BRANCH  15  18
HETATM   18  C   UNL     1      42.214 -12.235  -0.113  1.00  0.00     0.130 C 
BRANCH  18  19
HETATM   19  C   UNL     1      41.318 -11.538   0.912  1.00  0.00     0.098 C 
BRANCH  19  20
HETATM   20  C   UNL     1      41.730 -11.846   2.337  1.00  0.00     0.109 A 
HETATM   21  N   UNL     1      42.504 -12.855   2.608  1.00  0.00    -0.234 NA
HETATM   22  C   UNL     1      42.842 -13.068   3.961  1.00  0.00     0.074 A 
HETATM   23  C   UNL     1      42.347 -12.270   4.998  1.00  0.00     0.061 A 
HETATM   24  C   UNL     1      43.717 -14.108   4.284  1.00  0.00     0.032 A 
HETATM   25  C   UNL     1      41.442 -11.170   4.636  1.00  0.00     0.259 A 
HETATM   26  C   UNL     1      42.704 -12.497   6.331  1.00  0.00     0.019 A 
HETATM   27  O   UNL     1      40.935 -10.433   5.471  1.00  0.00    -0.267 OA
HETATM   28  N   UNL     1      41.203 -11.022   3.295  1.00  0.00    -0.311 N 
HETATM   29  H   UNL     1      40.578 -10.262   3.059  1.00  0.00     0.170 HD
HETATM   30  C   UNL     1      43.576 -13.539   6.636  1.00  0.00     0.001 A 
HETATM   31  C   UNL     1      44.083 -14.343   5.615  1.00  0.00     0.002 A 
ENDBRANCH  19  20
ENDBRANCH  18  19
ENDBRANCH  15  18
ENDBRANCH  13  14
ENDBRANCH   6  13
BRANCH   1  32
HETATM   32  C   UNL     1      43.236 -18.734   2.815  1.00  0.00     0.006 A 
HETATM   33  C   UNL     1      44.072 -18.784   3.950  1.00  0.00     0.077 A 
HETATM   34  C   UNL     1      44.932 -19.872   4.133  1.00  0.00     0.037 A 
HETATM   35  C   UNL     1      44.955 -20.919   3.213  1.00  0.00     0.003 A 
HETATM   36  C   UNL     1      44.112 -20.895   2.108  1.00  0.00     0.001 A 
HETATM   37  C   UNL     1      43.251 -19.816   1.913  1.00  0.00     0.012 A 
BRANCH  33  38
HETATM   38  O   UNL     1      43.992 -17.717   4.806  1.00  0.00    -0.355 OA
HETATM   39  C   UNL     1      44.094 -17.991   6.201  1.00  0.00     0.210 C 
ENDBRANCH  33  38
ENDBRANCH   1  32
TORSDOF 7
ENDMDL
MODEL 8
REMARK VINA RESULT:      -8.9      7.249     11.593
REMARK  7 active torsions:
REMARK  status: ('A' for Active; 'I' for Inactive)
REMARK    1  A    between atoms: O_2  and  C_3 
REMARK    2  A    between atoms: C_4  and  C_5 
REMARK    3  A    between atoms: N_10  and  C_12 
REMARK    4  A    between atoms: C_12  and  C_13 
REMARK       I    between atoms: C_13  and  N_14 
REMARK    5  A    between atoms: N_14  and  C_15 
REMARK    6  A    between atoms: C_15  and  C_16 
REMARK    7  A    between atoms: C_16  and  C_17 
ROOT
HETATM    1  C   UNL     1      42.545 -17.799   2.736  1.00  0.00     0.190 C 
HETATM    2  O   UNL     1      41.368 -17.908   3.558  1.00  0.00    -0.339 OA
HETATM    3  C   UNL     1      41.041 -16.683   4.075  1.00  0.00     0.077 A 
HETATM    4  C   UNL     1      40.531 -15.674   3.252  1.00  0.00     0.001 A 
HETATM    5  C   UNL     1      40.279 -15.928   1.796  1.00  0.00     0.276 C 
HETATM    6  N   UNL     1      41.530 -16.206   1.007  1.00  0.00    -0.056 N 
HETATM    7  H   UNL     1      42.245 -15.516   1.296  1.00  0.00     0.280 HD
HETATM    8  C   UNL     1      42.124 -17.596   1.264  1.00  0.00     0.273 C 
HETATM    9  C   UNL     1      41.216 -16.488   5.443  1.00  0.00     0.037 A 
HETATM   10  C   UNL     1      40.916 -15.250   6.004  1.00  0.00     0.003 A 
HETATM   11  C   UNL     1      40.431 -14.221   5.197  1.00  0.00     0.001 A 
HETATM   12  C   UNL     1      40.234 -14.431   3.830  1.00  0.00     0.012 A 
ENDROOT
BRANCH   6  13
HETATM   13  C   UNL     1      41.341 -15.960  -0.489  1.00  0.00     0.337 C 
BRANCH  13  14
HETATM   14  C   UNL     1      40.766 -14.563  -0.721  1.00  0.00     0.243 C 
HETATM   15  N   UNL     1      39.494 -14.517  -1.234  1.00  0.00    -0.359 N 
HETATM   16  H   UNL     1      39.094 -15.362  -1.633  1.00  0.00     0.162 HD
HETATM   17  O   UNL     1      41.480 -13.577  -0.538  1.00  0.00    -0.272 OA
BRANCH  15  18
HETATM   18  C   UNL     1      38.961 -13.285  -1.793  1.00  0.00     0.130 C 
BRANCH  18  19
HETATM   19  C   UNL     1      38.784 -13.354  -3.311  1.00  0.00     0.098 C 
BRANCH  19  20
HETATM   20  C   UNL     1      37.368 -13.026  -3.738  1.00  0.00     0.109 A 
HETATM   21  N   UNL     1      36.755 -11.976  -3.277  1.00  0.00    -0.234 NA
HETATM   22  C   UNL     1      35.440 -11.742  -3.731  1.00  0.00     0.074 A 
HETATM   23  C   UNL     1      34.777 -12.608  -4.607  1.00  0.00     0.061 A 
HETATM   24  C   UNL     1      34.770 -10.593  -3.302  1.00  0.00     0.032 A 
HETATM   25  C   UNL     1      35.504 -13.802  -5.061  1.00  0.00     0.259 A 
HETATM   26  C   UNL     1      33.475 -12.349  -5.048  1.00  0.00     0.019 A 
HETATM   27  O   UNL     1      35.003 -14.634  -5.805  1.00  0.00    -0.267 OA
HETATM   28  N   UNL     1      36.787 -13.922  -4.594  1.00  0.00    -0.311 N 
HETATM   29  H   UNL     1      37.276 -14.748  -4.914  1.00  0.00     0.170 HD
HETATM   30  C   UNL     1      32.822 -11.201  -4.609  1.00  0.00     0.001 A 
HETATM   31  C   UNL     1      33.468 -10.323  -3.738  1.00  0.00     0.002 A 
ENDBRANCH  19  20
ENDBRANCH  18  19
ENDBRANCH  15  18
ENDBRANCH  13  14
ENDBRANCH   6  13
BRANCH   1  32
HETATM   32  C   UNL     1      43.357 -19.072   2.929  1.00  0.00     0.006 A 
HETATM   33  C   UNL     1      44.151 -19.241   4.083  1.00  0.00     0.077 A 
HETATM   34  C   UNL     1      44.905 -20.408   4.244  1.00  0.00     0.037 A 
HETATM   35  C   UNL     1      44.863 -21.417   3.281  1.00  0.00     0.003 A 
HETATM   36  C   UNL     1      44.059 -21.274   2.156  1.00  0.00     0.001 A 
HETATM   37  C   UNL     1      43.303 -20.115   1.984  1.00  0.00     0.012 A 
BRANCH  33  38
HETATM   38  O   UNL     1      44.140 -18.205   4.980  1.00  0.00    -0.355 OA
HETATM   39  C   UNL     1      45.136 -18.215   5.998  1.00  0.00     0.210 C 
ENDBRANCH  33  38
ENDBRANCH   1  32
TORSDOF 7
ENDMDL
MODEL 9
REMARK VINA RESULT:      -8.9      5.377      8.966
REMARK  7 active torsions:
REMARK  status: ('A' for Active; 'I' for Inactive)
REMARK    1  A    between atoms: O_2  and  C_3 
REMARK    2  A    between atoms: C_4  and  C_5 
REMARK    3  A    between atoms: N_10  and  C_12 
REMARK    4  A    between atoms: C_12  and  C_13 
REMARK       I    between atoms: C_13  and  N_14 
REMARK    5  A    between atoms: N_14  and  C_15 
REMARK    6  A    between atoms: C_15  and  C_16 
REMARK    7  A    between atoms: C_16  and  C_17 
ROOT
HETATM    1  C   UNL     1      43.027 -17.267   4.189  1.00  0.00     0.190 C 
HETATM    2  O   UNL     1      42.929 -17.152   5.620  1.00  0.00    -0.339 OA
HETATM    3  C   UNL     1      43.250 -15.880   6.012  1.00  0.00     0.077 A 
HETATM    4  C   UNL     1      42.392 -14.810   5.737  1.00  0.00     0.001 A 
HETATM    5  C   UNL     1      41.077 -15.040   5.056  1.00  0.00     0.276 C 
HETATM    6  N   UNL     1      41.208 -15.548   3.645  1.00  0.00    -0.056 N 
HETATM    7  H   UNL     1      41.944 -14.991   3.177  1.00  0.00     0.280 HD
HETATM    8  C   UNL     1      41.640 -17.017   3.559  1.00  0.00     0.273 C 
HETATM    9  C   UNL     1      44.444 -15.696   6.706  1.00  0.00     0.037 A 
HETATM   10  C   UNL     1      44.817 -14.415   7.103  1.00  0.00     0.003 A 
HETATM   11  C   UNL     1      43.990 -13.330   6.816  1.00  0.00     0.001 A 
HETATM   12  C   UNL     1      42.782 -13.525   6.142  1.00  0.00     0.012 A 
ENDROOT
BRANCH   6  13
HETATM   13  C   UNL     1      39.950 -15.298   2.817  1.00  0.00     0.337 C 
BRANCH  13  14
HETATM   14  C   UNL     1      40.009 -13.909   2.182  1.00  0.00     0.243 C 
HETATM   15  N   UNL     1      41.177 -13.597   1.532  1.00  0.00    -0.359 N 
HETATM   16  H   UNL     1      41.996 -14.179   1.687  1.00  0.00     0.162 HD
HETATM   17  O   UNL     1      39.080 -13.121   2.360  1.00  0.00    -0.272 OA
BRANCH  15  18
HETATM   18  C   UNL     1      41.484 -12.223   1.170  1.00  0.00     0.130 C 
BRANCH  18  19
HETATM   19  C   UNL     1      41.983 -12.090  -0.270  1.00  0.00     0.098 C 
BRANCH  19  20
HETATM   20  C   UNL     1      41.207 -12.969  -1.229  1.00  0.00     0.109 A 
HETATM   21  N   UNL     1      39.909 -12.914  -1.287  1.00  0.00    -0.234 NA
HETATM   22  C   UNL     1      39.266 -13.764  -2.212  1.00  0.00     0.074 A 
HETATM   23  C   UNL     1      39.963 -14.671  -3.018  1.00  0.00     0.061 A 
HETATM   24  C   UNL     1      37.877 -13.693  -2.343  1.00  0.00     0.032 A 
HETATM   25  C   UNL     1      41.425 -14.718  -2.878  1.00  0.00     0.259 A 
HETATM   26  C   UNL     1      39.302 -15.496  -3.933  1.00  0.00     0.019 A 
HETATM   27  O   UNL     1      42.123 -15.494  -3.517  1.00  0.00    -0.267 OA
HETATM   28  N   UNL     1      41.960 -13.830  -1.981  1.00  0.00    -0.311 N 
HETATM   29  H   UNL     1      42.967 -13.873  -1.894  1.00  0.00     0.170 HD
HETATM   30  C   UNL     1      37.917 -15.414  -4.049  1.00  0.00     0.001 A 
HETATM   31  C   UNL     1      37.204 -14.513  -3.257  1.00  0.00     0.002 A 
ENDBRANCH  19  20
ENDBRANCH  18  19
ENDBRANCH  15  18
ENDBRANCH  13  14
ENDBRANCH   6  13
BRANCH   1  32
HETATM   32  C   UNL     1      43.555 -18.660   3.877  1.00  0.00     0.006 A 
HETATM   33  C   UNL     1      43.470 -19.176   2.567  1.00  0.00     0.077 A 
HETATM   34  C   UNL     1      43.944 -20.463   2.294  1.00  0.00     0.037 A 
HETATM   35  C   UNL     1      44.519 -21.235   3.303  1.00  0.00     0.003 A 
HETATM   36  C   UNL     1      44.636 -20.724   4.591  1.00  0.00     0.001 A 
HETATM   37  C   UNL     1      44.167 -19.443   4.875  1.00  0.00     0.012 A 
BRANCH  33  38
HETATM   38  O   UNL     1      42.891 -18.358   1.632  1.00  0.00    -0.355 OA
HETATM   39  C   UNL     1      43.765 -17.644   0.761  1.00  0.00     0.210 C 
ENDBRANCH  33  38
ENDBRANCH   1  32
TORSDOF 7
ENDMDL
MODEL 10
REMARK VINA RESULT:      -8.8      3.017     10.462
REMARK  7 active torsions:
REMARK  status: ('A' for Active; 'I' for Inactive)
REMARK    1  A    between atoms: O_2  and  C_3 
REMARK    2  A    between atoms: C_4  and  C_5 
REMARK    3  A    between atoms: N_10  and  C_12 
REMARK    4  A    between atoms: C_12  and  C_13 
REMARK       I    between atoms: C_13  and  N_14 
REMARK    5  A    between atoms: N_14  and  C_15 
REMARK    6  A    between atoms: C_15  and  C_16 
REMARK    7  A    between atoms: C_16  and  C_17 
ROOT
HETATM    1  C   UNL     1      42.982 -16.766   4.048  1.00  0.00     0.190 C 
HETATM    2  O   UNL     1      43.621 -16.458   2.796  1.00  0.00    -0.339 OA
HETATM    3  C   UNL     1      42.741 -15.823   1.962  1.00  0.00     0.077 A 
HETATM    4  C   UNL     1      42.330 -14.512   2.223  1.00  0.00     0.001 A 
HETATM    5  C   UNL     1      42.886 -13.753   3.390  1.00  0.00     0.276 C 
HETATM    6  N   UNL     1      42.512 -14.341   4.725  1.00  0.00    -0.056 N 
HETATM    7  H   UNL     1      41.506 -14.579   4.694  1.00  0.00     0.280 HD
HETATM    8  C   UNL     1      43.265 -15.634   5.060  1.00  0.00     0.273 C 
HETATM    9  C   UNL     1      42.289 -16.518   0.843  1.00  0.00     0.037 A 
HETATM   10  C   UNL     1      41.376 -15.916  -0.018  1.00  0.00     0.003 A 
HETATM   11  C   UNL     1      40.932 -14.619   0.237  1.00  0.00     0.001 A 
HETATM   12  C   UNL     1      41.408 -13.917   1.348  1.00  0.00     0.012 A 
ENDROOT
BRANCH   6  13
HETATM   13  C   UNL     1      42.633 -13.328   5.861  1.00  0.00     0.337 C 
BRANCH  13  14
HETATM   14  C   UNL     1      41.355 -12.496   5.958  1.00  0.00     0.243 C 
HETATM   15  N   UNL     1      41.350 -11.516   6.919  1.00  0.00    -0.359 N 
HETATM   16  H   UNL     1      42.066 -11.532   7.641  1.00  0.00     0.162 HD
HETATM   17  O   UNL     1      40.383 -12.794   5.264  1.00  0.00    -0.272 OA
BRANCH  15  18
HETATM   18  C   UNL     1      40.108 -10.879   7.327  1.00  0.00     0.130 C 
BRANCH  18  19
HETATM   19  C   UNL     1      39.505 -11.513   8.582  1.00  0.00     0.098 C 
BRANCH  19  20
HETATM   20  C   UNL     1      40.055 -10.901   9.854  1.00  0.00     0.109 A 
HETATM   21  N   UNL     1      41.318 -10.990  10.150  1.00  0.00    -0.234 NA
HETATM   22  C   UNL     1      41.747 -10.388  11.352  1.00  0.00     0.074 A 
HETATM   23  C   UNL     1      40.868  -9.751  12.234  1.00  0.00     0.061 A 
HETATM   24  C   UNL     1      43.105 -10.415  11.674  1.00  0.00     0.032 A 
HETATM   25  C   UNL     1      39.444  -9.717  11.868  1.00  0.00     0.259 A 
HETATM   26  C   UNL     1      41.319  -9.155  13.415  1.00  0.00     0.019 A 
HETATM   27  O   UNL     1      38.592  -9.209  12.584  1.00  0.00    -0.267 OA
HETATM   28  N   UNL     1      39.132 -10.297  10.665  1.00  0.00    -0.311 N 
HETATM   29  H   UNL     1      38.149 -10.268  10.426  1.00  0.00     0.170 HD
HETATM   30  C   UNL     1      42.676  -9.192  13.723  1.00  0.00     0.001 A 
HETATM   31  C   UNL     1      43.570  -9.820  12.853  1.00  0.00     0.002 A 
ENDBRANCH  19  20
ENDBRANCH  18  19
ENDBRANCH  15  18
ENDBRANCH  13  14
ENDBRANCH   6  13
BRANCH   1  32
HETATM   32  C   UNL     1      43.525 -18.107   4.521  1.00  0.00     0.006 A 
HETATM   33  C   UNL     1      43.334 -18.519   5.857  1.00  0.00     0.077 A 
HETATM   34  C   UNL     1      43.850 -19.747   6.286  1.00  0.00     0.037 A 
HETATM   35  C   UNL     1      44.534 -20.576   5.399  1.00  0.00     0.003 A 
HETATM   36  C   UNL     1      44.701 -20.193   4.073  1.00  0.00     0.001 A 
HETATM   37  C   UNL     1      44.192 -18.972   3.633  1.00  0.00     0.012 A 
BRANCH  33  38
HETATM   38  O   UNL     1      42.652 -17.648   6.666  1.00  0.00    -0.355 OA
HETATM   39  C   UNL     1      43.105 -17.520   8.011  1.00  0.00     0.210 C 
ENDBRANCH  33  38
ENDBRANCH   1  32
TORSDOF 7
ENDMDL
