MODEL 1
REMARK VINA RESULT:      -7.6      0.000      0.000
REMARK  11 active torsions:
REMARK  status: ('A' for Active; 'I' for Inactive)
REMARK    1  A    between atoms: C_2  and  N_3 
REMARK    2  A    between atoms: N_3  and  C_5 
REMARK    3  A    between atoms: N_3  and  C_32 
REMARK    4  A    between atoms: C_5  and  C_6 
REMARK    5  A    between atoms: N_9  and  C_10 
REMARK    6  A    between atoms: C_14  and  N_15 
REMARK    7  A    between atoms: C_16  and  C_17 
REMARK       I    between atoms: C_17  and  N_18 
REMARK    8  A    between atoms: N_18  and  N_19 
REMARK    9  A    between atoms: C_20  and  C_21 
REMARK   10  A    between atoms: C_25  and  O_26 
REMARK   11  A    between atoms: C_27  and  O_28 
ROOT
HETATM    1  C   UNL     1      39.060 -13.665   1.260  1.00  0.00     0.112 A 
HETATM    2  N   UNL     1      37.967 -13.125   0.657  1.00  0.00    -0.160 NA
HETATM    3  N   UNL     1      38.039 -13.385  -0.636  1.00  0.00     0.012 NA
HETATM    4  N   UNL     1      39.180 -14.092  -0.898  1.00  0.00    -0.207 N 
HETATM    5  C   UNL     1      39.825 -14.315   0.309  1.00  0.00     0.153 A 
ENDROOT
BRANCH   5   6
HETATM    6  C   UNL     1      41.084 -14.956   0.544  1.00  0.00     0.292 C 
HETATM    7  N   UNL     1      41.060 -16.339   0.427  1.00  0.00    -0.242 N 
HETATM    8  H   UNL     1      40.166 -16.813   0.340  1.00  0.00     0.192 HD
HETATM    9  O   UNL     1      42.022 -14.306   0.998  1.00  0.00    -0.264 OA
BRANCH   7  10
HETATM   10  N   UNL     1      42.044 -17.139   0.956  1.00  0.00    -0.184 NA
HETATM   11  C   UNL     1      41.848 -17.543   2.174  1.00  0.00     0.150 C 
BRANCH  11  12
HETATM   12  C   UNL     1      42.788 -18.447   2.868  1.00  0.00    -0.013 A 
HETATM   13  C   UNL     1      43.162 -19.628   2.222  1.00  0.00     0.035 A 
HETATM   14  C   UNL     1      44.039 -20.503   2.857  1.00  0.00     0.047 A 
HETATM   15 BR   UNL     1      44.522 -22.111   1.975  1.00  0.00    -0.048 Br
HETATM   16  C   UNL     1      44.551 -20.196   4.121  1.00  0.00     0.116 A 
HETATM   17  C   UNL     1      44.188 -19.005   4.768  1.00  0.00     0.103 A 
HETATM   18  C   UNL     1      43.298 -18.131   4.135  1.00  0.00     0.052 A 
BRANCH  16  19
HETATM   19  O   UNL     1      45.416 -21.051   4.757  1.00  0.00    -0.357 OA
HETATM   20  H   UNL     1      46.325 -20.808   4.506  1.00  0.00     0.218 HD
ENDBRANCH  16  19
BRANCH  17  21
HETATM   21  O   UNL     1      44.753 -18.796   5.999  1.00  0.00    -0.353 OA
HETATM   22  C   UNL     1      44.758 -17.472   6.513  1.00  0.00     0.210 C 
ENDBRANCH  17  21
ENDBRANCH  11  12
ENDBRANCH   7  10
ENDBRANCH   5   6
BRANCH   1  23
HETATM   23  C   UNL     1      39.317 -13.562   2.727  1.00  0.00     0.297 C 
BRANCH  23  24
HETATM   24  N   UNL     1      40.463 -12.685   3.213  1.00  0.00    -0.066 N 
HETATM   25  H   UNL     1      41.090 -12.585   2.405  1.00  0.00     0.280 HD
BRANCH  24  26
HETATM   26  C   UNL     1      41.317 -13.286   4.317  1.00  0.00     0.231 C 
HETATM   27  C   UNL     1      41.069 -14.774   4.483  1.00  0.00     0.034 C 
ENDBRANCH  24  26
BRANCH  24  28
HETATM   28  C   UNL     1      40.026 -11.278   3.585  1.00  0.00     0.231 C 
HETATM   29  C   UNL     1      38.722 -11.295   4.361  1.00  0.00     0.034 C 
ENDBRANCH  24  28
ENDBRANCH  23  24
ENDBRANCH   1  23
BRANCH   4  30
HETATM   30  C   UNL     1      39.565 -14.466  -2.203  1.00  0.00     0.225 A 
HETATM   31  N   UNL     1      40.806 -14.225  -2.628  1.00  0.00    -0.081 NA
HETATM   32  O   UNL     1      40.815 -14.728  -3.931  1.00  0.00    -0.103 OA
HETATM   33  N   UNL     1      39.578 -15.257  -4.275  1.00  0.00    -0.083 NA
HETATM   34  C   UNL     1      38.803 -15.093  -3.203  1.00  0.00     0.201 A 
BRANCH  34  35
HETATM   35  N   UNL     1      37.516 -15.471  -3.134  1.00  0.00    -0.379 N 
HETATM   36  H   UNL     1      37.040 -15.778  -3.979  1.00  0.00     0.158 HD
HETATM   37  H   UNL     1      36.899 -15.225  -2.364  1.00  0.00     0.158 HD
ENDBRANCH  34  35
ENDBRANCH   4  30
TORSDOF 11
ENDMDL
MODEL 2
REMARK VINA RESULT:      -7.5      1.660      4.818
REMARK  11 active torsions:
REMARK  status: ('A' for Active; 'I' for Inactive)
REMARK    1  A    between atoms: C_2  and  N_3 
REMARK    2  A    between atoms: N_3  and  C_5 
REMARK    3  A    between atoms: N_3  and  C_32 
REMARK    4  A    between atoms: C_5  and  C_6 
REMARK    5  A    between atoms: N_9  and  C_10 
REMARK    6  A    between atoms: C_14  and  N_15 
REMARK    7  A    between atoms: C_16  and  C_17 
REMARK       I    between atoms: C_17  and  N_18 
REMARK    8  A    between atoms: N_18  and  N_19 
REMARK    9  A    between atoms: C_20  and  C_21 
REMARK   10  A    between atoms: C_25  and  O_26 
REMARK   11  A    between atoms: C_27  and  O_28 
ROOT
HETATM    1  C   UNL     1      39.394 -13.371  -0.201  1.00  0.00     0.112 A 
HETATM    2  N   UNL     1      39.338 -12.030   0.019  1.00  0.00    -0.160 NA
HETATM    3  N   UNL     1      40.191 -11.733   0.983  1.00  0.00     0.012 NA
HETATM    4  N   UNL     1      40.813 -12.874   1.409  1.00  0.00    -0.207 N 
HETATM    5  C   UNL     1      40.345 -13.926   0.636  1.00  0.00     0.153 A 
ENDROOT
BRANCH   5   6
HETATM    6  C   UNL     1      40.653 -15.320   0.744  1.00  0.00     0.292 C 
HETATM    7  N   UNL     1      40.472 -15.856   2.013  1.00  0.00    -0.242 N 
HETATM    8  H   UNL     1      40.292 -15.231   2.793  1.00  0.00     0.192 HD
HETATM    9  O   UNL     1      41.211 -15.894  -0.187  1.00  0.00    -0.264 OA
BRANCH   7  10
HETATM   10  N   UNL     1      41.043 -17.045   2.397  1.00  0.00    -0.184 NA
HETATM   11  C   UNL     1      42.280 -16.977   2.786  1.00  0.00     0.150 C 
BRANCH  11  12
HETATM   12  C   UNL     1      43.020 -18.158   3.275  1.00  0.00    -0.013 A 
HETATM   13  C   UNL     1      43.243 -19.210   2.382  1.00  0.00     0.035 A 
HETATM   14  C   UNL     1      43.930 -20.340   2.817  1.00  0.00     0.047 A 
HETATM   15 BR   UNL     1      44.208 -21.765   1.598  1.00  0.00    -0.048 Br
HETATM   16  C   UNL     1      44.402 -20.415   4.131  1.00  0.00     0.116 A 
HETATM   17  C   UNL     1      44.192 -19.357   5.028  1.00  0.00     0.103 A 
HETATM   18  C   UNL     1      43.492 -18.226   4.593  1.00  0.00     0.052 A 
BRANCH  16  19
HETATM   19  O   UNL     1      45.080 -21.524   4.572  1.00  0.00    -0.357 OA
HETATM   20  H   UNL     1      44.472 -22.284   4.543  1.00  0.00     0.218 HD
ENDBRANCH  16  19
BRANCH  17  21
HETATM   21  O   UNL     1      44.703 -19.528   6.287  1.00  0.00    -0.353 OA
HETATM   22  C   UNL     1      43.938 -19.057   7.387  1.00  0.00     0.210 C 
ENDBRANCH  17  21
ENDBRANCH  11  12
ENDBRANCH   7  10
ENDBRANCH   5   6
BRANCH   1  23
HETATM   23  C   UNL     1      38.557 -14.067  -1.222  1.00  0.00     0.297 C 
BRANCH  23  24
HETATM   24  N   UNL     1      39.225 -14.604  -2.480  1.00  0.00    -0.066 N 
HETATM   25  H   UNL     1      39.826 -15.374  -2.161  1.00  0.00     0.280 HD
BRANCH  24  26
HETATM   26  C   UNL     1      40.152 -13.631  -3.188  1.00  0.00     0.231 C 
HETATM   27  C   UNL     1      41.595 -14.102  -3.170  1.00  0.00     0.034 C 
ENDBRANCH  24  26
BRANCH  24  28
HETATM   28  C   UNL     1      38.243 -15.216  -3.466  1.00  0.00     0.231 C 
HETATM   29  C   UNL     1      38.915 -16.274  -4.324  1.00  0.00     0.034 C 
ENDBRANCH  24  28
ENDBRANCH  23  24
ENDBRANCH   1  23
BRANCH   4  30
HETATM   30  C   UNL     1      41.738 -12.887   2.475  1.00  0.00     0.225 A 
HETATM   31  N   UNL     1      42.951 -13.414   2.302  1.00  0.00    -0.081 NA
HETATM   32  O   UNL     1      43.569 -13.243   3.543  1.00  0.00    -0.103 OA
HETATM   33  N   UNL     1      42.717 -12.621   4.447  1.00  0.00    -0.083 NA
HETATM   34  C   UNL     1      41.582 -12.402   3.785  1.00  0.00     0.201 A 
BRANCH  34  35
HETATM   35  N   UNL     1      40.495 -11.819   4.317  1.00  0.00    -0.379 N 
HETATM   36  H   UNL     1      39.572 -12.091   3.989  1.00  0.00     0.158 HD
HETATM   37  H   UNL     1      40.523 -10.940   4.828  1.00  0.00     0.158 HD
ENDBRANCH  34  35
ENDBRANCH   4  30
TORSDOF 11
ENDMDL
MODEL 3
REMARK VINA RESULT:      -7.5      3.799      8.276
REMARK  11 active torsions:
REMARK  status: ('A' for Active; 'I' for Inactive)
REMARK    1  A    between atoms: C_2  and  N_3 
REMARK    2  A    between atoms: N_3  and  C_5 
REMARK    3  A    between atoms: N_3  and  C_32 
REMARK    4  A    between atoms: C_5  and  C_6 
REMARK    5  A    between atoms: N_9  and  C_10 
REMARK    6  A    between atoms: C_14  and  N_15 
REMARK    7  A    between atoms: C_16  and  C_17 
REMARK       I    between atoms: C_17  and  N_18 
REMARK    8  A    between atoms: N_18  and  N_19 
REMARK    9  A    between atoms: C_20  and  C_21 
REMARK   10  A    between atoms: C_25  and  O_26 
REMARK   11  A    between atoms: C_27  and  O_28 
ROOT
HETATM    1  C   UNL     1      43.724 -17.346   5.500  1.00  0.00     0.112 A 
HETATM    2  N   UNL     1      44.823 -17.930   6.047  1.00  0.00    -0.160 NA
HETATM    3  N   UNL     1      45.109 -19.012   5.344  1.00  0.00     0.012 NA
HETATM    4  N   UNL     1      44.201 -19.152   4.331  1.00  0.00    -0.207 N 
HETATM    5  C   UNL     1      43.330 -18.074   4.391  1.00  0.00     0.153 A 
ENDROOT
BRANCH   5   6
HETATM    6  C   UNL     1      42.178 -17.810   3.584  1.00  0.00     0.292 C 
HETATM    7  N   UNL     1      42.462 -17.378   2.295  1.00  0.00    -0.242 N 
HETATM    8  H   UNL     1      43.418 -17.133   2.054  1.00  0.00     0.192 HD
HETATM    9  O   UNL     1      41.064 -17.795   4.100  1.00  0.00    -0.264 OA
BRANCH   7  10
HETATM   10  N   UNL     1      41.530 -16.742   1.511  1.00  0.00    -0.184 NA
HETATM   11  C   UNL     1      42.006 -15.992   0.564  1.00  0.00     0.150 C 
BRANCH  11  12
HETATM   12  C   UNL     1      41.136 -15.280  -0.393  1.00  0.00    -0.013 A 
HETATM   13  C   UNL     1      40.424 -14.169   0.067  1.00  0.00     0.035 A 
HETATM   14  C   UNL     1      39.587 -13.484  -0.811  1.00  0.00     0.047 A 
HETATM   15 BR   UNL     1      38.614 -11.990  -0.166  1.00  0.00    -0.048 Br
HETATM   16  C   UNL     1      39.473 -13.896  -2.142  1.00  0.00     0.116 A 
HETATM   17  C   UNL     1      40.196 -15.003  -2.612  1.00  0.00     0.103 A 
HETATM   18  C   UNL     1      41.027 -15.698  -1.727  1.00  0.00     0.052 A 
BRANCH  16  19
HETATM   19  O   UNL     1      38.652 -13.230  -3.017  1.00  0.00    -0.357 OA
HETATM   20  H   UNL     1      37.763 -13.624  -2.961  1.00  0.00     0.218 HD
ENDBRANCH  16  19
BRANCH  17  21
HETATM   21  O   UNL     1      40.019 -15.317  -3.933  1.00  0.00    -0.353 OA
HETATM   22  C   UNL     1      39.017 -16.268  -4.264  1.00  0.00     0.210 C 
ENDBRANCH  17  21
ENDBRANCH  11  12
ENDBRANCH   7  10
ENDBRANCH   5   6
BRANCH   1  23
HETATM   23  C   UNL     1      43.107 -16.100   6.041  1.00  0.00     0.297 C 
BRANCH  23  24
HETATM   24  N   UNL     1      43.458 -14.765   5.397  1.00  0.00    -0.066 N 
HETATM   25  H   UNL     1      44.322 -14.937   4.870  1.00  0.00     0.280 HD
BRANCH  24  26
HETATM   26  C   UNL     1      43.789 -13.643   6.366  1.00  0.00     0.231 C 
HETATM   27  C   UNL     1      44.974 -13.985   7.251  1.00  0.00     0.034 C 
ENDBRANCH  24  26
BRANCH  24  28
HETATM   28  C   UNL     1      42.429 -14.302   4.379  1.00  0.00     0.231 C 
HETATM   29  C   UNL     1      43.097 -13.656   3.178  1.00  0.00     0.034 C 
ENDBRANCH  24  28
ENDBRANCH  23  24
ENDBRANCH   1  23
BRANCH   4  30
HETATM   30  C   UNL     1      44.209 -20.249   3.444  1.00  0.00     0.225 A 
HETATM   31  N   UNL     1      43.847 -20.082   2.171  1.00  0.00    -0.081 NA
HETATM   32  O   UNL     1      43.986 -21.355   1.615  1.00  0.00    -0.103 OA
HETATM   33  N   UNL     1      44.423 -22.273   2.563  1.00  0.00    -0.083 NA
HETATM   34  C   UNL     1      44.560 -21.586   3.696  1.00  0.00     0.201 A 
BRANCH  34  35
HETATM   35  N   UNL     1      44.962 -22.120   4.862  1.00  0.00    -0.379 N 
HETATM   36  H   UNL     1      44.489 -21.854   5.722  1.00  0.00     0.158 HD
HETATM   37  H   UNL     1      45.868 -22.561   4.994  1.00  0.00     0.158 HD
ENDBRANCH  34  35
ENDBRANCH   4  30
TORSDOF 11
ENDMDL
MODEL 4
REMARK VINA RESULT:      -7.3      3.723      8.129
REMARK  11 active torsions:
REMARK  status: ('A' for Active; 'I' for Inactive)
REMARK    1  A    between atoms: C_2  and  N_3 
REMARK    2  A    between atoms: N_3  and  C_5 
REMARK    3  A    between atoms: N_3  and  C_32 
REMARK    4  A    between atoms: C_5  and  C_6 
REMARK    5  A    between atoms: N_9  and  C_10 
REMARK    6  A    between atoms: C_14  and  N_15 
REMARK    7  A    between atoms: C_16  and  C_17 
REMARK       I    between atoms: C_17  and  N_18 
REMARK    8  A    between atoms: N_18  and  N_19 
REMARK    9  A    between atoms: C_20  and  C_21 
REMARK   10  A    between atoms: C_25  and  O_26 
REMARK   11  A    between atoms: C_27  and  O_28 
ROOT
HETATM    1  C   UNL     1      43.993 -17.571   5.728  1.00  0.00     0.112 A 
HETATM    2  N   UNL     1      45.151 -18.095   6.210  1.00  0.00    -0.160 NA
HETATM    3  N   UNL     1      45.435 -19.181   5.514  1.00  0.00     0.012 NA
HETATM    4  N   UNL     1      44.467 -19.384   4.570  1.00  0.00    -0.207 N 
HETATM    5  C   UNL     1      43.557 -18.342   4.666  1.00  0.00     0.153 A 
ENDROOT
BRANCH   5   6
HETATM    6  C   UNL     1      42.342 -18.147   3.934  1.00  0.00     0.292 C 
HETATM    7  N   UNL     1      42.519 -17.780   2.607  1.00  0.00    -0.242 N 
HETATM    8  H   UNL     1      43.448 -17.529   2.282  1.00  0.00     0.192 HD
HETATM    9  O   UNL     1      41.269 -18.128   4.531  1.00  0.00    -0.264 OA
BRANCH   7  10
HETATM   10  N   UNL     1      41.515 -17.208   1.862  1.00  0.00    -0.184 NA
HETATM   11  C   UNL     1      41.715 -15.978   1.497  1.00  0.00     0.150 C 
BRANCH  11  12
HETATM   12  C   UNL     1      40.754 -15.237   0.655  1.00  0.00    -0.013 A 
HETATM   13  C   UNL     1      41.004 -15.166  -0.718  1.00  0.00     0.035 A 
HETATM   14  C   UNL     1      40.120 -14.466  -1.536  1.00  0.00     0.047 A 
HETATM   15 BR   UNL     1      40.483 -14.363  -3.394  1.00  0.00    -0.048 Br
HETATM   16  C   UNL     1      38.989 -13.854  -0.990  1.00  0.00     0.116 A 
HETATM   17  C   UNL     1      38.727 -13.933   0.387  1.00  0.00     0.103 A 
HETATM   18  C   UNL     1      39.621 -14.626   1.209  1.00  0.00     0.052 A 
BRANCH  16  19
HETATM   19  O   UNL     1      38.111 -13.161  -1.785  1.00  0.00    -0.357 OA
HETATM   20  H   UNL     1      38.386 -12.227  -1.801  1.00  0.00     0.218 HD
ENDBRANCH  16  19
BRANCH  17  21
HETATM   21  O   UNL     1      37.588 -13.307   0.817  1.00  0.00    -0.353 OA
HETATM   22  C   UNL     1      37.724 -12.062   1.486  1.00  0.00     0.210 C 
ENDBRANCH  17  21
ENDBRANCH  11  12
ENDBRANCH   7  10
ENDBRANCH   5   6
BRANCH   1  23
HETATM   23  C   UNL     1      43.362 -16.337   6.282  1.00  0.00     0.297 C 
BRANCH  23  24
HETATM   24  N   UNL     1      43.263 -15.100   5.400  1.00  0.00    -0.066 N 
HETATM   25  H   UNL     1      43.600 -15.399   4.476  1.00  0.00     0.280 HD
BRANCH  24  26
HETATM   26  C   UNL     1      44.158 -13.942   5.804  1.00  0.00     0.231 C 
HETATM   27  C   UNL     1      44.705 -14.107   7.210  1.00  0.00     0.034 C 
ENDBRANCH  24  26
BRANCH  24  28
HETATM   28  C   UNL     1      41.835 -14.623   5.193  1.00  0.00     0.231 C 
HETATM   29  C   UNL     1      41.795 -13.358   4.354  1.00  0.00     0.034 C 
ENDBRANCH  24  28
ENDBRANCH  23  24
ENDBRANCH   1  23
BRANCH   4  30
HETATM   30  C   UNL     1      44.462 -20.502   3.709  1.00  0.00     0.225 A 
HETATM   31  N   UNL     1      44.202 -20.345   2.410  1.00  0.00    -0.081 NA
HETATM   32  O   UNL     1      44.292 -21.639   1.893  1.00  0.00    -0.103 OA
HETATM   33  N   UNL     1      44.598 -22.559   2.889  1.00  0.00    -0.083 NA
HETATM   34  C   UNL     1      44.702 -21.853   4.014  1.00  0.00     0.201 A 
BRANCH  34  35
HETATM   35  N   UNL     1      44.985 -22.382   5.217  1.00  0.00    -0.379 N 
HETATM   36  H   UNL     1      45.113 -23.387   5.302  1.00  0.00     0.158 HD
HETATM   37  H   UNL     1      44.818 -21.898   6.096  1.00  0.00     0.158 HD
ENDBRANCH  34  35
ENDBRANCH   4  30
TORSDOF 11
ENDMDL
MODEL 5
REMARK VINA RESULT:      -7.2      5.846      9.683
REMARK  11 active torsions:
REMARK  status: ('A' for Active; 'I' for Inactive)
REMARK    1  A    between atoms: C_2  and  N_3 
REMARK    2  A    between atoms: N_3  and  C_5 
REMARK    3  A    between atoms: N_3  and  C_32 
REMARK    4  A    between atoms: C_5  and  C_6 
REMARK    5  A    between atoms: N_9  and  C_10 
REMARK    6  A    between atoms: C_14  and  N_15 
REMARK    7  A    between atoms: C_16  and  C_17 
REMARK       I    between atoms: C_17  and  N_18 
REMARK    8  A    between atoms: N_18  and  N_19 
REMARK    9  A    between atoms: C_20  and  C_21 
REMARK   10  A    between atoms: C_25  and  O_26 
REMARK   11  A    between atoms: C_27  and  O_28 
ROOT
HETATM    1  C   UNL     1      41.483 -10.719  10.447  1.00  0.00     0.112 A 
HETATM    2  N   UNL     1      42.185 -10.935  11.592  1.00  0.00    -0.160 NA
HETATM    3  N   UNL     1      43.445 -11.162  11.267  1.00  0.00     0.012 NA
HETATM    4  N   UNL     1      43.585 -11.101   9.908  1.00  0.00    -0.207 N 
HETATM    5  C   UNL     1      42.348 -10.780   9.369  1.00  0.00     0.153 A 
ENDROOT
BRANCH   5   6
HETATM    6  C   UNL     1      41.977 -10.664   7.992  1.00  0.00     0.292 C 
HETATM    7  N   UNL     1      41.637 -11.865   7.381  1.00  0.00    -0.242 N 
HETATM    8  H   UNL     1      41.812 -12.736   7.872  1.00  0.00     0.192 HD
HETATM    9  O   UNL     1      42.150  -9.601   7.402  1.00  0.00    -0.264 OA
BRANCH   7  10
HETATM   10  N   UNL     1      41.609 -12.012   6.015  1.00  0.00    -0.184 NA
HETATM   11  C   UNL     1      41.792 -13.219   5.574  1.00  0.00     0.150 C 
BRANCH  11  12
HETATM   12  C   UNL     1      41.743 -13.551   4.136  1.00  0.00    -0.013 A 
HETATM   13  C   UNL     1      41.249 -14.805   3.767  1.00  0.00     0.035 A 
HETATM   14  C   UNL     1      41.200 -15.149   2.419  1.00  0.00     0.047 A 
HETATM   15 BR   UNL     1      40.544 -16.861   1.937  1.00  0.00    -0.048 Br
HETATM   16  C   UNL     1      41.628 -14.243   1.444  1.00  0.00     0.116 A 
HETATM   17  C   UNL     1      42.114 -12.978   1.809  1.00  0.00     0.103 A 
HETATM   18  C   UNL     1      42.174 -12.637   3.164  1.00  0.00     0.052 A 
BRANCH  16  19
HETATM   19  O   UNL     1      41.586 -14.571   0.112  1.00  0.00    -0.357 OA
HETATM   20  H   UNL     1      41.120 -15.420   0.021  1.00  0.00     0.218 HD
ENDBRANCH  16  19
BRANCH  17  21
HETATM   21  O   UNL     1      42.499 -12.164   0.777  1.00  0.00    -0.353 OA
HETATM   22  C   UNL     1      41.617 -11.123   0.384  1.00  0.00     0.210 C 
ENDBRANCH  17  21
ENDBRANCH  11  12
ENDBRANCH   7  10
ENDBRANCH   5   6
BRANCH   1  23
HETATM   23  C   UNL     1      40.018 -10.436  10.429  1.00  0.00     0.297 C 
BRANCH  23  24
HETATM   24  N   UNL     1      39.538  -9.021  10.724  1.00  0.00    -0.066 N 
HETATM   25  H   UNL     1      40.161  -8.672  11.462  1.00  0.00     0.280 HD
BRANCH  24  26
HETATM   26  C   UNL     1      38.134  -8.918  11.294  1.00  0.00     0.231 C 
HETATM   27  C   UNL     1      38.040  -7.877  12.395  1.00  0.00     0.034 C 
ENDBRANCH  24  26
BRANCH  24  28
HETATM   28  C   UNL     1      39.705  -8.074   9.547  1.00  0.00     0.231 C 
HETATM   29  C   UNL     1      38.795  -8.463   8.395  1.00  0.00     0.034 C 
ENDBRANCH  24  28
ENDBRANCH  23  24
ENDBRANCH   1  23
BRANCH   4  30
HETATM   30  C   UNL     1      44.808 -11.361   9.254  1.00  0.00     0.225 A 
HETATM   31  N   UNL     1      45.792 -10.462   9.294  1.00  0.00    -0.081 NA
HETATM   32  O   UNL     1      46.819 -11.059   8.559  1.00  0.00    -0.103 OA
HETATM   33  N   UNL     1      46.435 -12.305   8.080  1.00  0.00    -0.083 NA
HETATM   34  C   UNL     1      45.188 -12.491   8.509  1.00  0.00     0.201 A 
BRANCH  34  35
HETATM   35  N   UNL     1      44.452 -13.584   8.249  1.00  0.00    -0.379 N 
HETATM   36  H   UNL     1      44.790 -14.496   8.548  1.00  0.00     0.158 HD
HETATM   37  H   UNL     1      43.718 -13.612   7.546  1.00  0.00     0.158 HD
ENDBRANCH  34  35
ENDBRANCH   4  30
TORSDOF 11
ENDMDL
MODEL 6
REMARK VINA RESULT:      -7.2      1.580      2.495
REMARK  11 active torsions:
REMARK  status: ('A' for Active; 'I' for Inactive)
REMARK    1  A    between atoms: C_2  and  N_3 
REMARK    2  A    between atoms: N_3  and  C_5 
REMARK    3  A    between atoms: N_3  and  C_32 
REMARK    4  A    between atoms: C_5  and  C_6 
REMARK    5  A    between atoms: N_9  and  C_10 
REMARK    6  A    between atoms: C_14  and  N_15 
REMARK    7  A    between atoms: C_16  and  C_17 
REMARK       I    between atoms: C_17  and  N_18 
REMARK    8  A    between atoms: N_18  and  N_19 
REMARK    9  A    between atoms: C_20  and  C_21 
REMARK   10  A    between atoms: C_25  and  O_26 
REMARK   11  A    between atoms: C_27  and  O_28 
ROOT
HETATM    1  C   UNL     1      38.749 -12.890   0.753  1.00  0.00     0.112 A 
HETATM    2  N   UNL     1      37.967 -12.229  -0.142  1.00  0.00    -0.160 NA
HETATM    3  N   UNL     1      38.175 -12.752  -1.337  1.00  0.00     0.012 NA
HETATM    4  N   UNL     1      39.096 -13.758  -1.242  1.00  0.00    -0.207 N 
HETATM    5  C   UNL     1      39.446 -13.887   0.094  1.00  0.00     0.153 A 
ENDROOT
BRANCH   5   6
HETATM    6  C   UNL     1      40.416 -14.758   0.684  1.00  0.00     0.292 C 
HETATM    7  N   UNL     1      39.888 -15.899   1.272  1.00  0.00    -0.242 N 
HETATM    8  H   UNL     1      38.882 -15.977   1.386  1.00  0.00     0.192 HD
HETATM    9  O   UNL     1      41.579 -14.382   0.802  1.00  0.00    -0.264 OA
BRANCH   7  10
HETATM   10  N   UNL     1      40.592 -16.651   2.181  1.00  0.00    -0.184 NA
HETATM   11  C   UNL     1      41.590 -17.329   1.700  1.00  0.00     0.150 C 
BRANCH  11  12
HETATM   12  C   UNL     1      42.474 -18.148   2.554  1.00  0.00    -0.013 A 
HETATM   13  C   UNL     1      42.492 -17.883   3.926  1.00  0.00     0.035 A 
HETATM   14  C   UNL     1      43.323 -18.632   4.754  1.00  0.00     0.047 A 
HETATM   15 BR   UNL     1      43.349 -18.248   6.610  1.00  0.00    -0.048 Br
HETATM   16  C   UNL     1      44.121 -19.648   4.220  1.00  0.00     0.116 A 
HETATM   17  C   UNL     1      44.097 -19.926   2.844  1.00  0.00     0.103 A 
HETATM   18  C   UNL     1      43.271 -19.166   2.011  1.00  0.00     0.052 A 
BRANCH  16  19
HETATM   19  O   UNL     1      44.945 -20.393   5.025  1.00  0.00    -0.357 OA
HETATM   20  H   UNL     1      44.434 -21.148   5.369  1.00  0.00     0.218 HD
ENDBRANCH  16  19
BRANCH  17  21
HETATM   21  O   UNL     1      44.909 -20.947   2.425  1.00  0.00    -0.353 OA
HETATM   22  C   UNL     1      44.316 -22.020   1.710  1.00  0.00     0.210 C 
ENDBRANCH  17  21
ENDBRANCH  11  12
ENDBRANCH   7  10
ENDBRANCH   5   6
BRANCH   1  23
HETATM   23  C   UNL     1      38.780 -12.561   2.209  1.00  0.00     0.297 C 
BRANCH  23  24
HETATM   24  N   UNL     1      39.738 -11.484   2.700  1.00  0.00    -0.066 N 
HETATM   25  H   UNL     1      39.148 -10.667   2.899  1.00  0.00     0.280 HD
BRANCH  24  26
HETATM   26  C   UNL     1      40.759 -11.010   1.681  1.00  0.00     0.231 C 
HETATM   27  C   UNL     1      40.498  -9.583   1.233  1.00  0.00     0.034 C 
ENDBRANCH  24  26
BRANCH  24  28
HETATM   28  C   UNL     1      40.421 -11.841   4.010  1.00  0.00     0.231 C 
HETATM   29  C   UNL     1      40.633 -13.340   4.128  1.00  0.00     0.034 C 
ENDBRANCH  24  28
ENDBRANCH  23  24
ENDBRANCH   1  23
BRANCH   4  30
HETATM   30  C   UNL     1      39.571 -14.468  -2.365  1.00  0.00     0.225 A 
HETATM   31  N   UNL     1      40.860 -14.409  -2.699  1.00  0.00    -0.081 NA
HETATM   32  O   UNL     1      40.951 -15.225  -3.828  1.00  0.00    -0.103 OA
HETATM   33  N   UNL     1      39.712 -15.758  -4.164  1.00  0.00    -0.083 NA
HETATM   34  C   UNL     1      38.857 -15.288  -3.257  1.00  0.00     0.201 A 
BRANCH  34  35
HETATM   35  N   UNL     1      37.544 -15.568  -3.237  1.00  0.00    -0.379 N 
HETATM   36  H   UNL     1      36.963 -15.297  -4.027  1.00  0.00     0.158 HD
HETATM   37  H   UNL     1      37.030 -15.789  -2.388  1.00  0.00     0.158 HD
ENDBRANCH  34  35
ENDBRANCH   4  30
TORSDOF 11
ENDMDL
MODEL 7
REMARK VINA RESULT:      -7.2      3.881      8.535
REMARK  11 active torsions:
REMARK  status: ('A' for Active; 'I' for Inactive)
REMARK    1  A    between atoms: C_2  and  N_3 
REMARK    2  A    between atoms: N_3  and  C_5 
REMARK    3  A    between atoms: N_3  and  C_32 
REMARK    4  A    between atoms: C_5  and  C_6 
REMARK    5  A    between atoms: N_9  and  C_10 
REMARK    6  A    between atoms: C_14  and  N_15 
REMARK    7  A    between atoms: C_16  and  C_17 
REMARK       I    between atoms: C_17  and  N_18 
REMARK    8  A    between atoms: N_18  and  N_19 
REMARK    9  A    between atoms: C_20  and  C_21 
REMARK   10  A    between atoms: C_25  and  O_26 
REMARK   11  A    between atoms: C_27  and  O_28 
ROOT
HETATM    1  C   UNL     1      42.945 -17.688   5.148  1.00  0.00     0.112 A 
HETATM    2  N   UNL     1      43.335 -17.213   6.361  1.00  0.00    -0.160 NA
HETATM    3  N   UNL     1      43.028 -15.929   6.421  1.00  0.00     0.012 NA
HETATM    4  N   UNL     1      42.438 -15.546   5.248  1.00  0.00    -0.207 N 
HETATM    5  C   UNL     1      42.340 -16.667   4.437  1.00  0.00     0.153 A 
ENDROOT
BRANCH   5   6
HETATM    6  C   UNL     1      41.852 -16.758   3.095  1.00  0.00     0.292 C 
HETATM    7  N   UNL     1      42.685 -16.196   2.137  1.00  0.00    -0.242 N 
HETATM    8  H   UNL     1      43.479 -15.639   2.437  1.00  0.00     0.192 HD
HETATM    9  O   UNL     1      40.701 -17.136   2.890  1.00  0.00    -0.264 OA
BRANCH   7  10
HETATM   10  N   UNL     1      42.240 -15.865   0.879  1.00  0.00    -0.184 NA
HETATM   11  C   UNL     1      41.622 -14.727   0.780  1.00  0.00     0.150 C 
BRANCH  11  12
HETATM   12  C   UNL     1      41.126 -14.207  -0.510  1.00  0.00    -0.013 A 
HETATM   13  C   UNL     1      40.833 -12.844  -0.600  1.00  0.00     0.035 A 
HETATM   14  C   UNL     1      40.354 -12.327  -1.801  1.00  0.00     0.047 A 
HETATM   15 BR   UNL     1      39.944 -10.479  -1.901  1.00  0.00    -0.048 Br
HETATM   16  C   UNL     1      40.182 -13.162  -2.909  1.00  0.00     0.116 A 
HETATM   17  C   UNL     1      40.487 -14.530  -2.827  1.00  0.00     0.103 A 
HETATM   18  C   UNL     1      40.957 -15.050  -1.617  1.00  0.00     0.052 A 
BRANCH  16  19
HETATM   19  O   UNL     1      39.710 -12.666  -4.098  1.00  0.00    -0.357 OA
HETATM   20  H   UNL     1      40.429 -12.170  -4.528  1.00  0.00     0.218 HD
ENDBRANCH  16  19
BRANCH  17  21
HETATM   21  O   UNL     1      40.291 -15.257  -3.972  1.00  0.00    -0.353 OA
HETATM   22  C   UNL     1      39.175 -16.133  -4.022  1.00  0.00     0.210 C 
ENDBRANCH  17  21
ENDBRANCH  11  12
ENDBRANCH   7  10
ENDBRANCH   5   6
BRANCH   1  23
HETATM   23  C   UNL     1      43.140 -19.106   4.725  1.00  0.00     0.297 C 
BRANCH  23  24
HETATM   24  N   UNL     1      44.318 -19.450   3.824  1.00  0.00    -0.066 N 
HETATM   25  H   UNL     1      44.945 -18.638   3.876  1.00  0.00     0.280 HD
BRANCH  24  26
HETATM   26  C   UNL     1      43.983 -19.612   2.352  1.00  0.00     0.231 C 
HETATM   27  C   UNL     1      43.797 -21.068   1.966  1.00  0.00     0.034 C 
ENDBRANCH  24  26
BRANCH  24  28
HETATM   28  C   UNL     1      45.126 -20.638   4.321  1.00  0.00     0.231 C 
HETATM   29  C   UNL     1      44.561 -21.180   5.622  1.00  0.00     0.034 C 
ENDBRANCH  24  28
ENDBRANCH  23  24
ENDBRANCH   1  23
BRANCH   4  30
HETATM   30  C   UNL     1      42.052 -14.214   4.987  1.00  0.00     0.225 A 
HETATM   31  N   UNL     1      42.712 -13.492   4.080  1.00  0.00    -0.081 NA
HETATM   32  O   UNL     1      42.055 -12.260   4.092  1.00  0.00    -0.103 OA
HETATM   33  N   UNL     1      41.014 -12.255   5.012  1.00  0.00    -0.083 NA
HETATM   34  C   UNL     1      41.014 -13.466   5.567  1.00  0.00     0.201 A 
BRANCH  34  35
HETATM   35  N   UNL     1      40.154 -13.862   6.520  1.00  0.00    -0.379 N 
HETATM   36  H   UNL     1      39.258 -14.261   6.249  1.00  0.00     0.158 HD
HETATM   37  H   UNL     1      40.206 -13.554   7.487  1.00  0.00     0.158 HD
ENDBRANCH  34  35
ENDBRANCH   4  30
TORSDOF 11
ENDMDL
MODEL 8
REMARK VINA RESULT:      -7.0      6.229     10.002
REMARK  11 active torsions:
REMARK  status: ('A' for Active; 'I' for Inactive)
REMARK    1  A    between atoms: C_2  and  N_3 
REMARK    2  A    between atoms: N_3  and  C_5 
REMARK    3  A    between atoms: N_3  and  C_32 
REMARK    4  A    between atoms: C_5  and  C_6 
REMARK    5  A    between atoms: N_9  and  C_10 
REMARK    6  A    between atoms: C_14  and  N_15 
REMARK    7  A    between atoms: C_16  and  C_17 
REMARK       I    between atoms: C_17  and  N_18 
REMARK    8  A    between atoms: N_18  and  N_19 
REMARK    9  A    between atoms: C_20  and  C_21 
REMARK   10  A    between atoms: C_25  and  O_26 
REMARK   11  A    between atoms: C_27  and  O_28 
ROOT
HETATM    1  C   UNL     1      41.612 -10.805  10.707  1.00  0.00     0.112 A 
HETATM    2  N   UNL     1      42.371 -11.115  11.792  1.00  0.00    -0.160 NA
HETATM    3  N   UNL     1      43.606 -11.340  11.382  1.00  0.00     0.012 NA
HETATM    4  N   UNL     1      43.673 -11.184  10.025  1.00  0.00    -0.207 N 
HETATM    5  C   UNL     1      42.415 -10.803   9.581  1.00  0.00     0.153 A 
ENDROOT
BRANCH   5   6
HETATM    6  C   UNL     1      41.972 -10.581   8.238  1.00  0.00     0.292 C 
HETATM    7  N   UNL     1      41.439 -11.701   7.613  1.00  0.00    -0.242 N 
HETATM    8  H   UNL     1      41.531 -12.608   8.059  1.00  0.00     0.192 HD
HETATM    9  O   UNL     1      42.243  -9.525   7.674  1.00  0.00    -0.264 OA
BRANCH   7  10
HETATM   10  N   UNL     1      41.301 -11.785   6.248  1.00  0.00    -0.184 NA
HETATM   11  C   UNL     1      40.985 -12.955   5.783  1.00  0.00     0.150 C 
BRANCH  11  12
HETATM   12  C   UNL     1      40.754 -13.199   4.345  1.00  0.00    -0.013 A 
HETATM   13  C   UNL     1      41.121 -12.197   3.442  1.00  0.00     0.035 A 
HETATM   14  C   UNL     1      40.906 -12.396   2.081  1.00  0.00     0.047 A 
HETATM   15 BR   UNL     1      41.392 -11.020   0.870  1.00  0.00    -0.048 Br
HETATM   16  C   UNL     1      40.341 -13.589   1.622  1.00  0.00     0.116 A 
HETATM   17  C   UNL     1      39.982 -14.603   2.525  1.00  0.00     0.103 A 
HETATM   18  C   UNL     1      40.188 -14.399   3.893  1.00  0.00     0.052 A 
BRANCH  16  19
HETATM   19  O   UNL     1      40.123 -13.796   0.283  1.00  0.00    -0.357 OA
HETATM   20  H   UNL     1      39.698 -14.665   0.174  1.00  0.00     0.218 HD
ENDBRANCH  16  19
BRANCH  17  21
HETATM   21  O   UNL     1      39.445 -15.735   1.971  1.00  0.00    -0.353 OA
HETATM   22  C   UNL     1      40.245 -16.908   1.945  1.00  0.00     0.210 C 
ENDBRANCH  17  21
ENDBRANCH  11  12
ENDBRANCH   7  10
ENDBRANCH   5   6
BRANCH   1  23
HETATM   23  C   UNL     1      40.155 -10.496  10.791  1.00  0.00     0.297 C 
BRANCH  23  24
HETATM   24  N   UNL     1      39.722  -9.093  11.196  1.00  0.00    -0.066 N 
HETATM   25  H   UNL     1      40.575  -8.524  11.154  1.00  0.00     0.280 HD
BRANCH  24  26
HETATM   26  C   UNL     1      39.211  -8.957  12.620  1.00  0.00     0.231 C 
HETATM   27  C   UNL     1      38.280  -7.769  12.780  1.00  0.00     0.034 C 
ENDBRANCH  24  26
BRANCH  24  28
HETATM   28  C   UNL     1      38.745  -8.462  10.217  1.00  0.00     0.231 C 
HETATM   29  C   UNL     1      38.700  -9.234   8.910  1.00  0.00     0.034 C 
ENDBRANCH  24  28
ENDBRANCH  23  24
ENDBRANCH   1  23
BRANCH   4  30
HETATM   30  C   UNL     1      44.852 -11.416   9.286  1.00  0.00     0.225 A 
HETATM   31  N   UNL     1      45.844 -10.525   9.311  1.00  0.00    -0.081 NA
HETATM   32  O   UNL     1      46.820 -11.090   8.487  1.00  0.00    -0.103 OA
HETATM   33  N   UNL     1      46.399 -12.310   7.972  1.00  0.00    -0.083 NA
HETATM   34  C   UNL     1      45.179 -12.510   8.466  1.00  0.00     0.201 A 
BRANCH  34  35
HETATM   35  N   UNL     1      44.421 -13.586   8.198  1.00  0.00    -0.379 N 
HETATM   36  H   UNL     1      43.526 -13.463   7.730  1.00  0.00     0.158 HD
HETATM   37  H   UNL     1      44.537 -14.485   8.660  1.00  0.00     0.158 HD
ENDBRANCH  34  35
ENDBRANCH   4  30
TORSDOF 11
ENDMDL
MODEL 9
REMARK VINA RESULT:      -7.0      3.640      8.397
REMARK  11 active torsions:
REMARK  status: ('A' for Active; 'I' for Inactive)
REMARK    1  A    between atoms: C_2  and  N_3 
REMARK    2  A    between atoms: N_3  and  C_5 
REMARK    3  A    between atoms: N_3  and  C_32 
REMARK    4  A    between atoms: C_5  and  C_6 
REMARK    5  A    between atoms: N_9  and  C_10 
REMARK    6  A    between atoms: C_14  and  N_15 
REMARK    7  A    between atoms: C_16  and  C_17 
REMARK       I    between atoms: C_17  and  N_18 
REMARK    8  A    between atoms: N_18  and  N_19 
REMARK    9  A    between atoms: C_20  and  C_21 
REMARK   10  A    between atoms: C_25  and  O_26 
REMARK   11  A    between atoms: C_27  and  O_28 
ROOT
HETATM    1  C   UNL     1      43.039 -17.732   5.374  1.00  0.00     0.112 A 
HETATM    2  N   UNL     1      43.428 -17.249   6.584  1.00  0.00    -0.160 NA
HETATM    3  N   UNL     1      43.121 -15.965   6.635  1.00  0.00     0.012 NA
HETATM    4  N   UNL     1      42.531 -15.590   5.460  1.00  0.00    -0.207 N 
HETATM    5  C   UNL     1      42.434 -16.716   4.656  1.00  0.00     0.153 A 
ENDROOT
BRANCH   5   6
HETATM    6  C   UNL     1      41.945 -16.816   3.314  1.00  0.00     0.292 C 
HETATM    7  N   UNL     1      42.757 -16.221   2.357  1.00  0.00    -0.242 N 
HETATM    8  H   UNL     1      43.533 -15.639   2.659  1.00  0.00     0.192 HD
HETATM    9  O   UNL     1      40.808 -17.231   3.110  1.00  0.00    -0.264 OA
BRANCH   7  10
HETATM   10  N   UNL     1      42.299 -15.899   1.102  1.00  0.00    -0.184 NA
HETATM   11  C   UNL     1      41.935 -14.664   0.935  1.00  0.00     0.150 C 
BRANCH  11  12
HETATM   12  C   UNL     1      41.465 -14.148  -0.367  1.00  0.00    -0.013 A 
HETATM   13  C   UNL     1      40.832 -15.040  -1.237  1.00  0.00     0.035 A 
HETATM   14  C   UNL     1      40.388 -14.584  -2.476  1.00  0.00     0.047 A 
HETATM   15 BR   UNL     1      39.547 -15.810  -3.652  1.00  0.00    -0.048 Br
HETATM   16  C   UNL     1      40.561 -13.245  -2.838  1.00  0.00     0.116 A 
HETATM   17  C   UNL     1      41.185 -12.343  -1.962  1.00  0.00     0.103 A 
HETATM   18  C   UNL     1      41.642 -12.804  -0.724  1.00  0.00     0.052 A 
BRANCH  16  19
HETATM   19  O   UNL     1      40.128 -12.783  -4.056  1.00  0.00    -0.357 OA
HETATM   20  H   UNL     1      39.997 -11.821  -3.988  1.00  0.00     0.218 HD
ENDBRANCH  16  19
BRANCH  17  21
HETATM   21  O   UNL     1      41.297 -11.053  -2.410  1.00  0.00    -0.353 OA
HETATM   22  C   UNL     1      42.576 -10.603  -2.833  1.00  0.00     0.210 C 
ENDBRANCH  17  21
ENDBRANCH  11  12
ENDBRANCH   7  10
ENDBRANCH   5   6
BRANCH   1  23
HETATM   23  C   UNL     1      43.235 -19.152   4.960  1.00  0.00     0.297 C 
BRANCH  23  24
HETATM   24  N   UNL     1      44.381 -19.493   4.017  1.00  0.00    -0.066 N 
HETATM   25  H   UNL     1      45.059 -18.729   4.128  1.00  0.00     0.280 HD
BRANCH  24  26
HETATM   26  C   UNL     1      44.024 -19.509   2.541  1.00  0.00     0.231 C 
HETATM   27  C   UNL     1      43.844 -20.920   2.012  1.00  0.00     0.034 C 
ENDBRANCH  24  26
BRANCH  24  28
HETATM   28  C   UNL     1      45.114 -20.767   4.401  1.00  0.00     0.231 C 
HETATM   29  C   UNL     1      44.501 -21.403   5.637  1.00  0.00     0.034 C 
ENDBRANCH  24  28
ENDBRANCH  23  24
ENDBRANCH   1  23
BRANCH   4  30
HETATM   30  C   UNL     1      42.144 -14.260   5.190  1.00  0.00     0.225 A 
HETATM   31  N   UNL     1      42.903 -13.487   4.412  1.00  0.00    -0.081 NA
HETATM   32  O   UNL     1      42.213 -12.274   4.370  1.00  0.00    -0.103 OA
HETATM   33  N   UNL     1      41.050 -12.331   5.129  1.00  0.00    -0.083 NA
HETATM   34  C   UNL     1      41.010 -13.562   5.638  1.00  0.00     0.201 A 
BRANCH  34  35
HETATM   35  N   UNL     1      40.035 -14.017   6.443  1.00  0.00    -0.379 N 
HETATM   36  H   UNL     1      39.333 -13.369   6.793  1.00  0.00     0.158 HD
HETATM   37  H   UNL     1      40.089 -14.897   6.948  1.00  0.00     0.158 HD
ENDBRANCH  34  35
ENDBRANCH   4  30
TORSDOF 11
ENDMDL
MODEL 10
REMARK VINA RESULT:      -7.0      3.790      8.568
REMARK  11 active torsions:
REMARK  status: ('A' for Active; 'I' for Inactive)
REMARK    1  A    between atoms: C_2  and  N_3 
REMARK    2  A    between atoms: N_3  and  C_5 
REMARK    3  A    between atoms: N_3  and  C_32 
REMARK    4  A    between atoms: C_5  and  C_6 
REMARK    5  A    between atoms: N_9  and  C_10 
REMARK    6  A    between atoms: C_14  and  N_15 
REMARK    7  A    between atoms: C_16  and  C_17 
REMARK       I    between atoms: C_17  and  N_18 
REMARK    8  A    between atoms: N_18  and  N_19 
REMARK    9  A    between atoms: C_20  and  C_21 
REMARK   10  A    between atoms: C_25  and  O_26 
REMARK   11  A    between atoms: C_27  and  O_28 
ROOT
HETATM    1  C   UNL     1      44.363 -17.833   5.545  1.00  0.00     0.112 A 
HETATM    2  N   UNL     1      44.574 -17.445   6.831  1.00  0.00    -0.160 NA
HETATM    3  N   UNL     1      43.759 -16.440   7.099  1.00  0.00     0.012 NA
HETATM    4  N   UNL     1      43.008 -16.154   5.992  1.00  0.00    -0.207 N 
HETATM    5  C   UNL     1      43.352 -17.061   5.001  1.00  0.00     0.153 A 
ENDROOT
BRANCH   5   6
HETATM    6  C   UNL     1      42.884 -17.128   3.650  1.00  0.00     0.292 C 
HETATM    7  N   UNL     1      43.447 -16.189   2.796  1.00  0.00    -0.242 N 
HETATM    8  H   UNL     1      44.013 -15.441   3.186  1.00  0.00     0.192 HD
HETATM    9  O   UNL     1      41.926 -17.843   3.373  1.00  0.00    -0.264 OA
BRANCH   7  10
HETATM   10  N   UNL     1      42.879 -15.860   1.588  1.00  0.00    -0.184 NA
HETATM   11  C   UNL     1      42.153 -14.784   1.581  1.00  0.00     0.150 C 
BRANCH  11  12
HETATM   12  C   UNL     1      41.514 -14.270   0.352  1.00  0.00    -0.013 A 
HETATM   13  C   UNL     1      41.200 -15.185  -0.656  1.00  0.00     0.035 A 
HETATM   14  C   UNL     1      40.606 -14.727  -1.830  1.00  0.00     0.047 A 
HETATM   15 BR   UNL     1      40.202 -15.978  -3.196  1.00  0.00    -0.048 Br
HETATM   16  C   UNL     1      40.315 -13.369  -1.990  1.00  0.00     0.116 A 
HETATM   17  C   UNL     1      40.618 -12.449  -0.975  1.00  0.00     0.103 A 
HETATM   18  C   UNL     1      41.224 -12.907   0.199  1.00  0.00     0.052 A 
BRANCH  16  19
HETATM   19  O   UNL     1      39.731 -12.906  -3.142  1.00  0.00    -0.357 OA
HETATM   20  H   UNL     1      39.198 -13.626  -3.525  1.00  0.00     0.218 HD
ENDBRANCH  16  19
BRANCH  17  21
HETATM   21  O   UNL     1      40.283 -11.145  -1.229  1.00  0.00    -0.353 OA
HETATM   22  C   UNL     1      39.427 -10.485  -0.309  1.00  0.00     0.210 C 
ENDBRANCH  17  21
ENDBRANCH  11  12
ENDBRANCH   7  10
ENDBRANCH   5   6
BRANCH   1  23
HETATM   23  C   UNL     1      45.116 -18.944   4.894  1.00  0.00     0.297 C 
BRANCH  23  24
HETATM   24  N   UNL     1      44.373 -20.223   4.529  1.00  0.00    -0.066 N 
HETATM   25  H   UNL     1      43.388 -19.947   4.437  1.00  0.00     0.280 HD
BRANCH  24  26
HETATM   26  C   UNL     1      44.394 -21.310   5.590  1.00  0.00     0.231 C 
HETATM   27  C   UNL     1      45.136 -22.548   5.123  1.00  0.00     0.034 C 
ENDBRANCH  24  26
BRANCH  24  28
HETATM   28  C   UNL     1      44.781 -20.789   3.179  1.00  0.00     0.231 C 
HETATM   29  C   UNL     1      43.717 -20.522   2.128  1.00  0.00     0.034 C 
ENDBRANCH  24  28
ENDBRANCH  23  24
ENDBRANCH   1  23
BRANCH   4  30
HETATM   30  C   UNL     1      42.085 -15.088   5.950  1.00  0.00     0.225 A 
HETATM   31  N   UNL     1      42.519 -13.833   5.823  1.00  0.00    -0.081 NA
HETATM   32  O   UNL     1      41.347 -13.074   5.812  1.00  0.00    -0.103 OA
HETATM   33  N   UNL     1      40.224 -13.882   5.939  1.00  0.00    -0.083 NA
HETATM   34  C   UNL     1      40.683 -15.129   6.027  1.00  0.00     0.201 A 
BRANCH  34  35
HETATM   35  N   UNL     1      39.904 -16.215   6.168  1.00  0.00    -0.379 N 
HETATM   36  H   UNL     1      39.159 -16.208   6.861  1.00  0.00     0.158 HD
HETATM   37  H   UNL     1      40.161 -17.139   5.831  1.00  0.00     0.158 HD
ENDBRANCH  34  35
ENDBRANCH   4  30
TORSDOF 11
ENDMDL
