MODEL 1
REMARK VINA RESULT:      -8.1      0.000      0.000
REMARK  8 active torsions:
REMARK  status: ('A' for Active; 'I' for Inactive)
REMARK    1  A    between atoms: N_2  and  C_4 
REMARK    2  A    between atoms: C_4  and  C_5 
REMARK    3  A    between atoms: C_5  and  N_6 
REMARK       I    between atoms: N_6  and  C_7 
REMARK    4  A    between atoms: N_6  and  C_23 
REMARK       I    between atoms: C_7  and  N_8 
REMARK    5  A    between atoms: N_8  and  C_9 
REMARK    6  A    between atoms: C_11  and  O_12 
REMARK    7  A    between atoms: O_12  and  C_13 
REMARK    8  A    between atoms: C_23  and  C_24 
ROOT
HETATM    1  N   UNL     1      42.296 -14.842   5.368  1.00  0.00    -0.328 N 
HETATM    2  C   UNL     1      42.802 -13.650   5.899  1.00  0.00     0.323 C 
HETATM    3  N   UNL     1      43.493 -13.811   7.075  1.00  0.00    -0.309 N 
HETATM    4  O   UNL     1      42.646 -12.595   5.290  1.00  0.00    -0.247 OA
HETATM    5  H   UNL     1      43.659 -14.761   7.367  1.00  0.00     0.170 HD
ENDROOT
BRANCH   1   6
HETATM    6  C   UNL     1      41.839 -14.826   3.982  1.00  0.00     0.155 C 
BRANCH   6   7
HETATM    7  C   UNL     1      40.316 -14.666   3.852  1.00  0.00     0.254 C 
BRANCH   7   8
HETATM    8  N   UNL     1      39.732 -15.697   2.893  1.00  0.00    -0.077 N 
HETATM    9  C   UNL     1      40.789 -16.562   2.255  1.00  0.00     0.269 C 
HETATM   10  H   UNL     1      39.116 -16.321   3.432  1.00  0.00     0.279 HD
HETATM   11  C   UNL     1      38.859 -15.052   1.850  1.00  0.00     0.269 C 
ENDBRANCH   7   8
ENDBRANCH   6   7
ENDBRANCH   1   6
BRANCH   1  12
HETATM   12  C   UNL     1      42.104 -16.081   6.131  1.00  0.00     0.166 C 
BRANCH  12  13
HETATM   13  C   UNL     1      43.145 -17.146   5.875  1.00  0.00    -0.040 A 
HETATM   14  C   UNL     1      44.386 -17.167   6.531  1.00  0.00     0.009 A 
HETATM   15  C   UNL     1      45.291 -18.207   6.307  1.00  0.00     0.001 A 
HETATM   16  C   UNL     1      44.976 -19.226   5.413  1.00  0.00     0.000 A 
HETATM   17  C   UNL     1      43.761 -19.205   4.735  1.00  0.00     0.001 A 
HETATM   18  C   UNL     1      42.852 -18.170   4.961  1.00  0.00     0.009 A 
ENDBRANCH  12  13
ENDBRANCH   1  12
BRANCH   3  19
HETATM   19  C   UNL     1      44.249 -12.866   7.797  1.00  0.00     0.042 A 
HETATM   20  C   UNL     1      43.520 -11.889   8.477  1.00  0.00     0.087 A 
HETATM   21  C   UNL     1      44.198 -10.945   9.231  1.00  0.00     0.171 A 
HETATM   22  N   UNL     1      45.540 -10.912   9.340  1.00  0.00    -0.237 NA
HETATM   23  C   UNL     1      46.224 -11.867   8.669  1.00  0.00     0.122 A 
HETATM   24  C   UNL     1      45.632 -12.857   7.894  1.00  0.00     0.049 A 
BRANCH  21  25
HETATM   25  O   UNL     1      43.377 -10.031   9.885  1.00  0.00    -0.292 OA
BRANCH  25  26
HETATM   26  C   UNL     1      42.962 -10.310  11.160  1.00  0.00     0.077 A 
HETATM   27  C   UNL     1      41.786 -11.010  11.424  1.00  0.00     0.037 A 
HETATM   28  C   UNL     1      41.349 -11.154  12.742  1.00  0.00     0.003 A 
HETATM   29  C   UNL     1      42.075 -10.581  13.788  1.00  0.00     0.000 A 
HETATM   30  C   UNL     1      43.240  -9.862  13.519  1.00  0.00     0.003 A 
HETATM   31  C   UNL     1      43.679  -9.719  12.203  1.00  0.00     0.037 A 
ENDBRANCH  25  26
ENDBRANCH  21  25
ENDBRANCH   3  19
TORSDOF 8
ENDMDL
MODEL 2
REMARK VINA RESULT:      -8.0      4.413      9.486
REMARK  8 active torsions:
REMARK  status: ('A' for Active; 'I' for Inactive)
REMARK    1  A    between atoms: N_2  and  C_4 
REMARK    2  A    between atoms: C_4  and  C_5 
REMARK    3  A    between atoms: C_5  and  N_6 
REMARK       I    between atoms: N_6  and  C_7 
REMARK    4  A    between atoms: N_6  and  C_23 
REMARK       I    between atoms: C_7  and  N_8 
REMARK    5  A    between atoms: N_8  and  C_9 
REMARK    6  A    between atoms: C_11  and  O_12 
REMARK    7  A    between atoms: O_12  and  C_13 
REMARK    8  A    between atoms: C_23  and  C_24 
ROOT
HETATM    1  N   UNL     1      42.259 -16.113   3.706  1.00  0.00    -0.328 N 
HETATM    2  C   UNL     1      42.122 -15.215   2.641  1.00  0.00     0.323 C 
HETATM    3  N   UNL     1      41.133 -15.552   1.749  1.00  0.00    -0.309 N 
HETATM    4  O   UNL     1      42.824 -14.209   2.596  1.00  0.00    -0.247 OA
HETATM    5  H   UNL     1      40.547 -16.330   2.008  1.00  0.00     0.170 HD
ENDROOT
BRANCH   1   6
HETATM    6  C   UNL     1      43.042 -15.681   4.859  1.00  0.00     0.155 C 
BRANCH   6   7
HETATM    7  C   UNL     1      42.263 -15.765   6.182  1.00  0.00     0.254 C 
BRANCH   7   8
HETATM    8  N   UNL     1      43.204 -15.709   7.380  1.00  0.00    -0.077 N 
HETATM    9  C   UNL     1      44.531 -15.077   7.050  1.00  0.00     0.269 C 
HETATM   10  H   UNL     1      42.763 -15.126   8.104  1.00  0.00     0.279 HD
HETATM   11  C   UNL     1      43.393 -17.068   8.001  1.00  0.00     0.269 C 
ENDBRANCH   7   8
ENDBRANCH   6   7
ENDBRANCH   1   6
BRANCH   1  12
HETATM   12  C   UNL     1      41.754 -17.491   3.707  1.00  0.00     0.166 C 
BRANCH  12  13
HETATM   13  C   UNL     1      42.797 -18.544   3.415  1.00  0.00    -0.040 A 
HETATM   14  C   UNL     1      43.694 -19.014   4.388  1.00  0.00     0.009 A 
HETATM   15  C   UNL     1      44.599 -20.033   4.086  1.00  0.00     0.001 A 
HETATM   16  C   UNL     1      44.633 -20.583   2.808  1.00  0.00     0.000 A 
HETATM   17  C   UNL     1      43.768 -20.109   1.826  1.00  0.00     0.001 A 
HETATM   18  C   UNL     1      42.858 -19.094   2.125  1.00  0.00     0.009 A 
ENDBRANCH  12  13
ENDBRANCH   1  12
BRANCH   3  19
HETATM   19  C   UNL     1      40.629 -14.814   0.660  1.00  0.00     0.042 A 
HETATM   20  C   UNL     1      41.543 -14.512  -0.351  1.00  0.00     0.087 A 
HETATM   21  C   UNL     1      41.108 -13.812  -1.465  1.00  0.00     0.171 A 
HETATM   22  N   UNL     1      39.838 -13.394  -1.625  1.00  0.00    -0.237 NA
HETATM   23  C   UNL     1      38.973 -13.696  -0.631  1.00  0.00     0.122 A 
HETATM   24  C   UNL     1      39.314 -14.397   0.520  1.00  0.00     0.049 A 
BRANCH  21  25
HETATM   25  O   UNL     1      42.092 -13.583  -2.422  1.00  0.00    -0.292 OA
BRANCH  25  26
HETATM   26  C   UNL     1      42.430 -12.291  -2.726  1.00  0.00     0.077 A 
HETATM   27  C   UNL     1      42.896 -11.397  -1.764  1.00  0.00     0.037 A 
HETATM   28  C   UNL     1      43.103 -10.060  -2.106  1.00  0.00     0.003 A 
HETATM   29  C   UNL     1      42.824  -9.616  -3.399  1.00  0.00     0.000 A 
HETATM   30  C   UNL     1      42.336 -10.508  -4.355  1.00  0.00     0.003 A 
HETATM   31  C   UNL     1      42.131 -11.845  -4.015  1.00  0.00     0.037 A 
ENDBRANCH  25  26
ENDBRANCH  21  25
ENDBRANCH   3  19
TORSDOF 8
ENDMDL
MODEL 3
REMARK VINA RESULT:      -7.9      5.616      9.331
REMARK  8 active torsions:
REMARK  status: ('A' for Active; 'I' for Inactive)
REMARK    1  A    between atoms: N_2  and  C_4 
REMARK    2  A    between atoms: C_4  and  C_5 
REMARK    3  A    between atoms: C_5  and  N_6 
REMARK       I    between atoms: N_6  and  C_7 
REMARK    4  A    between atoms: N_6  and  C_23 
REMARK       I    between atoms: C_7  and  N_8 
REMARK    5  A    between atoms: N_8  and  C_9 
REMARK    6  A    between atoms: C_11  and  O_12 
REMARK    7  A    between atoms: O_12  and  C_13 
REMARK    8  A    between atoms: C_23  and  C_24 
ROOT
HETATM    1  N   UNL     1      42.616 -17.563   3.996  1.00  0.00    -0.328 N 
HETATM    2  C   UNL     1      41.730 -16.602   3.495  1.00  0.00     0.323 C 
HETATM    3  N   UNL     1      41.915 -16.311   2.166  1.00  0.00    -0.309 N 
HETATM    4  O   UNL     1      40.858 -16.137   4.223  1.00  0.00    -0.247 OA
HETATM    5  H   UNL     1      42.577 -16.888   1.671  1.00  0.00     0.170 HD
ENDROOT
BRANCH   1   6
HETATM    6  C   UNL     1      42.298 -18.171   5.285  1.00  0.00     0.155 C 
BRANCH   6   7
HETATM    7  C   UNL     1      42.833 -17.364   6.479  1.00  0.00     0.254 C 
BRANCH   7   8
HETATM    8  N   UNL     1      43.914 -18.136   7.226  1.00  0.00    -0.077 N 
HETATM    9  C   UNL     1      45.297 -17.865   6.693  1.00  0.00     0.269 C 
HETATM   10  H   UNL     1      43.903 -17.830   8.209  1.00  0.00     0.279 HD
HETATM   11  C   UNL     1      43.625 -19.614   7.249  1.00  0.00     0.269 C 
ENDBRANCH   7   8
ENDBRANCH   6   7
ENDBRANCH   1   6
BRANCH   1  12
HETATM   12  C   UNL     1      43.889 -17.935   3.367  1.00  0.00     0.166 C 
BRANCH  12  13
HETATM   13  C   UNL     1      44.052 -19.413   3.101  1.00  0.00    -0.040 A 
HETATM   14  C   UNL     1      44.758 -20.266   3.964  1.00  0.00     0.009 A 
HETATM   15  C   UNL     1      44.829 -21.636   3.707  1.00  0.00     0.001 A 
HETATM   16  C   UNL     1      44.212 -22.169   2.580  1.00  0.00     0.000 A 
HETATM   17  C   UNL     1      43.530 -21.333   1.700  1.00  0.00     0.001 A 
HETATM   18  C   UNL     1      43.453 -19.962   1.956  1.00  0.00     0.009 A 
ENDBRANCH  12  13
ENDBRANCH   1  12
BRANCH   3  19
HETATM   19  C   UNL     1      41.125 -15.515   1.312  1.00  0.00     0.042 A 
HETATM   20  C   UNL     1      41.704 -15.164   0.092  1.00  0.00     0.087 A 
HETATM   21  C   UNL     1      40.973 -14.406  -0.808  1.00  0.00     0.171 A 
HETATM   22  N   UNL     1      39.720 -13.976  -0.565  1.00  0.00    -0.237 NA
HETATM   23  C   UNL     1      39.182 -14.326   0.626  1.00  0.00     0.122 A 
HETATM   24  C   UNL     1      39.835 -15.088   1.588  1.00  0.00     0.049 A 
BRANCH  21  25
HETATM   25  O   UNL     1      41.634 -14.130  -2.002  1.00  0.00    -0.292 OA
BRANCH  25  26
HETATM   26  C   UNL     1      41.950 -12.831  -2.296  1.00  0.00     0.077 A 
HETATM   27  C   UNL     1      41.834 -12.310  -3.584  1.00  0.00     0.037 A 
HETATM   28  C   UNL     1      42.290 -11.018  -3.851  1.00  0.00     0.003 A 
HETATM   29  C   UNL     1      42.880 -10.261  -2.838  1.00  0.00     0.000 A 
HETATM   30  C   UNL     1      43.015 -10.792  -1.555  1.00  0.00     0.003 A 
HETATM   31  C   UNL     1      42.558 -12.082  -1.287  1.00  0.00     0.037 A 
ENDBRANCH  25  26
ENDBRANCH  21  25
ENDBRANCH   3  19
TORSDOF 8
ENDMDL
MODEL 4
REMARK VINA RESULT:      -7.7      5.102      9.664
REMARK  8 active torsions:
REMARK  status: ('A' for Active; 'I' for Inactive)
REMARK    1  A    between atoms: N_2  and  C_4 
REMARK    2  A    between atoms: C_4  and  C_5 
REMARK    3  A    between atoms: C_5  and  N_6 
REMARK       I    between atoms: N_6  and  C_7 
REMARK    4  A    between atoms: N_6  and  C_23 
REMARK       I    between atoms: C_7  and  N_8 
REMARK    5  A    between atoms: N_8  and  C_9 
REMARK    6  A    between atoms: C_11  and  O_12 
REMARK    7  A    between atoms: O_12  and  C_13 
REMARK    8  A    between atoms: C_23  and  C_24 
ROOT
HETATM    1  N   UNL     1      42.522 -17.336   4.024  1.00  0.00    -0.328 N 
HETATM    2  C   UNL     1      41.886 -16.209   3.492  1.00  0.00     0.323 C 
HETATM    3  N   UNL     1      42.463 -15.733   2.340  1.00  0.00    -0.309 N 
HETATM    4  O   UNL     1      40.876 -15.765   4.031  1.00  0.00    -0.247 OA
HETATM    5  H   UNL     1      43.198 -16.298   1.944  1.00  0.00     0.170 HD
ENDROOT
BRANCH   1   6
HETATM    6  C   UNL     1      41.807 -18.100   5.042  1.00  0.00     0.155 C 
BRANCH   6   7
HETATM    7  C   UNL     1      41.916 -17.483   6.446  1.00  0.00     0.254 C 
BRANCH   7   8
HETATM    8  N   UNL     1      43.270 -17.786   7.077  1.00  0.00    -0.077 N 
HETATM    9  C   UNL     1      43.534 -19.264   7.209  1.00  0.00     0.269 C 
HETATM   10  H   UNL     1      44.001 -17.402   6.463  1.00  0.00     0.279 HD
HETATM   11  C   UNL     1      43.432 -17.088   8.402  1.00  0.00     0.269 C 
ENDBRANCH   7   8
ENDBRANCH   6   7
ENDBRANCH   1   6
BRANCH   1  12
HETATM   12  C   UNL     1      43.893 -17.752   3.703  1.00  0.00     0.166 C 
BRANCH  12  13
HETATM   13  C   UNL     1      44.030 -19.195   3.278  1.00  0.00    -0.040 A 
HETATM   14  C   UNL     1      44.724 -20.148   4.041  1.00  0.00     0.009 A 
HETATM   15  C   UNL     1      44.771 -21.483   3.638  1.00  0.00     0.001 A 
HETATM   16  C   UNL     1      44.143 -21.881   2.461  1.00  0.00     0.000 A 
HETATM   17  C   UNL     1      43.473 -20.943   1.681  1.00  0.00     0.001 A 
HETATM   18  C   UNL     1      43.420 -19.607   2.083  1.00  0.00     0.009 A 
ENDBRANCH  12  13
ENDBRANCH   1  12
BRANCH   3  19
HETATM   19  C   UNL     1      42.008 -14.722   1.470  1.00  0.00     0.042 A 
HETATM   20  C   UNL     1      41.897 -15.077   0.124  1.00  0.00     0.087 A 
HETATM   21  C   UNL     1      41.428 -14.140  -0.782  1.00  0.00     0.171 A 
HETATM   22  N   UNL     1      41.077 -12.887  -0.435  1.00  0.00    -0.237 NA
HETATM   23  C   UNL     1      41.197 -12.567   0.873  1.00  0.00     0.122 A 
HETATM   24  C   UNL     1      41.651 -13.439   1.856  1.00  0.00     0.049 A 
BRANCH  21  25
HETATM   25  O   UNL     1      41.335 -14.601  -2.092  1.00  0.00    -0.292 OA
BRANCH  25  26
HETATM   26  C   UNL     1      40.095 -14.757  -2.651  1.00  0.00     0.077 A 
HETATM   27  C   UNL     1      38.988 -14.027  -2.222  1.00  0.00     0.037 A 
HETATM   28  C   UNL     1      37.725 -14.317  -2.741  1.00  0.00     0.003 A 
HETATM   29  C   UNL     1      37.569 -15.349  -3.668  1.00  0.00     0.000 A 
HETATM   30  C   UNL     1      38.675 -16.093  -4.080  1.00  0.00     0.003 A 
HETATM   31  C   UNL     1      39.938 -15.802  -3.564  1.00  0.00     0.037 A 
ENDBRANCH  25  26
ENDBRANCH  21  25
ENDBRANCH   3  19
TORSDOF 8
ENDMDL
MODEL 5
REMARK VINA RESULT:      -7.7      4.850      8.939
REMARK  8 active torsions:
REMARK  status: ('A' for Active; 'I' for Inactive)
REMARK    1  A    between atoms: N_2  and  C_4 
REMARK    2  A    between atoms: C_4  and  C_5 
REMARK    3  A    between atoms: C_5  and  N_6 
REMARK       I    between atoms: N_6  and  C_7 
REMARK    4  A    between atoms: N_6  and  C_23 
REMARK       I    between atoms: C_7  and  N_8 
REMARK    5  A    between atoms: N_8  and  C_9 
REMARK    6  A    between atoms: C_11  and  O_12 
REMARK    7  A    between atoms: O_12  and  C_13 
REMARK    8  A    between atoms: C_23  and  C_24 
ROOT
HETATM    1  N   UNL     1      42.131 -16.971   3.353  1.00  0.00    -0.328 N 
HETATM    2  C   UNL     1      41.406 -16.194   2.442  1.00  0.00     0.323 C 
HETATM    3  N   UNL     1      42.004 -16.070   1.212  1.00  0.00    -0.309 N 
HETATM    4  O   UNL     1      40.315 -15.733   2.765  1.00  0.00    -0.247 OA
HETATM    5  H   UNL     1      42.826 -16.632   1.058  1.00  0.00     0.170 HD
ENDROOT
BRANCH   1   6
HETATM    6  C   UNL     1      41.440 -17.427   4.555  1.00  0.00     0.155 C 
BRANCH   6   7
HETATM    7  C   UNL     1      42.230 -17.151   5.845  1.00  0.00     0.254 C 
BRANCH   7   8
HETATM    8  N   UNL     1      41.894 -15.778   6.415  1.00  0.00    -0.077 N 
HETATM    9  C   UNL     1      40.493 -15.336   6.081  1.00  0.00     0.269 C 
HETATM   10  H   UNL     1      41.957 -15.835   7.441  1.00  0.00     0.279 HD
HETATM   11  C   UNL     1      42.902 -14.741   5.993  1.00  0.00     0.269 C 
ENDBRANCH   7   8
ENDBRANCH   6   7
ENDBRANCH   1   6
BRANCH   1  12
HETATM   12  C   UNL     1      43.560 -17.281   3.233  1.00  0.00     0.166 C 
BRANCH  12  13
HETATM   13  C   UNL     1      43.876 -18.752   3.092  1.00  0.00    -0.040 A 
HETATM   14  C   UNL     1      44.551 -19.482   4.083  1.00  0.00     0.009 A 
HETATM   15  C   UNL     1      44.765 -20.853   3.933  1.00  0.00     0.001 A 
HETATM   16  C   UNL     1      44.325 -21.508   2.787  1.00  0.00     0.000 A 
HETATM   17  C   UNL     1      43.678 -20.793   1.784  1.00  0.00     0.001 A 
HETATM   18  C   UNL     1      43.457 -19.423   1.932  1.00  0.00     0.009 A 
ENDBRANCH  12  13
ENDBRANCH   1  12
BRANCH   3  19
HETATM   19  C   UNL     1      41.496 -15.494   0.031  1.00  0.00     0.042 A 
HETATM   20  C   UNL     1      41.244 -14.121   0.078  1.00  0.00     0.087 A 
HETATM   21  C   UNL     1      40.770 -13.484  -1.056  1.00  0.00     0.171 A 
HETATM   22  N   UNL     1      40.527 -14.124  -2.216  1.00  0.00    -0.237 NA
HETATM   23  C   UNL     1      40.775 -15.453  -2.236  1.00  0.00     0.122 A 
HETATM   24  C   UNL     1      41.257 -16.177  -1.152  1.00  0.00     0.049 A 
BRANCH  21  25
HETATM   25  O   UNL     1      40.573 -12.114  -0.909  1.00  0.00    -0.292 OA
BRANCH  25  26
HETATM   26  C   UNL     1      41.615 -11.264  -1.171  1.00  0.00     0.077 A 
HETATM   27  C   UNL     1      42.388 -10.700  -0.157  1.00  0.00     0.037 A 
HETATM   28  C   UNL     1      43.354  -9.744  -0.475  1.00  0.00     0.003 A 
HETATM   29  C   UNL     1      43.530  -9.340  -1.800  1.00  0.00     0.000 A 
HETATM   30  C   UNL     1      42.740  -9.890  -2.810  1.00  0.00     0.003 A 
HETATM   31  C   UNL     1      41.776 -10.847  -2.493  1.00  0.00     0.037 A 
ENDBRANCH  25  26
ENDBRANCH  21  25
ENDBRANCH   3  19
TORSDOF 8
ENDMDL
MODEL 6
REMARK VINA RESULT:      -7.7      4.133      9.731
REMARK  8 active torsions:
REMARK  status: ('A' for Active; 'I' for Inactive)
REMARK    1  A    between atoms: N_2  and  C_4 
REMARK    2  A    between atoms: C_4  and  C_5 
REMARK    3  A    between atoms: C_5  and  N_6 
REMARK       I    between atoms: N_6  and  C_7 
REMARK    4  A    between atoms: N_6  and  C_23 
REMARK       I    between atoms: C_7  and  N_8 
REMARK    5  A    between atoms: N_8  and  C_9 
REMARK    6  A    between atoms: C_11  and  O_12 
REMARK    7  A    between atoms: O_12  and  C_13 
REMARK    8  A    between atoms: C_23  and  C_24 
ROOT
HETATM    1  N   UNL     1      42.843 -16.003   3.769  1.00  0.00    -0.328 N 
HETATM    2  C   UNL     1      43.016 -14.933   2.883  1.00  0.00     0.323 C 
HETATM    3  N   UNL     1      42.063 -14.863   1.897  1.00  0.00    -0.309 N 
HETATM    4  O   UNL     1      43.934 -14.137   3.060  1.00  0.00    -0.247 OA
HETATM    5  H   UNL     1      41.291 -15.506   1.978  1.00  0.00     0.170 HD
ENDROOT
BRANCH   1   6
HETATM    6  C   UNL     1      43.595 -15.976   5.019  1.00  0.00     0.155 C 
BRANCH   6   7
HETATM    7  C   UNL     1      42.748 -15.531   6.222  1.00  0.00     0.254 C 
BRANCH   7   8
HETATM    8  N   UNL     1      43.190 -14.164   6.733  1.00  0.00    -0.077 N 
HETATM    9  C   UNL     1      42.544 -13.027   5.986  1.00  0.00     0.269 C 
HETATM   10  H   UNL     1      42.901 -14.083   7.717  1.00  0.00     0.279 HD
HETATM   11  C   UNL     1      44.690 -14.031   6.729  1.00  0.00     0.269 C 
ENDBRANCH   7   8
ENDBRANCH   6   7
ENDBRANCH   1   6
BRANCH   1  12
HETATM   12  C   UNL     1      42.033 -17.195   3.490  1.00  0.00     0.166 C 
BRANCH  12  13
HETATM   13  C   UNL     1      42.832 -18.449   3.216  1.00  0.00    -0.040 A 
HETATM   14  C   UNL     1      42.833 -19.091   1.968  1.00  0.00     0.009 A 
HETATM   15  C   UNL     1      43.635 -20.211   1.746  1.00  0.00     0.001 A 
HETATM   16  C   UNL     1      44.431 -20.715   2.770  1.00  0.00     0.000 A 
HETATM   17  C   UNL     1      44.420 -20.106   4.021  1.00  0.00     0.001 A 
HETATM   18  C   UNL     1      43.623 -18.982   4.245  1.00  0.00     0.009 A 
ENDBRANCH  12  13
ENDBRANCH   1  12
BRANCH   3  19
HETATM   19  C   UNL     1      41.847 -13.852   0.940  1.00  0.00     0.042 A 
HETATM   20  C   UNL     1      41.804 -14.267  -0.392  1.00  0.00     0.087 A 
HETATM   21  C   UNL     1      41.566 -13.329  -1.383  1.00  0.00     0.171 A 
HETATM   22  N   UNL     1      41.381 -12.019  -1.131  1.00  0.00    -0.237 NA
HETATM   23  C   UNL     1      41.431 -11.641   0.167  1.00  0.00     0.122 A 
HETATM   24  C   UNL     1      41.657 -12.509   1.229  1.00  0.00     0.049 A 
BRANCH  21  25
HETATM   25  O   UNL     1      41.521 -13.851  -2.673  1.00  0.00    -0.292 OA
BRANCH  25  26
HETATM   26  C   UNL     1      40.333 -14.339  -3.147  1.00  0.00     0.077 A 
HETATM   27  C   UNL     1      39.157 -13.589  -3.122  1.00  0.00     0.037 A 
HETATM   28  C   UNL     1      37.952 -14.182  -3.501  1.00  0.00     0.003 A 
HETATM   29  C   UNL     1      37.921 -15.525  -3.881  1.00  0.00     0.000 A 
HETATM   30  C   UNL     1      39.094 -16.278  -3.884  1.00  0.00     0.003 A 
HETATM   31  C   UNL     1      40.300 -15.687  -3.508  1.00  0.00     0.037 A 
ENDBRANCH  25  26
ENDBRANCH  21  25
ENDBRANCH   3  19
TORSDOF 8
ENDMDL
MODEL 7
REMARK VINA RESULT:      -7.5      2.869      8.840
REMARK  8 active torsions:
REMARK  status: ('A' for Active; 'I' for Inactive)
REMARK    1  A    between atoms: N_2  and  C_4 
REMARK    2  A    between atoms: C_4  and  C_5 
REMARK    3  A    between atoms: C_5  and  N_6 
REMARK       I    between atoms: N_6  and  C_7 
REMARK    4  A    between atoms: N_6  and  C_23 
REMARK       I    between atoms: C_7  and  N_8 
REMARK    5  A    between atoms: N_8  and  C_9 
REMARK    6  A    between atoms: C_11  and  O_12 
REMARK    7  A    between atoms: O_12  and  C_13 
REMARK    8  A    between atoms: C_23  and  C_24 
ROOT
HETATM    1  N   UNL     1      40.659 -10.974   8.097  1.00  0.00    -0.328 N 
HETATM    2  C   UNL     1      40.327 -11.589   6.885  1.00  0.00     0.323 C 
HETATM    3  N   UNL     1      41.366 -11.655   5.988  1.00  0.00    -0.309 N 
HETATM    4  O   UNL     1      39.202 -12.050   6.721  1.00  0.00    -0.247 OA
HETATM    5  H   UNL     1      42.269 -11.364   6.330  1.00  0.00     0.170 HD
ENDROOT
BRANCH   1   6
HETATM    6  C   UNL     1      39.739 -11.143   9.217  1.00  0.00     0.155 C 
BRANCH   6   7
HETATM    7  C   UNL     1      39.263  -9.809   9.814  1.00  0.00     0.254 C 
BRANCH   7   8
HETATM    8  N   UNL     1      38.674 -10.006  11.205  1.00  0.00    -0.077 N 
HETATM    9  C   UNL     1      37.682  -8.934  11.575  1.00  0.00     0.269 C 
HETATM   10  H   UNL     1      38.168 -10.902  11.213  1.00  0.00     0.279 HD
HETATM   11  C   UNL     1      39.751 -10.129  12.251  1.00  0.00     0.269 C 
ENDBRANCH   7   8
ENDBRANCH   6   7
ENDBRANCH   1   6
BRANCH   1  12
HETATM   12  C   UNL     1      41.816 -10.092   8.297  1.00  0.00     0.166 C 
BRANCH  12  13
HETATM   13  C   UNL     1      42.903 -10.669   9.174  1.00  0.00    -0.040 A 
HETATM   14  C   UNL     1      43.774 -11.680   8.736  1.00  0.00     0.009 A 
HETATM   15  C   UNL     1      44.803 -12.137   9.562  1.00  0.00     0.001 A 
HETATM   16  C   UNL     1      44.963 -11.606  10.838  1.00  0.00     0.000 A 
HETATM   17  C   UNL     1      44.091 -10.623  11.296  1.00  0.00     0.001 A 
HETATM   18  C   UNL     1      43.064 -10.159  10.471  1.00  0.00     0.009 A 
ENDBRANCH  12  13
ENDBRANCH   1  12
BRANCH   3  19
HETATM   19  C   UNL     1      41.430 -12.325   4.750  1.00  0.00     0.042 A 
HETATM   20  C   UNL     1      42.473 -13.241   4.603  1.00  0.00     0.087 A 
HETATM   21  C   UNL     1      42.580 -13.955   3.421  1.00  0.00     0.171 A 
HETATM   22  N   UNL     1      41.727 -13.809   2.389  1.00  0.00    -0.237 NA
HETATM   23  C   UNL     1      40.727 -12.913   2.555  1.00  0.00     0.122 A 
HETATM   24  C   UNL     1      40.536 -12.155   3.704  1.00  0.00     0.049 A 
BRANCH  21  25
HETATM   25  O   UNL     1      43.640 -14.857   3.385  1.00  0.00    -0.292 OA
BRANCH  25  26
HETATM   26  C   UNL     1      43.393 -16.153   3.018  1.00  0.00     0.077 A 
HETATM   27  C   UNL     1      42.760 -17.059   3.867  1.00  0.00     0.037 A 
HETATM   28  C   UNL     1      42.649 -18.398   3.490  1.00  0.00     0.003 A 
HETATM   29  C   UNL     1      43.189 -18.831   2.278  1.00  0.00     0.000 A 
HETATM   30  C   UNL     1      43.842 -17.927   1.440  1.00  0.00     0.003 A 
HETATM   31  C   UNL     1      43.952 -16.588   1.815  1.00  0.00     0.037 A 
ENDBRANCH  25  26
ENDBRANCH  21  25
ENDBRANCH   3  19
TORSDOF 8
ENDMDL
MODEL 8
REMARK VINA RESULT:      -7.5      6.074      9.525
REMARK  8 active torsions:
REMARK  status: ('A' for Active; 'I' for Inactive)
REMARK    1  A    between atoms: N_2  and  C_4 
REMARK    2  A    between atoms: C_4  and  C_5 
REMARK    3  A    between atoms: C_5  and  N_6 
REMARK       I    between atoms: N_6  and  C_7 
REMARK    4  A    between atoms: N_6  and  C_23 
REMARK       I    between atoms: C_7  and  N_8 
REMARK    5  A    between atoms: N_8  and  C_9 
REMARK    6  A    between atoms: C_11  and  O_12 
REMARK    7  A    between atoms: O_12  and  C_13 
REMARK    8  A    between atoms: C_23  and  C_24 
ROOT
HETATM    1  N   UNL     1      41.299 -12.995   0.731  1.00  0.00    -0.328 N 
HETATM    2  C   UNL     1      41.855 -13.627   1.850  1.00  0.00     0.323 C 
HETATM    3  N   UNL     1      41.269 -14.830   2.162  1.00  0.00    -0.309 N 
HETATM    4  O   UNL     1      42.811 -13.118   2.427  1.00  0.00    -0.247 OA
HETATM    5  H   UNL     1      40.593 -15.180   1.501  1.00  0.00     0.170 HD
ENDROOT
BRANCH   1   6
HETATM    6  C   UNL     1      42.048 -11.895   0.133  1.00  0.00     0.155 C 
BRANCH   6   7
HETATM    7  C   UNL     1      42.710 -12.273  -1.202  1.00  0.00     0.254 C 
BRANCH   7   8
HETATM    8  N   UNL     1      42.240 -11.359  -2.328  1.00  0.00    -0.077 N 
HETATM    9  C   UNL     1      42.227 -12.047  -3.669  1.00  0.00     0.269 C 
HETATM   10  H   UNL     1      41.272 -11.075  -2.125  1.00  0.00     0.279 HD
HETATM   11  C   UNL     1      43.044 -10.087  -2.381  1.00  0.00     0.269 C 
ENDBRANCH   7   8
ENDBRANCH   6   7
ENDBRANCH   1   6
BRANCH   1  12
HETATM   12  C   UNL     1      39.975 -13.296   0.175  1.00  0.00     0.166 C 
BRANCH  12  13
HETATM   13  C   UNL     1      39.999 -14.010  -1.157  1.00  0.00    -0.040 A 
HETATM   14  C   UNL     1      40.811 -15.129  -1.403  1.00  0.00     0.009 A 
HETATM   15  C   UNL     1      40.752 -15.793  -2.630  1.00  0.00     0.001 A 
HETATM   16  C   UNL     1      39.899 -15.338  -3.631  1.00  0.00     0.000 A 
HETATM   17  C   UNL     1      39.108 -14.214  -3.411  1.00  0.00     0.001 A 
HETATM   18  C   UNL     1      39.160 -13.551  -2.184  1.00  0.00     0.009 A 
ENDBRANCH  12  13
ENDBRANCH   1  12
BRANCH   3  19
HETATM   19  C   UNL     1      41.663 -15.788   3.117  1.00  0.00     0.042 A 
HETATM   20  C   UNL     1      42.809 -16.523   2.811  1.00  0.00     0.087 A 
HETATM   21  C   UNL     1      43.269 -17.464   3.718  1.00  0.00     0.171 A 
HETATM   22  N   UNL     1      42.659 -17.718   4.891  1.00  0.00    -0.237 NA
HETATM   23  C   UNL     1      41.548 -16.996   5.163  1.00  0.00     0.122 A 
HETATM   24  C   UNL     1      41.015 -16.029   4.319  1.00  0.00     0.049 A 
BRANCH  21  25
HETATM   25  O   UNL     1      44.430 -18.124   3.326  1.00  0.00    -0.292 OA
BRANCH  25  26
HETATM   26  C   UNL     1      44.358 -19.454   3.008  1.00  0.00     0.077 A 
HETATM   27  C   UNL     1      43.615 -19.921   1.925  1.00  0.00     0.037 A 
HETATM   28  C   UNL     1      43.475 -21.295   1.724  1.00  0.00     0.003 A 
HETATM   29  C   UNL     1      44.059 -22.196   2.616  1.00  0.00     0.000 A 
HETATM   30  C   UNL     1      44.784 -21.727   3.711  1.00  0.00     0.003 A 
HETATM   31  C   UNL     1      44.926 -20.354   3.912  1.00  0.00     0.037 A 
ENDBRANCH  25  26
ENDBRANCH  21  25
ENDBRANCH   3  19
TORSDOF 8
ENDMDL
MODEL 9
REMARK VINA RESULT:      -7.4      2.473      8.159
REMARK  8 active torsions:
REMARK  status: ('A' for Active; 'I' for Inactive)
REMARK    1  A    between atoms: N_2  and  C_4 
REMARK    2  A    between atoms: C_4  and  C_5 
REMARK    3  A    between atoms: C_5  and  N_6 
REMARK       I    between atoms: N_6  and  C_7 
REMARK    4  A    between atoms: N_6  and  C_23 
REMARK       I    between atoms: C_7  and  N_8 
REMARK    5  A    between atoms: N_8  and  C_9 
REMARK    6  A    between atoms: C_11  and  O_12 
REMARK    7  A    between atoms: O_12  and  C_13 
REMARK    8  A    between atoms: C_23  and  C_24 
ROOT
HETATM    1  N   UNL     1      40.737 -10.761   8.286  1.00  0.00    -0.328 N 
HETATM    2  C   UNL     1      40.227 -11.632   7.317  1.00  0.00     0.323 C 
HETATM    3  N   UNL     1      41.183 -12.179   6.497  1.00  0.00    -0.309 N 
HETATM    4  O   UNL     1      39.024 -11.879   7.290  1.00  0.00    -0.247 OA
HETATM    5  H   UNL     1      42.142 -11.991   6.744  1.00  0.00     0.170 HD
ENDROOT
BRANCH   1   6
HETATM    6  C   UNL     1      39.861 -10.390   9.393  1.00  0.00     0.155 C 
BRANCH   6   7
HETATM    7  C   UNL     1      39.853 -11.426  10.528  1.00  0.00     0.254 C 
BRANCH   7   8
HETATM    8  N   UNL     1      39.721 -10.752  11.889  1.00  0.00    -0.077 N 
HETATM    9  C   UNL     1      39.922  -9.260  11.822  1.00  0.00     0.269 C 
HETATM   10  H   UNL     1      38.765 -10.913  12.233  1.00  0.00     0.279 HD
HETATM   11  C   UNL     1      40.639 -11.376  12.907  1.00  0.00     0.269 C 
ENDBRANCH   7   8
ENDBRANCH   6   7
ENDBRANCH   1   6
BRANCH   1  12
HETATM   12  C   UNL     1      42.056 -10.119   8.220  1.00  0.00     0.166 C 
BRANCH  12  13
HETATM   13  C   UNL     1      43.101 -10.734   9.121  1.00  0.00    -0.040 A 
HETATM   14  C   UNL     1      43.911 -11.808   8.720  1.00  0.00     0.009 A 
HETATM   15  C   UNL     1      44.906 -12.302   9.566  1.00  0.00     0.001 A 
HETATM   16  C   UNL     1      45.093 -11.743  10.826  1.00  0.00     0.000 A 
HETATM   17  C   UNL     1      44.280 -10.695  11.248  1.00  0.00     0.001 A 
HETATM   18  C   UNL     1      43.287 -10.195  10.403  1.00  0.00     0.009 A 
ENDBRANCH  12  13
ENDBRANCH   1  12
BRANCH   3  19
HETATM   19  C   UNL     1      41.048 -13.191   5.525  1.00  0.00     0.042 A 
HETATM   20  C   UNL     1      41.083 -14.504   5.999  1.00  0.00     0.087 A 
HETATM   21  C   UNL     1      40.928 -15.547   5.102  1.00  0.00     0.171 A 
HETATM   22  N   UNL     1      40.750 -15.365   3.779  1.00  0.00    -0.237 NA
HETATM   23  C   UNL     1      40.723 -14.084   3.345  1.00  0.00     0.122 A 
HETATM   24  C   UNL     1      40.864 -12.973   4.168  1.00  0.00     0.049 A 
BRANCH  21  25
HETATM   25  O   UNL     1      40.957 -16.814   5.679  1.00  0.00    -0.292 OA
BRANCH  25  26
HETATM   26  C   UNL     1      42.163 -17.337   6.063  1.00  0.00     0.077 A 
HETATM   27  C   UNL     1      42.567 -17.374   7.397  1.00  0.00     0.037 A 
HETATM   28  C   UNL     1      43.857 -17.801   7.717  1.00  0.00     0.003 A 
HETATM   29  C   UNL     1      44.744 -18.170   6.703  1.00  0.00     0.000 A 
HETATM   30  C   UNL     1      44.344 -18.112   5.368  1.00  0.00     0.003 A 
HETATM   31  C   UNL     1      43.055 -17.686   5.048  1.00  0.00     0.037 A 
ENDBRANCH  25  26
ENDBRANCH  21  25
ENDBRANCH   3  19
TORSDOF 8
ENDMDL
MODEL 10
REMARK VINA RESULT:      -7.4      4.906      9.899
REMARK  8 active torsions:
REMARK  status: ('A' for Active; 'I' for Inactive)
REMARK    1  A    between atoms: N_2  and  C_4 
REMARK    2  A    between atoms: C_4  and  C_5 
REMARK    3  A    between atoms: C_5  and  N_6 
REMARK       I    between atoms: N_6  and  C_7 
REMARK    4  A    between atoms: N_6  and  C_23 
REMARK       I    between atoms: C_7  and  N_8 
REMARK    5  A    between atoms: N_8  and  C_9 
REMARK    6  A    between atoms: C_11  and  O_12 
REMARK    7  A    between atoms: O_12  and  C_13 
REMARK    8  A    between atoms: C_23  and  C_24 
ROOT
HETATM    1  N   UNL     1      41.933 -14.558   3.214  1.00  0.00    -0.328 N 
HETATM    2  C   UNL     1      41.465 -13.583   2.325  1.00  0.00     0.323 C 
HETATM    3  N   UNL     1      42.257 -13.410   1.217  1.00  0.00    -0.309 N 
HETATM    4  O   UNL     1      40.407 -13.004   2.555  1.00  0.00    -0.247 OA
HETATM    5  H   UNL     1      43.013 -14.067   1.103  1.00  0.00     0.170 HD
ENDROOT
BRANCH   1   6
HETATM    6  C   UNL     1      41.011 -15.040   4.237  1.00  0.00     0.155 C 
BRANCH   6   7
HETATM    7  C   UNL     1      41.378 -14.562   5.652  1.00  0.00     0.254 C 
BRANCH   7   8
HETATM    8  N   UNL     1      41.580 -15.741   6.597  1.00  0.00    -0.077 N 
HETATM    9  C   UNL     1      43.035 -16.036   6.856  1.00  0.00     0.269 C 
HETATM   10  H   UNL     1      41.155 -15.500   7.502  1.00  0.00     0.279 HD
HETATM   11  C   UNL     1      40.857 -16.970   6.113  1.00  0.00     0.269 C 
ENDBRANCH   7   8
ENDBRANCH   6   7
ENDBRANCH   1   6
BRANCH   1  12
HETATM   12  C   UNL     1      43.311 -15.062   3.250  1.00  0.00     0.166 C 
BRANCH  12  13
HETATM   13  C   UNL     1      43.470 -16.495   2.798  1.00  0.00    -0.040 A 
HETATM   14  C   UNL     1      43.616 -17.563   3.698  1.00  0.00     0.009 A 
HETATM   15  C   UNL     1      43.697 -18.877   3.233  1.00  0.00     0.001 A 
HETATM   16  C   UNL     1      43.651 -19.140   1.868  1.00  0.00     0.000 A 
HETATM   17  C   UNL     1      43.533 -18.090   0.962  1.00  0.00     0.001 A 
HETATM   18  C   UNL     1      43.447 -16.775   1.423  1.00  0.00     0.009 A 
ENDBRANCH  12  13
ENDBRANCH   1  12
BRANCH   3  19
HETATM   19  C   UNL     1      42.018 -12.633   0.066  1.00  0.00     0.042 A 
HETATM   20  C   UNL     1      41.739 -13.341  -1.104  1.00  0.00     0.087 A 
HETATM   21  C   UNL     1      41.466 -12.640  -2.267  1.00  0.00     0.171 A 
HETATM   22  N   UNL     1      41.463 -11.295  -2.335  1.00  0.00    -0.237 NA
HETATM   23  C   UNL     1      41.740 -10.631  -1.189  1.00  0.00     0.122 A 
HETATM   24  C   UNL     1      42.019 -11.247   0.025  1.00  0.00     0.049 A 
BRANCH  21  25
HETATM   25  O   UNL     1      41.180 -13.439  -3.370  1.00  0.00    -0.292 OA
BRANCH  25  26
HETATM   26  C   UNL     1      39.962 -14.062  -3.436  1.00  0.00     0.077 A 
HETATM   27  C   UNL     1      39.833 -15.413  -3.756  1.00  0.00     0.037 A 
HETATM   28  C   UNL     1      38.562 -15.962  -3.933  1.00  0.00     0.003 A 
HETATM   29  C   UNL     1      37.428 -15.158  -3.813  1.00  0.00     0.000 A 
HETATM   30  C   UNL     1      37.561 -13.801  -3.515  1.00  0.00     0.003 A 
HETATM   31  C   UNL     1      38.830 -13.251  -3.335  1.00  0.00     0.037 A 
ENDBRANCH  25  26
ENDBRANCH  21  25
ENDBRANCH   3  19
TORSDOF 8
ENDMDL
