MODEL 1
REMARK VINA RESULT:      -8.5      0.000      0.000
REMARK  8 active torsions:
REMARK  status: ('A' for Active; 'I' for Inactive)
REMARK    1  A    between atoms: C_7  and  C_8 
REMARK    2  A    between atoms: C_8  and  C_9 
REMARK    3  A    between atoms: C_9  and  N_10 
REMARK       I    between atoms: N_10  and  C_11 
REMARK    4  A    between atoms: C_11  and  C_12 
REMARK    5  A    between atoms: C_12  and  S_13 
REMARK    6  A    between atoms: S_13  and  C_14 
REMARK    7  A    between atoms: C_23  and  O_24 
REMARK    8  A    between atoms: O_24  and  C_25 
ROOT
HETATM    1  C   UNL     1      40.582 -15.194   5.721  1.00  0.00     0.068 C 
HETATM    2  C   UNL     1      41.393 -16.185   4.965  1.00  0.00     0.013 A 
HETATM    3  N   UNL     1      41.314 -16.291   3.600  1.00  0.00    -0.359 N 
HETATM    4  H   UNL     1      40.724 -15.725   3.006  1.00  0.00     0.166 HD
HETATM    5  C   UNL     1      42.146 -17.286   3.145  1.00  0.00     0.043 A 
HETATM    6  C   UNL     1      42.787 -17.826   4.256  1.00  0.00     0.002 A 
HETATM    7  C   UNL     1      42.310 -17.124   5.411  1.00  0.00    -0.022 A 
HETATM    8  C   UNL     1      42.379 -17.744   1.844  1.00  0.00     0.033 A 
HETATM    9  C   UNL     1      43.292 -18.792   1.672  1.00  0.00     0.039 A 
HETATM   10  C   UNL     1      43.952 -19.361   2.760  1.00  0.00     0.077 A 
HETATM   11  C   UNL     1      43.705 -18.877   4.054  1.00  0.00     0.051 A 
ENDROOT
BRANCH   7  12
HETATM   12  C   UNL     1      42.713 -17.369   6.833  1.00  0.00     0.061 C 
BRANCH  12  13
HETATM   13  C   UNL     1      44.014 -16.647   7.191  1.00  0.00     0.127 C 
BRANCH  13  14
HETATM   14  N   UNL     1      43.794 -15.292   7.661  1.00  0.00    -0.360 N 
HETATM   15  C   UNL     1      44.541 -14.234   7.188  1.00  0.00     0.227 C 
HETATM   16  O   UNL     1      45.507 -14.373   6.442  1.00  0.00    -0.273 OA
HETATM   17  H   UNL     1      42.867 -15.053   8.016  1.00  0.00     0.162 HD
BRANCH  15  18
HETATM   18  C   UNL     1      44.083 -12.874   7.682  1.00  0.00     0.183 C 
BRANCH  18  19
HETATM   19  S   UNL     1      45.235 -12.219   8.916  1.00  0.00    -0.098 SA
BRANCH  19  20
HETATM   20  C   UNL     1      44.258 -12.124  10.349  1.00  0.00     0.134 A 
HETATM   21  N   UNL     1      44.406 -12.909  11.424  1.00  0.00    -0.149 NA
HETATM   22  N   UNL     1      43.441 -12.423  12.234  1.00  0.00    -0.196 N 
HETATM   23  H   UNL     1      43.291 -12.806  13.165  1.00  0.00     0.213 HD
HETATM   24  N   UNL     1      42.676 -11.419  11.775  1.00  0.00    -0.167 NA
HETATM   25  C   UNL     1      43.201 -11.224  10.560  1.00  0.00     0.180 A 
ENDBRANCH  19  20
ENDBRANCH  18  19
ENDBRANCH  15  18
ENDBRANCH  13  14
ENDBRANCH  12  13
ENDBRANCH   7  12
BRANCH  10  26
HETATM   26  O   UNL     1      44.857 -20.386   2.714  1.00  0.00    -0.270 OA
BRANCH  26  27
HETATM   27  C   UNL     1      44.387 -21.690   2.401  1.00  0.00     0.447 C 
HETATM   28 CL   UNL     1      44.532 -22.723   3.827  1.00  0.00    -0.014 Cl
HETATM   29  F   UNL     1      43.091 -21.635   2.008  1.00  0.00    -0.159 F 
HETATM   30  F   UNL     1      45.116 -22.213   1.383  1.00  0.00    -0.159 F 
ENDBRANCH  26  27
ENDBRANCH  10  26
TORSDOF 8
ENDMDL
MODEL 2
REMARK VINA RESULT:      -8.4      1.443      1.675
REMARK  8 active torsions:
REMARK  status: ('A' for Active; 'I' for Inactive)
REMARK    1  A    between atoms: C_7  and  C_8 
REMARK    2  A    between atoms: C_8  and  C_9 
REMARK    3  A    between atoms: C_9  and  N_10 
REMARK       I    between atoms: N_10  and  C_11 
REMARK    4  A    between atoms: C_11  and  C_12 
REMARK    5  A    between atoms: C_12  and  S_13 
REMARK    6  A    between atoms: S_13  and  C_14 
REMARK    7  A    between atoms: C_23  and  O_24 
REMARK    8  A    between atoms: O_24  and  C_25 
ROOT
HETATM    1  C   UNL     1      39.971 -14.663   3.742  1.00  0.00     0.068 C 
HETATM    2  C   UNL     1      40.968 -15.729   3.455  1.00  0.00     0.013 A 
HETATM    3  N   UNL     1      41.643 -15.785   2.263  1.00  0.00    -0.359 N 
HETATM    4  H   UNL     1      41.531 -15.130   1.501  1.00  0.00     0.166 HD
HETATM    5  C   UNL     1      42.492 -16.866   2.239  1.00  0.00     0.043 A 
HETATM    6  C   UNL     1      42.364 -17.516   3.463  1.00  0.00     0.002 A 
HETATM    7  C   UNL     1      41.398 -16.792   4.235  1.00  0.00    -0.022 A 
HETATM    8  C   UNL     1      43.357 -17.312   1.235  1.00  0.00     0.033 A 
HETATM    9  C   UNL     1      44.113 -18.464   1.486  1.00  0.00     0.039 A 
HETATM   10  C   UNL     1      44.011 -19.145   2.698  1.00  0.00     0.077 A 
HETATM   11  C   UNL     1      43.139 -18.670   3.691  1.00  0.00     0.051 A 
ENDROOT
BRANCH   7  12
HETATM   12  C   UNL     1      40.928 -17.128   5.618  1.00  0.00     0.061 C 
BRANCH  12  13
HETATM   13  C   UNL     1      42.032 -16.929   6.660  1.00  0.00     0.127 C 
BRANCH  13  14
HETATM   14  N   UNL     1      42.435 -15.541   6.793  1.00  0.00    -0.360 N 
HETATM   15  C   UNL     1      43.763 -15.172   6.777  1.00  0.00     0.227 C 
HETATM   16  O   UNL     1      44.687 -15.982   6.771  1.00  0.00    -0.273 OA
HETATM   17  H   UNL     1      41.773 -14.820   6.503  1.00  0.00     0.162 HD
BRANCH  15  18
HETATM   18  C   UNL     1      43.996 -13.672   6.787  1.00  0.00     0.183 C 
BRANCH  18  19
HETATM   19  S   UNL     1      45.670 -13.286   7.358  1.00  0.00    -0.098 SA
BRANCH  19  20
HETATM   20  C   UNL     1      45.388 -12.227   8.706  1.00  0.00     0.134 A 
HETATM   21  N   UNL     1      46.024 -11.065   8.907  1.00  0.00    -0.149 NA
HETATM   22  N   UNL     1      45.436 -10.643  10.047  1.00  0.00    -0.196 N 
HETATM   23  H   UNL     1      45.692  -9.756  10.476  1.00  0.00     0.213 HD
HETATM   24  N   UNL     1      44.503 -11.431  10.608  1.00  0.00    -0.167 NA
HETATM   25  C   UNL     1      44.470 -12.452   9.744  1.00  0.00     0.180 A 
ENDBRANCH  19  20
ENDBRANCH  18  19
ENDBRANCH  15  18
ENDBRANCH  13  14
ENDBRANCH  12  13
ENDBRANCH   7  12
BRANCH  10  26
HETATM   26  O   UNL     1      44.692 -20.277   3.053  1.00  0.00    -0.270 OA
BRANCH  26  27
HETATM   27  C   UNL     1      44.306 -21.512   2.465  1.00  0.00     0.447 C 
HETATM   28 CL   UNL     1      44.461 -22.804   3.660  1.00  0.00    -0.014 Cl
HETATM   29  F   UNL     1      43.022 -21.440   2.035  1.00  0.00    -0.159 F 
HETATM   30  F   UNL     1      45.096 -21.782   1.395  1.00  0.00    -0.159 F 
ENDBRANCH  26  27
ENDBRANCH  10  26
TORSDOF 8
ENDMDL
MODEL 3
REMARK VINA RESULT:      -8.3      4.781      6.893
REMARK  8 active torsions:
REMARK  status: ('A' for Active; 'I' for Inactive)
REMARK    1  A    between atoms: C_7  and  C_8 
REMARK    2  A    between atoms: C_8  and  C_9 
REMARK    3  A    between atoms: C_9  and  N_10 
REMARK       I    between atoms: N_10  and  C_11 
REMARK    4  A    between atoms: C_11  and  C_12 
REMARK    5  A    between atoms: C_12  and  S_13 
REMARK    6  A    between atoms: S_13  and  C_14 
REMARK    7  A    between atoms: C_23  and  O_24 
REMARK    8  A    between atoms: O_24  and  C_25 
ROOT
HETATM    1  C   UNL     1      44.548 -21.240   2.352  1.00  0.00     0.068 C 
HETATM    2  C   UNL     1      44.348 -20.079   3.260  1.00  0.00     0.013 A 
HETATM    3  N   UNL     1      44.972 -20.001   4.479  1.00  0.00    -0.359 N 
HETATM    4  H   UNL     1      45.602 -20.697   4.856  1.00  0.00     0.166 HD
HETATM    5  C   UNL     1      44.614 -18.845   5.131  1.00  0.00     0.043 A 
HETATM    6  C   UNL     1      43.741 -18.155   4.295  1.00  0.00     0.002 A 
HETATM    7  C   UNL     1      43.575 -18.939   3.107  1.00  0.00    -0.022 A 
HETATM    8  C   UNL     1      44.995 -18.362   6.387  1.00  0.00     0.033 A 
HETATM    9  C   UNL     1      44.463 -17.135   6.806  1.00  0.00     0.039 A 
HETATM   10  C   UNL     1      43.584 -16.416   5.998  1.00  0.00     0.077 A 
HETATM   11  C   UNL     1      43.224 -16.921   4.739  1.00  0.00     0.051 A 
ENDROOT
BRANCH   7  12
HETATM   12  C   UNL     1      42.717 -18.598   1.926  1.00  0.00     0.061 C 
BRANCH  12  13
HETATM   13  C   UNL     1      43.309 -17.454   1.100  1.00  0.00     0.127 C 
BRANCH  13  14
HETATM   14  N   UNL     1      42.576 -16.211   1.258  1.00  0.00    -0.360 N 
HETATM   15  C   UNL     1      41.617 -15.820   0.348  1.00  0.00     0.227 C 
HETATM   16  O   UNL     1      41.401 -16.419  -0.703  1.00  0.00    -0.273 OA
HETATM   17  H   UNL     1      42.470 -15.833   2.200  1.00  0.00     0.162 HD
BRANCH  15  18
HETATM   18  C   UNL     1      40.855 -14.568   0.742  1.00  0.00     0.183 C 
BRANCH  18  19
HETATM   19  S   UNL     1      41.756 -13.641   2.010  1.00  0.00    -0.098 SA
BRANCH  19  20
HETATM   20  C   UNL     1      40.896 -14.037   3.467  1.00  0.00     0.134 A 
HETATM   21  N   UNL     1      40.561 -15.279   3.839  1.00  0.00    -0.149 NA
HETATM   22  N   UNL     1      39.945 -15.039   5.017  1.00  0.00    -0.196 N 
HETATM   23  H   UNL     1      39.571 -15.799   5.581  1.00  0.00     0.213 HD
HETATM   24  N   UNL     1      39.833 -13.764   5.424  1.00  0.00    -0.167 NA
HETATM   25  C   UNL     1      40.446 -13.116   4.427  1.00  0.00     0.180 A 
ENDBRANCH  19  20
ENDBRANCH  18  19
ENDBRANCH  15  18
ENDBRANCH  13  14
ENDBRANCH  12  13
ENDBRANCH   7  12
BRANCH  10  26
HETATM   26  O   UNL     1      43.001 -15.216   6.302  1.00  0.00    -0.270 OA
BRANCH  26  27
HETATM   27  C   UNL     1      43.726 -14.024   6.031  1.00  0.00     0.447 C 
HETATM   28 CL   UNL     1      45.215 -14.014   6.982  1.00  0.00    -0.014 Cl
HETATM   29  F   UNL     1      44.029 -13.955   4.711  1.00  0.00    -0.159 F 
HETATM   30  F   UNL     1      42.973 -12.941   6.349  1.00  0.00    -0.159 F 
ENDBRANCH  26  27
ENDBRANCH  10  26
TORSDOF 8
ENDMDL
MODEL 4
REMARK VINA RESULT:      -8.1      4.677      8.339
REMARK  8 active torsions:
REMARK  status: ('A' for Active; 'I' for Inactive)
REMARK    1  A    between atoms: C_7  and  C_8 
REMARK    2  A    between atoms: C_8  and  C_9 
REMARK    3  A    between atoms: C_9  and  N_10 
REMARK       I    between atoms: N_10  and  C_11 
REMARK    4  A    between atoms: C_11  and  C_12 
REMARK    5  A    between atoms: C_12  and  S_13 
REMARK    6  A    between atoms: S_13  and  C_14 
REMARK    7  A    between atoms: C_23  and  O_24 
REMARK    8  A    between atoms: O_24  and  C_25 
ROOT
HETATM    1  C   UNL     1      40.555 -15.554   6.010  1.00  0.00     0.068 C 
HETATM    2  C   UNL     1      41.466 -16.594   5.462  1.00  0.00     0.013 A 
HETATM    3  N   UNL     1      42.297 -17.326   6.272  1.00  0.00    -0.359 N 
HETATM    4  H   UNL     1      42.361 -17.231   7.276  1.00  0.00     0.166 HD
HETATM    5  C   UNL     1      43.045 -18.206   5.526  1.00  0.00     0.043 A 
HETATM    6  C   UNL     1      42.670 -18.040   4.197  1.00  0.00     0.002 A 
HETATM    7  C   UNL     1      41.667 -17.018   4.157  1.00  0.00    -0.022 A 
HETATM    8  C   UNL     1      44.015 -19.131   5.927  1.00  0.00     0.033 A 
HETATM    9  C   UNL     1      44.628 -19.907   4.936  1.00  0.00     0.039 A 
HETATM   10  C   UNL     1      44.283 -19.768   3.593  1.00  0.00     0.077 A 
HETATM   11  C   UNL     1      43.300 -18.838   3.220  1.00  0.00     0.051 A 
ENDROOT
BRANCH   7  12
HETATM   12  C   UNL     1      40.974 -16.494   2.935  1.00  0.00     0.061 C 
BRANCH  12  13
HETATM   13  C   UNL     1      41.830 -15.467   2.190  1.00  0.00     0.127 C 
BRANCH  13  14
HETATM   14  N   UNL     1      41.044 -14.601   1.331  1.00  0.00    -0.360 N 
HETATM   15  C   UNL     1      40.748 -14.952   0.030  1.00  0.00     0.227 C 
HETATM   16  O   UNL     1      41.217 -15.944  -0.523  1.00  0.00    -0.273 OA
HETATM   17  H   UNL     1      40.391 -13.952   1.772  1.00  0.00     0.162 HD
BRANCH  15  18
HETATM   18  C   UNL     1      39.802 -13.997  -0.675  1.00  0.00     0.183 C 
BRANCH  18  19
HETATM   19  S   UNL     1      40.429 -13.574  -2.321  1.00  0.00    -0.098 SA
BRANCH  19  20
HETATM   20  C   UNL     1      39.469 -14.571  -3.372  1.00  0.00     0.134 A 
HETATM   21  N   UNL     1      39.963 -15.501  -4.199  1.00  0.00    -0.149 NA
HETATM   22  N   UNL     1      38.830 -15.983  -4.753  1.00  0.00    -0.196 N 
HETATM   23  H   UNL     1      38.856 -16.735  -5.438  1.00  0.00     0.213 HD
HETATM   24  N   UNL     1      37.661 -15.437  -4.378  1.00  0.00    -0.167 NA
HETATM   25  C   UNL     1      38.071 -14.527  -3.487  1.00  0.00     0.180 A 
ENDBRANCH  19  20
ENDBRANCH  18  19
ENDBRANCH  15  18
ENDBRANCH  13  14
ENDBRANCH  12  13
ENDBRANCH   7  12
BRANCH  10  26
HETATM   26  O   UNL     1      44.814 -20.466   2.543  1.00  0.00    -0.270 OA
BRANCH  26  27
HETATM   27  C   UNL     1      44.266 -21.739   2.229  1.00  0.00     0.447 C 
HETATM   28 CL   UNL     1      44.540 -22.844   3.579  1.00  0.00    -0.014 Cl
HETATM   29  F   UNL     1      42.935 -21.626   1.996  1.00  0.00    -0.159 F 
HETATM   30  F   UNL     1      44.850 -22.231   1.108  1.00  0.00    -0.159 F 
ENDBRANCH  26  27
ENDBRANCH  10  26
TORSDOF 8
ENDMDL
MODEL 5
REMARK VINA RESULT:      -8.1      5.636      8.713
REMARK  8 active torsions:
REMARK  status: ('A' for Active; 'I' for Inactive)
REMARK    1  A    between atoms: C_7  and  C_8 
REMARK    2  A    between atoms: C_8  and  C_9 
REMARK    3  A    between atoms: C_9  and  N_10 
REMARK       I    between atoms: N_10  and  C_11 
REMARK    4  A    between atoms: C_11  and  C_12 
REMARK    5  A    between atoms: C_12  and  S_13 
REMARK    6  A    between atoms: S_13  and  C_14 
REMARK    7  A    between atoms: C_23  and  O_24 
REMARK    8  A    between atoms: O_24  and  C_25 
ROOT
HETATM    1  C   UNL     1      44.723 -21.360   2.550  1.00  0.00     0.068 C 
HETATM    2  C   UNL     1      44.485 -20.174   3.415  1.00  0.00     0.013 A 
HETATM    3  N   UNL     1      45.080 -20.045   4.644  1.00  0.00    -0.359 N 
HETATM    4  H   UNL     1      45.712 -20.717   5.057  1.00  0.00     0.166 HD
HETATM    5  C   UNL     1      44.689 -18.874   5.249  1.00  0.00     0.043 A 
HETATM    6  C   UNL     1      43.825 -18.227   4.371  1.00  0.00     0.002 A 
HETATM    7  C   UNL     1      43.698 -19.052   3.207  1.00  0.00    -0.022 A 
HETATM    8  C   UNL     1      45.035 -18.343   6.496  1.00  0.00     0.033 A 
HETATM    9  C   UNL     1      44.474 -17.113   6.862  1.00  0.00     0.039 A 
HETATM   10  C   UNL     1      43.602 -16.435   6.012  1.00  0.00     0.077 A 
HETATM   11  C   UNL     1      43.279 -16.988   4.763  1.00  0.00     0.051 A 
ENDROOT
BRANCH   7  12
HETATM   12  C   UNL     1      42.861 -18.765   1.997  1.00  0.00     0.061 C 
BRANCH  12  13
HETATM   13  C   UNL     1      43.599 -17.883   0.987  1.00  0.00     0.127 C 
BRANCH  13  14
HETATM   14  N   UNL     1      43.199 -16.490   1.061  1.00  0.00    -0.360 N 
HETATM   15  C   UNL     1      41.922 -16.088   0.730  1.00  0.00     0.227 C 
HETATM   16  O   UNL     1      41.084 -16.843   0.243  1.00  0.00    -0.273 OA
HETATM   17  H   UNL     1      43.698 -15.882   1.712  1.00  0.00     0.162 HD
BRANCH  15  18
HETATM   18  C   UNL     1      41.639 -14.622   0.999  1.00  0.00     0.183 C 
BRANCH  18  19
HETATM   19  S   UNL     1      40.290 -14.026  -0.054  1.00  0.00    -0.098 SA
BRANCH  19  20
HETATM   20  C   UNL     1      40.955 -14.160  -1.653  1.00  0.00     0.134 A 
HETATM   21  N   UNL     1      42.119 -13.623  -2.041  1.00  0.00    -0.149 NA
HETATM   22  N   UNL     1      42.174 -14.028  -3.328  1.00  0.00    -0.196 N 
HETATM   23  H   UNL     1      42.965 -13.790  -3.923  1.00  0.00     0.213 HD
HETATM   24  N   UNL     1      41.150 -14.752  -3.808  1.00  0.00    -0.167 NA
HETATM   25  C   UNL     1      40.363 -14.840  -2.730  1.00  0.00     0.180 A 
ENDBRANCH  19  20
ENDBRANCH  18  19
ENDBRANCH  15  18
ENDBRANCH  13  14
ENDBRANCH  12  13
ENDBRANCH   7  12
BRANCH  10  26
HETATM   26  O   UNL     1      42.994 -15.236   6.262  1.00  0.00    -0.270 OA
BRANCH  26  27
HETATM   27  C   UNL     1      43.724 -14.042   6.014  1.00  0.00     0.447 C 
HETATM   28 CL   UNL     1      45.036 -13.902   7.189  1.00  0.00    -0.014 Cl
HETATM   29  F   UNL     1      44.237 -14.064   4.759  1.00  0.00    -0.159 F 
HETATM   30  F   UNL     1      42.902 -12.967   6.116  1.00  0.00    -0.159 F 
ENDBRANCH  26  27
ENDBRANCH  10  26
TORSDOF 8
ENDMDL
MODEL 6
REMARK VINA RESULT:      -7.9      2.859      3.821
REMARK  8 active torsions:
REMARK  status: ('A' for Active; 'I' for Inactive)
REMARK    1  A    between atoms: C_7  and  C_8 
REMARK    2  A    between atoms: C_8  and  C_9 
REMARK    3  A    between atoms: C_9  and  N_10 
REMARK       I    between atoms: N_10  and  C_11 
REMARK    4  A    between atoms: C_11  and  C_12 
REMARK    5  A    between atoms: C_12  and  S_13 
REMARK    6  A    between atoms: S_13  and  C_14 
REMARK    7  A    between atoms: C_23  and  O_24 
REMARK    8  A    between atoms: O_24  and  C_25 
ROOT
HETATM    1  C   UNL     1      40.564 -15.967   6.384  1.00  0.00     0.068 C 
HETATM    2  C   UNL     1      41.244 -16.776   5.338  1.00  0.00     0.013 A 
HETATM    3  N   UNL     1      40.924 -16.655   4.010  1.00  0.00    -0.359 N 
HETATM    4  H   UNL     1      40.226 -16.027   3.635  1.00  0.00     0.166 HD
HETATM    5  C   UNL     1      41.679 -17.518   3.251  1.00  0.00     0.043 A 
HETATM    6  C   UNL     1      42.519 -18.204   4.123  1.00  0.00     0.002 A 
HETATM    7  C   UNL     1      42.243 -17.731   5.447  1.00  0.00    -0.022 A 
HETATM    8  C   UNL     1      41.683 -17.739   1.870  1.00  0.00     0.033 A 
HETATM    9  C   UNL     1      42.570 -18.697   1.363  1.00  0.00     0.039 A 
HETATM   10  C   UNL     1      43.424 -19.408   2.204  1.00  0.00     0.077 A 
HETATM   11  C   UNL     1      43.404 -19.160   3.585  1.00  0.00     0.051 A 
ENDROOT
BRANCH   7  12
HETATM   12  C   UNL     1      42.899 -18.191   6.714  1.00  0.00     0.061 C 
BRANCH  12  13
HETATM   13  C   UNL     1      44.269 -17.539   6.917  1.00  0.00     0.127 C 
BRANCH  13  14
HETATM   14  N   UNL     1      44.337 -16.195   6.373  1.00  0.00    -0.360 N 
HETATM   15  C   UNL     1      44.289 -15.084   7.188  1.00  0.00     0.227 C 
HETATM   16  O   UNL     1      44.068 -15.144   8.395  1.00  0.00    -0.273 OA
HETATM   17  H   UNL     1      44.808 -16.065   5.476  1.00  0.00     0.162 HD
BRANCH  15  18
HETATM   18  C   UNL     1      44.514 -13.769   6.466  1.00  0.00     0.183 C 
BRANCH  18  19
HETATM   19  S   UNL     1      42.936 -13.034   5.965  1.00  0.00    -0.098 SA
BRANCH  19  20
HETATM   20  C   UNL     1      42.835 -13.439   4.279  1.00  0.00     0.134 A 
HETATM   21  N   UNL     1      43.472 -14.468   3.704  1.00  0.00    -0.149 NA
HETATM   22  N   UNL     1      43.051 -14.351   2.426  1.00  0.00    -0.196 N 
HETATM   23  H   UNL     1      43.350 -15.008   1.709  1.00  0.00     0.213 HD
HETATM   24  N   UNL     1      42.225 -13.335   2.122  1.00  0.00    -0.167 NA
HETATM   25  C   UNL     1      42.084 -12.746   3.315  1.00  0.00     0.180 A 
ENDBRANCH  19  20
ENDBRANCH  18  19
ENDBRANCH  15  18
ENDBRANCH  13  14
ENDBRANCH  12  13
ENDBRANCH   7  12
BRANCH  10  26
HETATM   26  O   UNL     1      44.325 -20.365   1.824  1.00  0.00    -0.270 OA
BRANCH  26  27
HETATM   27  C   UNL     1      43.896 -21.719   1.780  1.00  0.00     0.447 C 
HETATM   28 CL   UNL     1      44.515 -22.577   3.195  1.00  0.00    -0.014 Cl
HETATM   29  F   UNL     1      42.541 -21.776   1.771  1.00  0.00    -0.159 F 
HETATM   30  F   UNL     1      44.352 -22.313   0.649  1.00  0.00    -0.159 F 
ENDBRANCH  26  27
ENDBRANCH  10  26
TORSDOF 8
ENDMDL
MODEL 7
REMARK VINA RESULT:      -7.9      4.215      6.008
REMARK  8 active torsions:
REMARK  status: ('A' for Active; 'I' for Inactive)
REMARK    1  A    between atoms: C_7  and  C_8 
REMARK    2  A    between atoms: C_8  and  C_9 
REMARK    3  A    between atoms: C_9  and  N_10 
REMARK       I    between atoms: N_10  and  C_11 
REMARK    4  A    between atoms: C_11  and  C_12 
REMARK    5  A    between atoms: C_12  and  S_13 
REMARK    6  A    between atoms: S_13  and  C_14 
REMARK    7  A    between atoms: C_23  and  O_24 
REMARK    8  A    between atoms: O_24  and  C_25 
ROOT
HETATM    1  C   UNL     1      43.273 -13.592   4.698  1.00  0.00     0.068 C 
HETATM    2  C   UNL     1      43.335 -14.953   4.100  1.00  0.00     0.013 A 
HETATM    3  N   UNL     1      43.776 -15.158   2.818  1.00  0.00    -0.359 N 
HETATM    4  H   UNL     1      44.091 -14.433   2.188  1.00  0.00     0.166 HD
HETATM    5  C   UNL     1      43.725 -16.494   2.499  1.00  0.00     0.043 A 
HETATM    6  C   UNL     1      43.245 -17.166   3.619  1.00  0.00     0.002 A 
HETATM    7  C   UNL     1      43.000 -16.187   4.635  1.00  0.00    -0.022 A 
HETATM    8  C   UNL     1      44.065 -17.152   1.312  1.00  0.00     0.033 A 
HETATM    9  C   UNL     1      43.905 -18.543   1.266  1.00  0.00     0.039 A 
HETATM   10  C   UNL     1      43.424 -19.252   2.366  1.00  0.00     0.077 A 
HETATM   11  C   UNL     1      43.098 -18.566   3.546  1.00  0.00     0.051 A 
ENDROOT
BRANCH   7  12
HETATM   12  C   UNL     1      42.469 -16.445   6.013  1.00  0.00     0.061 C 
BRANCH  12  13
HETATM   13  C   UNL     1      40.949 -16.278   6.079  1.00  0.00     0.127 C 
BRANCH  13  14
HETATM   14  N   UNL     1      40.371 -15.888   4.806  1.00  0.00    -0.360 N 
HETATM   15  C   UNL     1      39.889 -14.613   4.594  1.00  0.00     0.227 C 
HETATM   16  O   UNL     1      39.803 -13.769   5.483  1.00  0.00    -0.273 OA
HETATM   17  H   UNL     1      40.671 -16.391   3.969  1.00  0.00     0.162 HD
BRANCH  15  18
HETATM   18  C   UNL     1      39.451 -14.340   3.167  1.00  0.00     0.183 C 
BRANCH  18  19
HETATM   19  S   UNL     1      39.878 -15.730   2.088  1.00  0.00    -0.098 SA
BRANCH  19  20
HETATM   20  C   UNL     1      40.789 -14.973   0.817  1.00  0.00     0.134 A 
HETATM   21  N   UNL     1      41.219 -15.597  -0.287  1.00  0.00    -0.149 NA
HETATM   22  N   UNL     1      41.836 -14.585  -0.933  1.00  0.00    -0.196 N 
HETATM   23  H   UNL     1      42.274 -14.726  -1.841  1.00  0.00     0.213 HD
HETATM   24  N   UNL     1      41.863 -13.379  -0.340  1.00  0.00    -0.167 NA
HETATM   25  C   UNL     1      41.188 -13.627   0.788  1.00  0.00     0.180 A 
ENDBRANCH  19  20
ENDBRANCH  18  19
ENDBRANCH  15  18
ENDBRANCH  13  14
ENDBRANCH  12  13
ENDBRANCH   7  12
BRANCH  10  26
HETATM   26  O   UNL     1      43.224 -20.603   2.435  1.00  0.00    -0.270 OA
BRANCH  26  27
HETATM   27  C   UNL     1      44.352 -21.461   2.327  1.00  0.00     0.447 C 
HETATM   28 CL   UNL     1      44.340 -22.618   3.662  1.00  0.00    -0.014 Cl
HETATM   29  F   UNL     1      44.315 -22.128   1.147  1.00  0.00    -0.159 F 
HETATM   30  F   UNL     1      45.495 -20.731   2.364  1.00  0.00    -0.159 F 
ENDBRANCH  26  27
ENDBRANCH  10  26
TORSDOF 8
ENDMDL
MODEL 8
REMARK VINA RESULT:      -7.7      5.641      7.847
REMARK  8 active torsions:
REMARK  status: ('A' for Active; 'I' for Inactive)
REMARK    1  A    between atoms: C_7  and  C_8 
REMARK    2  A    between atoms: C_8  and  C_9 
REMARK    3  A    between atoms: C_9  and  N_10 
REMARK       I    between atoms: N_10  and  C_11 
REMARK    4  A    between atoms: C_11  and  C_12 
REMARK    5  A    between atoms: C_12  and  S_13 
REMARK    6  A    between atoms: S_13  and  C_14 
REMARK    7  A    between atoms: C_23  and  O_24 
REMARK    8  A    between atoms: O_24  and  C_25 
ROOT
HETATM    1  C   UNL     1      44.675 -21.130   2.377  1.00  0.00     0.068 C 
HETATM    2  C   UNL     1      44.407 -19.983   3.284  1.00  0.00     0.013 A 
HETATM    3  N   UNL     1      44.985 -19.894   4.525  1.00  0.00    -0.359 N 
HETATM    4  H   UNL     1      45.624 -20.571   4.919  1.00  0.00     0.166 HD
HETATM    5  C   UNL     1      44.568 -18.754   5.170  1.00  0.00     0.043 A 
HETATM    6  C   UNL     1      43.704 -18.086   4.308  1.00  0.00     0.002 A 
HETATM    7  C   UNL     1      43.604 -18.867   3.110  1.00  0.00    -0.022 A 
HETATM    8  C   UNL     1      44.890 -18.268   6.442  1.00  0.00     0.033 A 
HETATM    9  C   UNL     1      44.305 -17.062   6.849  1.00  0.00     0.039 A 
HETATM   10  C   UNL     1      43.432 -16.365   6.015  1.00  0.00     0.077 A 
HETATM   11  C   UNL     1      43.132 -16.873   4.741  1.00  0.00     0.051 A 
ENDROOT
BRANCH   7  12
HETATM   12  C   UNL     1      42.777 -18.545   1.902  1.00  0.00     0.061 C 
BRANCH  12  13
HETATM   13  C   UNL     1      43.421 -17.456   1.041  1.00  0.00     0.127 C 
BRANCH  13  14
HETATM   14  N   UNL     1      42.453 -16.723   0.247  1.00  0.00    -0.360 N 
HETATM   15  C   UNL     1      41.804 -15.613   0.745  1.00  0.00     0.227 C 
HETATM   16  O   UNL     1      41.905 -15.242   1.912  1.00  0.00    -0.273 OA
HETATM   17  H   UNL     1      42.537 -16.765  -0.770  1.00  0.00     0.162 HD
BRANCH  15  18
HETATM   18  C   UNL     1      40.935 -14.890  -0.267  1.00  0.00     0.183 C 
BRANCH  18  19
HETATM   19  S   UNL     1      40.150 -13.439   0.482  1.00  0.00    -0.098 SA
BRANCH  19  20
HETATM   20  C   UNL     1      41.345 -12.196   0.269  1.00  0.00     0.134 A 
HETATM   21  N   UNL     1      41.426 -11.083   1.009  1.00  0.00    -0.149 NA
HETATM   22  N   UNL     1      42.506 -10.486   0.462  1.00  0.00    -0.196 N 
HETATM   23  H   UNL     1      42.853  -9.597   0.815  1.00  0.00     0.213 HD
HETATM   24  N   UNL     1      43.111 -11.096  -0.570  1.00  0.00    -0.167 NA
HETATM   25  C   UNL     1      42.365 -12.200  -0.696  1.00  0.00     0.180 A 
ENDBRANCH  19  20
ENDBRANCH  18  19
ENDBRANCH  15  18
ENDBRANCH  13  14
ENDBRANCH  12  13
ENDBRANCH   7  12
BRANCH  10  26
HETATM   26  O   UNL     1      42.801 -15.186   6.305  1.00  0.00    -0.270 OA
BRANCH  26  27
HETATM   27  C   UNL     1      43.516 -13.972   6.120  1.00  0.00     0.447 C 
HETATM   28 CL   UNL     1      42.376 -12.625   6.048  1.00  0.00    -0.014 Cl
HETATM   29  F   UNL     1      44.381 -13.783   7.148  1.00  0.00    -0.159 F 
HETATM   30  F   UNL     1      44.233 -14.027   4.970  1.00  0.00    -0.159 F 
ENDBRANCH  26  27
ENDBRANCH  10  26
TORSDOF 8
ENDMDL
MODEL 9
REMARK VINA RESULT:      -7.7      3.763      4.483
REMARK  8 active torsions:
REMARK  status: ('A' for Active; 'I' for Inactive)
REMARK    1  A    between atoms: C_7  and  C_8 
REMARK    2  A    between atoms: C_8  and  C_9 
REMARK    3  A    between atoms: C_9  and  N_10 
REMARK       I    between atoms: N_10  and  C_11 
REMARK    4  A    between atoms: C_11  and  C_12 
REMARK    5  A    between atoms: C_12  and  S_13 
REMARK    6  A    between atoms: S_13  and  C_14 
REMARK    7  A    between atoms: C_23  and  O_24 
REMARK    8  A    between atoms: O_24  and  C_25 
ROOT
HETATM    1  C   UNL     1      43.887 -19.807   7.661  1.00  0.00     0.068 C 
HETATM    2  C   UNL     1      43.712 -19.274   6.284  1.00  0.00     0.013 A 
HETATM    3  N   UNL     1      44.197 -19.937   5.186  1.00  0.00    -0.359 N 
HETATM    4  H   UNL     1      44.696 -20.816   5.211  1.00  0.00     0.166 HD
HETATM    5  C   UNL     1      43.921 -19.235   4.037  1.00  0.00     0.043 A 
HETATM    6  C   UNL     1      43.225 -18.090   4.412  1.00  0.00     0.002 A 
HETATM    7  C   UNL     1      43.091 -18.117   5.839  1.00  0.00    -0.022 A 
HETATM    8  C   UNL     1      44.232 -19.526   2.704  1.00  0.00     0.033 A 
HETATM    9  C   UNL     1      43.823 -18.614   1.722  1.00  0.00     0.039 A 
HETATM   10  C   UNL     1      43.127 -17.455   2.059  1.00  0.00     0.077 A 
HETATM   11  C   UNL     1      42.822 -17.192   3.403  1.00  0.00     0.051 A 
ENDROOT
BRANCH   7  12
HETATM   12  C   UNL     1      42.420 -17.083   6.691  1.00  0.00     0.061 C 
BRANCH  12  13
HETATM   13  C   UNL     1      43.124 -15.727   6.606  1.00  0.00     0.127 C 
BRANCH  13  14
HETATM   14  N   UNL     1      42.297 -14.703   5.996  1.00  0.00    -0.360 N 
HETATM   15  C   UNL     1      42.828 -13.765   5.135  1.00  0.00     0.227 C 
HETATM   16  O   UNL     1      44.033 -13.655   4.920  1.00  0.00    -0.273 OA
HETATM   17  H   UNL     1      41.302 -14.899   5.875  1.00  0.00     0.162 HD
BRANCH  15  18
HETATM   18  C   UNL     1      41.798 -12.860   4.483  1.00  0.00     0.183 C 
BRANCH  18  19
HETATM   19  S   UNL     1      41.584 -11.339   5.441  1.00  0.00    -0.098 SA
BRANCH  19  20
HETATM   20  C   UNL     1      40.409 -11.794   6.638  1.00  0.00     0.134 A 
HETATM   21  N   UNL     1      39.766 -12.968   6.665  1.00  0.00    -0.149 NA
HETATM   22  N   UNL     1      39.007 -12.822   7.772  1.00  0.00    -0.196 N 
HETATM   23  H   UNL     1      38.390 -13.566   8.091  1.00  0.00     0.213 HD
HETATM   24  N   UNL     1      39.084 -11.661   8.443  1.00  0.00    -0.167 NA
HETATM   25  C   UNL     1      39.988 -10.996   7.714  1.00  0.00     0.180 A 
ENDBRANCH  19  20
ENDBRANCH  18  19
ENDBRANCH  15  18
ENDBRANCH  13  14
ENDBRANCH  12  13
ENDBRANCH   7  12
BRANCH  10  26
HETATM   26  O   UNL     1      42.682 -16.495   1.191  1.00  0.00    -0.270 OA
BRANCH  26  27
HETATM   27  C   UNL     1      41.330 -16.549   0.757  1.00  0.00     0.447 C 
HETATM   28 CL   UNL     1      41.217 -15.914  -0.888  1.00  0.00    -0.014 Cl
HETATM   29  F   UNL     1      40.885 -17.830   0.783  1.00  0.00    -0.159 F 
HETATM   30  F   UNL     1      40.548 -15.813   1.586  1.00  0.00    -0.159 F 
ENDBRANCH  26  27
ENDBRANCH  10  26
TORSDOF 8
ENDMDL
MODEL 10
REMARK VINA RESULT:      -7.6      3.321      3.625
REMARK  8 active torsions:
REMARK  status: ('A' for Active; 'I' for Inactive)
REMARK    1  A    between atoms: C_7  and  C_8 
REMARK    2  A    between atoms: C_8  and  C_9 
REMARK    3  A    between atoms: C_9  and  N_10 
REMARK       I    between atoms: N_10  and  C_11 
REMARK    4  A    between atoms: C_11  and  C_12 
REMARK    5  A    between atoms: C_12  and  S_13 
REMARK    6  A    between atoms: S_13  and  C_14 
REMARK    7  A    between atoms: C_23  and  O_24 
REMARK    8  A    between atoms: O_24  and  C_25 
ROOT
HETATM    1  C   UNL     1      39.959 -15.976   2.361  1.00  0.00     0.068 C 
HETATM    2  C   UNL     1      41.063 -16.923   2.672  1.00  0.00     0.013 A 
HETATM    3  N   UNL     1      41.745 -17.585   1.684  1.00  0.00    -0.359 N 
HETATM    4  H   UNL     1      41.570 -17.491   0.693  1.00  0.00     0.166 HD
HETATM    5  C   UNL     1      42.702 -18.409   2.228  1.00  0.00     0.043 A 
HETATM    6  C   UNL     1      42.636 -18.259   3.609  1.00  0.00     0.002 A 
HETATM    7  C   UNL     1      41.597 -17.314   3.890  1.00  0.00    -0.022 A 
HETATM    8  C   UNL     1      43.614 -19.267   1.605  1.00  0.00     0.033 A 
HETATM    9  C   UNL     1      44.484 -20.002   2.420  1.00  0.00     0.039 A 
HETATM   10  C   UNL     1      44.447 -19.882   3.808  1.00  0.00     0.077 A 
HETATM   11  C   UNL     1      43.527 -19.007   4.406  1.00  0.00     0.051 A 
ENDROOT
BRANCH   7  12
HETATM   12  C   UNL     1      41.158 -16.846   5.245  1.00  0.00     0.061 C 
BRANCH  12  13
HETATM   13  C   UNL     1      41.803 -15.511   5.625  1.00  0.00     0.127 C 
BRANCH  13  14
HETATM   14  N   UNL     1      40.886 -14.392   5.512  1.00  0.00    -0.360 N 
HETATM   15  C   UNL     1      41.191 -13.285   4.747  1.00  0.00     0.227 C 
HETATM   16  O   UNL     1      42.286 -13.115   4.216  1.00  0.00    -0.273 OA
HETATM   17  H   UNL     1      39.891 -14.572   5.650  1.00  0.00     0.162 HD
BRANCH  15  18
HETATM   18  C   UNL     1      40.063 -12.277   4.629  1.00  0.00     0.183 C 
BRANCH  18  19
HETATM   19  S   UNL     1      40.454 -10.766   5.548  1.00  0.00    -0.098 SA
BRANCH  19  20
HETATM   20  C   UNL     1      39.766 -11.073   7.114  1.00  0.00     0.134 A 
HETATM   21  N   UNL     1      39.494 -12.291   7.600  1.00  0.00    -0.149 NA
HETATM   22  N   UNL     1      39.009 -11.980   8.821  1.00  0.00    -0.196 N 
HETATM   23  H   UNL     1      38.711 -12.705   9.471  1.00  0.00     0.213 HD
HETATM   24  N   UNL     1      38.922 -10.682   9.155  1.00  0.00    -0.167 NA
HETATM   25  C   UNL     1      39.410 -10.095   8.056  1.00  0.00     0.180 A 
ENDBRANCH  19  20
ENDBRANCH  18  19
ENDBRANCH  15  18
ENDBRANCH  13  14
ENDBRANCH  12  13
ENDBRANCH   7  12
BRANCH  10  26
HETATM   26  O   UNL     1      45.241 -20.547   4.702  1.00  0.00    -0.270 OA
BRANCH  26  27
HETATM   27  C   UNL     1      44.806 -21.812   5.182  1.00  0.00     0.447 C 
HETATM   28 CL   UNL     1      43.885 -21.587   6.673  1.00  0.00    -0.014 Cl
HETATM   29  F   UNL     1      44.027 -22.419   4.253  1.00  0.00    -0.159 F 
HETATM   30  F   UNL     1      45.877 -22.610   5.422  1.00  0.00    -0.159 F 
ENDBRANCH  26  27
ENDBRANCH  10  26
TORSDOF 8
ENDMDL
