MODEL 1
REMARK VINA RESULT:      -8.0      0.000      0.000
REMARK  10 active torsions:
REMARK  status: ('A' for Active; 'I' for Inactive)
REMARK    1  A    between atoms: C_6  and  C_7 
REMARK    2  A    between atoms: C_7  and  C_8 
REMARK       I    between atoms: C_8  and  N_9 
REMARK    3  A    between atoms: N_9  and  C_10 
REMARK    4  A    between atoms: C_10  and  C_11 
REMARK    5  A    between atoms: C_11  and  N_12 
REMARK    6  A    between atoms: C_17  and  C_18 
REMARK    7  A    between atoms: C_27  and  C_28 
REMARK    8  A    between atoms: C_28  and  O_29 
REMARK    9  A    between atoms: O_29  and  C_30 
REMARK   10  A    between atoms: C_30  and  C_31 
ROOT
HETATM    1  C   UNL     1      40.426 -17.659   2.596  1.00  0.00     0.071 C 
HETATM    2  C   UNL     1      41.115 -16.708   3.550  1.00  0.00     0.048 C 
HETATM    3  N   UNL     1      41.040 -17.123   4.871  1.00  0.00    -0.229 NA
HETATM    4  C   UNL     1      41.903 -16.623   5.686  1.00  0.00     0.170 C 
HETATM    5  N   UNL     1      42.784 -15.378   5.378  1.00  0.00    -0.318 N 
HETATM    6  C   UNL     1      43.697 -15.200   6.273  1.00  0.00     0.011 C 
HETATM    7  C   UNL     1      42.280 -14.613   4.220  1.00  0.00     0.168 C 
HETATM    8  S   UNL     1      42.259 -17.265   7.253  1.00  0.00    -0.086 SA
HETATM    9  C   UNL     1      43.795 -16.285   7.320  1.00  0.00     0.135 C 
HETATM   10  C   UNL     1      41.871 -15.644   3.188  1.00  0.00     0.069 C 
ENDROOT
BRANCH   6  11
HETATM   11  C   UNL     1      44.582 -13.992   6.274  1.00  0.00     0.156 C 
BRANCH  11  12
HETATM   12  C   UNL     1      44.640 -13.230   7.581  1.00  0.00     0.223 C 
HETATM   13  N   UNL     1      43.515 -12.484   7.832  1.00  0.00    -0.359 N 
HETATM   14  H   UNL     1      42.805 -12.441   7.105  1.00  0.00     0.162 HD
HETATM   15  O   UNL     1      45.615 -13.267   8.323  1.00  0.00    -0.273 OA
BRANCH  13  16
HETATM   16  C   UNL     1      43.396 -11.437   8.848  1.00  0.00     0.150 C 
BRANCH  16  17
HETATM   17  C   UNL     1      42.099 -10.606   8.861  1.00  0.00     0.253 C 
BRANCH  17  18
HETATM   18  N   UNL     1      41.082 -11.083   9.877  1.00  0.00    -0.077 N 
HETATM   19  H   UNL     1      41.281 -12.087  10.060  1.00  0.00     0.279 HD
HETATM   20  C   UNL     1      41.155 -10.380  11.205  1.00  0.00     0.269 C 
HETATM   21  C   UNL     1      39.690 -11.004   9.312  1.00  0.00     0.269 C 
ENDBRANCH  17  18
ENDBRANCH  16  17
ENDBRANCH  13  16
ENDBRANCH  11  12
ENDBRANCH   6  11
BRANCH   7  22
HETATM   22  C   UNL     1      41.140 -13.639   4.613  1.00  0.00    -0.009 A 
HETATM   23  C   UNL     1      40.818 -12.518   3.812  1.00  0.00     0.042 A 
HETATM   24 CL   UNL     1      41.694 -12.109   2.384  1.00  0.00    -0.084 Cl
HETATM   25  C   UNL     1      39.770 -11.651   4.153  1.00  0.00     0.024 A 
HETATM   26  C   UNL     1      39.032 -11.855   5.313  1.00  0.00     0.002 A 
HETATM   27  C   UNL     1      39.344 -12.924   6.140  1.00  0.00     0.001 A 
HETATM   28  C   UNL     1      40.379 -13.801   5.798  1.00  0.00     0.011 A 
ENDBRANCH   7  22
BRANCH  10  29
HETATM   29  C   UNL     1      42.692 -15.606   1.936  1.00  0.00     0.294 C 
HETATM   30  O   UNL     1      42.496 -14.765   1.070  1.00  0.00    -0.259 OA
BRANCH  29  31
HETATM   31  O   UNL     1      43.819 -16.331   2.083  1.00  0.00    -0.313 OA
BRANCH  31  32
HETATM   32  C   UNL     1      43.925 -17.538   1.312  1.00  0.00     0.217 C 
BRANCH  32  33
HETATM   33  C   UNL     1      44.071 -18.744   2.222  1.00  0.00    -0.034 A 
HETATM   34  C   UNL     1      44.087 -20.059   1.726  1.00  0.00     0.009 A 
HETATM   35  C   UNL     1      44.272 -21.150   2.579  1.00  0.00     0.001 A 
HETATM   36  C   UNL     1      44.484 -20.938   3.937  1.00  0.00     0.000 A 
HETATM   37  C   UNL     1      44.515 -19.640   4.439  1.00  0.00     0.001 A 
HETATM   38  C   UNL     1      44.299 -18.549   3.591  1.00  0.00     0.009 A 
ENDBRANCH  32  33
ENDBRANCH  31  32
ENDBRANCH  29  31
ENDBRANCH  10  29
TORSDOF 10
ENDMDL
MODEL 2
REMARK VINA RESULT:      -7.8      2.706      4.280
REMARK  10 active torsions:
REMARK  status: ('A' for Active; 'I' for Inactive)
REMARK    1  A    between atoms: C_6  and  C_7 
REMARK    2  A    between atoms: C_7  and  C_8 
REMARK       I    between atoms: C_8  and  N_9 
REMARK    3  A    between atoms: N_9  and  C_10 
REMARK    4  A    between atoms: C_10  and  C_11 
REMARK    5  A    between atoms: C_11  and  N_12 
REMARK    6  A    between atoms: C_17  and  C_18 
REMARK    7  A    between atoms: C_27  and  C_28 
REMARK    8  A    between atoms: C_28  and  O_29 
REMARK    9  A    between atoms: O_29  and  C_30 
REMARK   10  A    between atoms: C_30  and  C_31 
ROOT
HETATM    1  C   UNL     1      42.088 -14.249   0.900  1.00  0.00     0.071 C 
HETATM    2  C   UNL     1      41.727 -13.841   2.311  1.00  0.00     0.048 C 
HETATM    3  N   UNL     1      42.012 -12.509   2.575  1.00  0.00    -0.229 NA
HETATM    4  C   UNL     1      41.397 -11.970   3.572  1.00  0.00     0.170 C 
HETATM    5  N   UNL     1      40.634 -12.768   4.668  1.00  0.00    -0.318 N 
HETATM    6  C   UNL     1      39.948 -11.993   5.438  1.00  0.00     0.011 C 
HETATM    7  C   UNL     1      40.989 -14.202   4.661  1.00  0.00     0.168 C 
HETATM    8  S   UNL     1      41.284 -10.266   3.848  1.00  0.00    -0.086 SA
HETATM    9  C   UNL     1      39.926 -10.537   5.035  1.00  0.00     0.135 C 
HETATM   10  C   UNL     1      41.053 -14.606   3.203  1.00  0.00     0.069 C 
ENDROOT
BRANCH   6  11
HETATM   11  C   UNL     1      39.238 -12.506   6.652  1.00  0.00     0.156 C 
BRANCH  11  12
HETATM   12  C   UNL     1      39.466 -11.715   7.922  1.00  0.00     0.223 C 
HETATM   13  N   UNL     1      40.755 -11.266   8.066  1.00  0.00    -0.359 N 
HETATM   14  H   UNL     1      41.440 -11.568   7.377  1.00  0.00     0.162 HD
HETATM   15  O   UNL     1      38.579 -11.520   8.746  1.00  0.00    -0.273 OA
BRANCH  13  16
HETATM   16  C   UNL     1      41.341 -10.735   9.298  1.00  0.00     0.150 C 
BRANCH  16  17
HETATM   17  C   UNL     1      42.841 -10.991   9.539  1.00  0.00     0.253 C 
BRANCH  17  18
HETATM   18  N   UNL     1      43.122 -11.871  10.739  1.00  0.00    -0.077 N 
HETATM   19  H   UNL     1      42.640 -12.777  10.573  1.00  0.00     0.279 HD
HETATM   20  C   UNL     1      44.578 -12.188  10.948  1.00  0.00     0.269 C 
HETATM   21  C   UNL     1      42.526 -11.275  11.985  1.00  0.00     0.269 C 
ENDBRANCH  17  18
ENDBRANCH  16  17
ENDBRANCH  13  16
ENDBRANCH  11  12
ENDBRANCH   6  11
BRANCH   7  22
HETATM   22  C   UNL     1      42.296 -14.486   5.444  1.00  0.00    -0.009 A 
HETATM   23  C   UNL     1      42.437 -15.639   6.252  1.00  0.00     0.042 A 
HETATM   24 CL   UNL     1      41.163 -16.778   6.482  1.00  0.00    -0.084 Cl
HETATM   25  C   UNL     1      43.629 -15.910   6.939  1.00  0.00     0.024 A 
HETATM   26  C   UNL     1      44.702 -15.030   6.868  1.00  0.00     0.002 A 
HETATM   27  C   UNL     1      44.586 -13.872   6.114  1.00  0.00     0.001 A 
HETATM   28  C   UNL     1      43.405 -13.603   5.413  1.00  0.00     0.011 A 
ENDBRANCH   7  22
BRANCH  10  29
HETATM   29  C   UNL     1      40.009 -15.605   2.805  1.00  0.00     0.294 C 
HETATM   30  O   UNL     1      39.056 -15.287   2.108  1.00  0.00    -0.259 OA
BRANCH  29  31
HETATM   31  O   UNL     1      40.457 -16.862   2.995  1.00  0.00    -0.313 OA
BRANCH  31  32
HETATM   32  C   UNL     1      41.222 -17.451   1.931  1.00  0.00     0.217 C 
BRANCH  32  33
HETATM   33  C   UNL     1      42.407 -18.220   2.486  1.00  0.00    -0.034 A 
HETATM   34  C   UNL     1      43.036 -17.859   3.690  1.00  0.00     0.009 A 
HETATM   35  C   UNL     1      44.094 -18.612   4.205  1.00  0.00     0.001 A 
HETATM   36  C   UNL     1      44.512 -19.763   3.543  1.00  0.00     0.000 A 
HETATM   37  C   UNL     1      43.871 -20.159   2.372  1.00  0.00     0.001 A 
HETATM   38  C   UNL     1      42.833 -19.388   1.840  1.00  0.00     0.009 A 
ENDBRANCH  32  33
ENDBRANCH  31  32
ENDBRANCH  29  31
ENDBRANCH  10  29
TORSDOF 10
ENDMDL
MODEL 3
REMARK VINA RESULT:      -7.4      3.301      7.254
REMARK  10 active torsions:
REMARK  status: ('A' for Active; 'I' for Inactive)
REMARK    1  A    between atoms: C_6  and  C_7 
REMARK    2  A    between atoms: C_7  and  C_8 
REMARK       I    between atoms: C_8  and  N_9 
REMARK    3  A    between atoms: N_9  and  C_10 
REMARK    4  A    between atoms: C_10  and  C_11 
REMARK    5  A    between atoms: C_11  and  N_12 
REMARK    6  A    between atoms: C_17  and  C_18 
REMARK    7  A    between atoms: C_27  and  C_28 
REMARK    8  A    between atoms: C_28  and  O_29 
REMARK    9  A    between atoms: O_29  and  C_30 
REMARK   10  A    between atoms: C_30  and  C_31 
ROOT
HETATM    1  C   UNL     1      41.713 -11.935   2.774  1.00  0.00     0.071 C 
HETATM    2  C   UNL     1      42.058 -13.242   3.453  1.00  0.00     0.048 C 
HETATM    3  N   UNL     1      43.322 -13.233   4.026  1.00  0.00    -0.229 NA
HETATM    4  C   UNL     1      43.550 -14.112   4.941  1.00  0.00     0.170 C 
HETATM    5  N   UNL     1      42.653 -15.355   5.209  1.00  0.00    -0.318 N 
HETATM    6  C   UNL     1      42.989 -15.965   6.295  1.00  0.00     0.011 C 
HETATM    7  C   UNL     1      41.730 -15.627   4.089  1.00  0.00     0.168 C 
HETATM    8  S   UNL     1      44.875 -14.048   6.052  1.00  0.00    -0.086 SA
HETATM    9  C   UNL     1      44.058 -15.282   7.117  1.00  0.00     0.135 C 
HETATM   10  C   UNL     1      41.205 -14.276   3.647  1.00  0.00     0.069 C 
ENDROOT
BRANCH   6  11
HETATM   11  C   UNL     1      42.367 -17.266   6.699  1.00  0.00     0.156 C 
BRANCH  11  12
HETATM   12  C   UNL     1      43.294 -18.462   6.683  1.00  0.00     0.223 C 
HETATM   13  N   UNL     1      43.768 -18.774   5.432  1.00  0.00    -0.359 N 
HETATM   14  H   UNL     1      43.399 -18.247   4.643  1.00  0.00     0.162 HD
HETATM   15  O   UNL     1      43.569 -19.097   7.694  1.00  0.00    -0.273 OA
BRANCH  13  16
HETATM   16  C   UNL     1      44.435 -20.022   5.059  1.00  0.00     0.150 C 
BRANCH  16  17
HETATM   17  C   UNL     1      44.658 -20.286   3.558  1.00  0.00     0.253 C 
BRANCH  17  18
HETATM   18  N   UNL     1      44.119 -21.621   3.090  1.00  0.00    -0.077 N 
HETATM   19  H   UNL     1      43.091 -21.607   3.245  1.00  0.00     0.279 HD
HETATM   20  C   UNL     1      44.330 -21.896   1.625  1.00  0.00     0.269 C 
HETATM   21  C   UNL     1      44.677 -22.742   3.925  1.00  0.00     0.269 C 
ENDBRANCH  17  18
ENDBRANCH  16  17
ENDBRANCH  13  16
ENDBRANCH  11  12
ENDBRANCH   6  11
BRANCH   7  22
HETATM   22  C   UNL     1      42.409 -16.433   2.952  1.00  0.00    -0.009 A 
HETATM   23  C   UNL     1      41.660 -17.268   2.090  1.00  0.00     0.042 A 
HETATM   24 CL   UNL     1      39.961 -17.507   2.268  1.00  0.00    -0.084 Cl
HETATM   25  C   UNL     1      42.270 -17.977   1.046  1.00  0.00     0.024 A 
HETATM   26  C   UNL     1      43.643 -17.900   0.846  1.00  0.00     0.002 A 
HETATM   27  C   UNL     1      44.413 -17.118   1.694  1.00  0.00     0.001 A 
HETATM   28  C   UNL     1      43.809 -16.396   2.729  1.00  0.00     0.011 A 
ENDBRANCH   7  22
BRANCH  10  29
HETATM   29  C   UNL     1      39.733 -14.097   3.866  1.00  0.00     0.294 C 
HETATM   30  O   UNL     1      39.256 -14.068   4.992  1.00  0.00    -0.259 OA
BRANCH  29  31
HETATM   31  O   UNL     1      39.139 -13.631   2.750  1.00  0.00    -0.313 OA
BRANCH  31  32
HETATM   32  C   UNL     1      38.862 -14.584   1.711  1.00  0.00     0.217 C 
BRANCH  32  33
HETATM   33  C   UNL     1      39.502 -14.153   0.404  1.00  0.00    -0.034 A 
HETATM   34  C   UNL     1      40.817 -14.513   0.060  1.00  0.00     0.009 A 
HETATM   35  C   UNL     1      41.367 -14.145  -1.170  1.00  0.00     0.001 A 
HETATM   36  C   UNL     1      40.594 -13.447  -2.093  1.00  0.00     0.000 A 
HETATM   37  C   UNL     1      39.275 -13.121  -1.786  1.00  0.00     0.001 A 
HETATM   38  C   UNL     1      38.735 -13.461  -0.543  1.00  0.00     0.009 A 
ENDBRANCH  32  33
ENDBRANCH  31  32
ENDBRANCH  29  31
ENDBRANCH  10  29
TORSDOF 10
ENDMDL
MODEL 4
REMARK VINA RESULT:      -7.4      3.231      4.766
REMARK  10 active torsions:
REMARK  status: ('A' for Active; 'I' for Inactive)
REMARK    1  A    between atoms: C_6  and  C_7 
REMARK    2  A    between atoms: C_7  and  C_8 
REMARK       I    between atoms: C_8  and  N_9 
REMARK    3  A    between atoms: N_9  and  C_10 
REMARK    4  A    between atoms: C_10  and  C_11 
REMARK    5  A    between atoms: C_11  and  N_12 
REMARK    6  A    between atoms: C_17  and  C_18 
REMARK    7  A    between atoms: C_27  and  C_28 
REMARK    8  A    between atoms: C_28  and  O_29 
REMARK    9  A    between atoms: O_29  and  C_30 
REMARK   10  A    between atoms: C_30  and  C_31 
ROOT
HETATM    1  C   UNL     1      41.252 -14.281  -0.603  1.00  0.00     0.071 C 
HETATM    2  C   UNL     1      40.996 -13.530   0.686  1.00  0.00     0.048 C 
HETATM    3  N   UNL     1      41.451 -12.221   0.645  1.00  0.00    -0.229 NA
HETATM    4  C   UNL     1      40.944 -11.403   1.503  1.00  0.00     0.170 C 
HETATM    5  N   UNL     1      40.130 -11.838   2.756  1.00  0.00    -0.318 N 
HETATM    6  C   UNL     1      39.572 -10.832   3.341  1.00  0.00     0.011 C 
HETATM    7  C   UNL     1      40.306 -13.272   3.064  1.00  0.00     0.168 C 
HETATM    8  S   UNL     1      41.051  -9.680   1.396  1.00  0.00    -0.086 SA
HETATM    9  C   UNL     1      39.714  -9.508   2.625  1.00  0.00     0.135 C 
HETATM   10  C   UNL     1      40.266 -13.990   1.730  1.00  0.00     0.069 C 
ENDROOT
BRANCH   6  11
HETATM   11  C   UNL     1      38.850 -10.972   4.644  1.00  0.00     0.156 C 
BRANCH  11  12
HETATM   12  C   UNL     1      39.420 -10.169   5.793  1.00  0.00     0.223 C 
HETATM   13  N   UNL     1      40.786 -10.254   5.899  1.00  0.00    -0.359 N 
HETATM   14  H   UNL     1      41.269 -10.895   5.273  1.00  0.00     0.162 HD
HETATM   15  O   UNL     1      38.715  -9.526   6.563  1.00  0.00    -0.273 OA
BRANCH  13  16
HETATM   16  C   UNL     1      41.580  -9.834   7.055  1.00  0.00     0.150 C 
BRANCH  16  17
HETATM   17  C   UNL     1      42.175 -10.941   7.946  1.00  0.00     0.253 C 
BRANCH  17  18
HETATM   18  N   UNL     1      41.622 -10.948   9.356  1.00  0.00    -0.077 N 
HETATM   19  H   UNL     1      41.087 -11.831   9.470  1.00  0.00     0.279 HD
HETATM   20  C   UNL     1      42.672 -10.938  10.434  1.00  0.00     0.269 C 
HETATM   21  C   UNL     1      40.652  -9.814   9.552  1.00  0.00     0.269 C 
ENDBRANCH  17  18
ENDBRANCH  16  17
ENDBRANCH  13  16
ENDBRANCH  11  12
ENDBRANCH   6  11
BRANCH   7  22
HETATM   22  C   UNL     1      41.596 -13.542   3.878  1.00  0.00    -0.009 A 
HETATM   23  C   UNL     1      41.554 -13.770   5.274  1.00  0.00     0.042 A 
HETATM   24 CL   UNL     1      40.091 -13.706   6.185  1.00  0.00    -0.084 Cl
HETATM   25  C   UNL     1      42.718 -14.041   6.007  1.00  0.00     0.024 A 
HETATM   26  C   UNL     1      43.959 -14.063   5.382  1.00  0.00     0.002 A 
HETATM   27  C   UNL     1      44.041 -13.808   4.021  1.00  0.00     0.001 A 
HETATM   28  C   UNL     1      42.882 -13.552   3.280  1.00  0.00     0.011 A 
ENDBRANCH   7  22
BRANCH  10  29
HETATM   29  C   UNL     1      39.094 -14.910   1.573  1.00  0.00     0.294 C 
HETATM   30  O   UNL     1      38.189 -14.661   0.789  1.00  0.00    -0.259 OA
BRANCH  29  31
HETATM   31  O   UNL     1      39.367 -16.122   2.096  1.00  0.00    -0.313 OA
BRANCH  31  32
HETATM   32  C   UNL     1      40.486 -16.834   1.545  1.00  0.00     0.217 C 
BRANCH  32  33
HETATM   33  C   UNL     1      41.490 -17.177   2.631  1.00  0.00    -0.034 A 
HETATM   34  C   UNL     1      42.860 -17.339   2.360  1.00  0.00     0.009 A 
HETATM   35  C   UNL     1      43.771 -17.605   3.385  1.00  0.00     0.001 A 
HETATM   36  C   UNL     1      43.331 -17.673   4.703  1.00  0.00     0.000 A 
HETATM   37  C   UNL     1      41.983 -17.472   4.994  1.00  0.00     0.001 A 
HETATM   38  C   UNL     1      41.066 -17.236   3.966  1.00  0.00     0.009 A 
ENDBRANCH  32  33
ENDBRANCH  31  32
ENDBRANCH  29  31
ENDBRANCH  10  29
TORSDOF 10
ENDMDL
MODEL 5
REMARK VINA RESULT:      -7.4      2.747      4.327
REMARK  10 active torsions:
REMARK  status: ('A' for Active; 'I' for Inactive)
REMARK    1  A    between atoms: C_6  and  C_7 
REMARK    2  A    between atoms: C_7  and  C_8 
REMARK       I    between atoms: C_8  and  N_9 
REMARK    3  A    between atoms: N_9  and  C_10 
REMARK    4  A    between atoms: C_10  and  C_11 
REMARK    5  A    between atoms: C_11  and  N_12 
REMARK    6  A    between atoms: C_17  and  C_18 
REMARK    7  A    between atoms: C_27  and  C_28 
REMARK    8  A    between atoms: C_28  and  O_29 
REMARK    9  A    between atoms: O_29  and  C_30 
REMARK   10  A    between atoms: C_30  and  C_31 
ROOT
HETATM    1  C   UNL     1      44.048 -16.736   1.428  1.00  0.00     0.071 C 
HETATM    2  C   UNL     1      43.211 -15.937   2.402  1.00  0.00     0.048 C 
HETATM    3  N   UNL     1      43.132 -14.593   2.069  1.00  0.00    -0.229 NA
HETATM    4  C   UNL     1      42.155 -13.925   2.578  1.00  0.00     0.170 C 
HETATM    5  N   UNL     1      41.276 -14.418   3.764  1.00  0.00    -0.318 N 
HETATM    6  C   UNL     1      40.252 -13.657   3.954  1.00  0.00     0.011 C 
HETATM    7  C   UNL     1      41.897 -15.551   4.481  1.00  0.00     0.168 C 
HETATM    8  S   UNL     1      41.627 -12.377   2.013  1.00  0.00    -0.086 SA
HETATM    9  C   UNL     1      40.060 -12.564   2.928  1.00  0.00     0.135 C 
HETATM   10  C   UNL     1      42.469 -16.457   3.411  1.00  0.00     0.069 C 
ENDROOT
BRANCH   6  11
HETATM   11  C   UNL     1      39.332 -13.842   5.120  1.00  0.00     0.156 C 
BRANCH  11  12
HETATM   12  C   UNL     1      39.139 -12.622   5.996  1.00  0.00     0.223 C 
HETATM   13  N   UNL     1      39.515 -12.817   7.302  1.00  0.00    -0.359 N 
HETATM   14  H   UNL     1      39.798 -13.755   7.576  1.00  0.00     0.162 HD
HETATM   15  O   UNL     1      38.668 -11.573   5.570  1.00  0.00    -0.273 OA
BRANCH  13  16
HETATM   16  C   UNL     1      39.185 -11.939   8.425  1.00  0.00     0.150 C 
BRANCH  16  17
HETATM   17  C   UNL     1      40.154 -10.780   8.728  1.00  0.00     0.253 C 
BRANCH  17  18
HETATM   18  N   UNL     1      40.115  -9.671   7.698  1.00  0.00    -0.077 N 
HETATM   19  H   UNL     1      39.411  -9.943   6.983  1.00  0.00     0.279 HD
HETATM   20  C   UNL     1      39.684  -8.335   8.240  1.00  0.00     0.269 C 
HETATM   21  C   UNL     1      41.440  -9.554   6.993  1.00  0.00     0.269 C 
ENDBRANCH  17  18
ENDBRANCH  16  17
ENDBRANCH  13  16
ENDBRANCH  11  12
ENDBRANCH   6  11
BRANCH   7  22
HETATM   22  C   UNL     1      42.942 -15.081   5.525  1.00  0.00    -0.009 A 
HETATM   23  C   UNL     1      43.137 -15.779   6.740  1.00  0.00     0.042 A 
HETATM   24 CL   UNL     1      42.197 -17.154   7.187  1.00  0.00    -0.084 Cl
HETATM   25  C   UNL     1      44.101 -15.370   7.673  1.00  0.00     0.024 A 
HETATM   26  C   UNL     1      44.877 -14.241   7.439  1.00  0.00     0.002 A 
HETATM   27  C   UNL     1      44.688 -13.513   6.274  1.00  0.00     0.001 A 
HETATM   28  C   UNL     1      43.738 -13.924   5.332  1.00  0.00     0.011 A 
ENDBRANCH   7  22
BRANCH  10  29
HETATM   29  C   UNL     1      41.812 -17.801   3.340  1.00  0.00     0.294 C 
HETATM   30  O   UNL     1      41.167 -18.144   2.359  1.00  0.00    -0.259 OA
BRANCH  29  31
HETATM   31  O   UNL     1      42.324 -18.631   4.272  1.00  0.00    -0.313 OA
BRANCH  31  32
HETATM   32  C   UNL     1      43.755 -18.743   4.331  1.00  0.00     0.217 C 
BRANCH  32  33
HETATM   33  C   UNL     1      44.193 -20.168   4.043  1.00  0.00    -0.034 A 
HETATM   34  C   UNL     1      44.566 -21.057   5.066  1.00  0.00     0.009 A 
HETATM   35  C   UNL     1      44.918 -22.378   4.780  1.00  0.00     0.001 A 
HETATM   36  C   UNL     1      44.863 -22.841   3.469  1.00  0.00     0.000 A 
HETATM   37  C   UNL     1      44.453 -21.986   2.449  1.00  0.00     0.001 A 
HETATM   38  C   UNL     1      44.131 -20.655   2.731  1.00  0.00     0.009 A 
ENDBRANCH  32  33
ENDBRANCH  31  32
ENDBRANCH  29  31
ENDBRANCH  10  29
TORSDOF 10
ENDMDL
MODEL 6
REMARK VINA RESULT:      -7.2      4.414      6.092
REMARK  10 active torsions:
REMARK  status: ('A' for Active; 'I' for Inactive)
REMARK    1  A    between atoms: C_6  and  C_7 
REMARK    2  A    between atoms: C_7  and  C_8 
REMARK       I    between atoms: C_8  and  N_9 
REMARK    3  A    between atoms: N_9  and  C_10 
REMARK    4  A    between atoms: C_10  and  C_11 
REMARK    5  A    between atoms: C_11  and  N_12 
REMARK    6  A    between atoms: C_17  and  C_18 
REMARK    7  A    between atoms: C_27  and  C_28 
REMARK    8  A    between atoms: C_28  and  O_29 
REMARK    9  A    between atoms: O_29  and  C_30 
REMARK   10  A    between atoms: C_30  and  C_31 
ROOT
HETATM    1  C   UNL     1      38.102 -14.632  -2.757  1.00  0.00     0.071 C 
HETATM    2  C   UNL     1      38.818 -13.728  -1.778  1.00  0.00     0.048 C 
HETATM    3  N   UNL     1      37.960 -12.858  -1.122  1.00  0.00    -0.229 NA
HETATM    4  C   UNL     1      38.385 -12.346  -0.019  1.00  0.00     0.170 C 
HETATM    5  N   UNL     1      39.870 -12.371   0.448  1.00  0.00    -0.318 N 
HETATM    6  C   UNL     1      39.999 -11.966   1.666  1.00  0.00     0.011 C 
HETATM    7  C   UNL     1      40.793 -12.710  -0.655  1.00  0.00     0.168 C 
HETATM    8  S   UNL     1      37.378 -11.568   1.153  1.00  0.00    -0.086 SA
HETATM    9  C   UNL     1      38.705 -11.695   2.398  1.00  0.00     0.135 C 
HETATM   10  C   UNL     1      40.123 -13.827  -1.428  1.00  0.00     0.069 C 
ENDROOT
BRANCH   6  11
HETATM   11  C   UNL     1      41.342 -11.769   2.298  1.00  0.00     0.156 C 
BRANCH  11  12
HETATM   12  C   UNL     1      42.033 -13.033   2.763  1.00  0.00     0.223 C 
HETATM   13  N   UNL     1      41.571 -13.502   3.968  1.00  0.00    -0.359 N 
HETATM   14  H   UNL     1      40.890 -12.932   4.466  1.00  0.00     0.162 HD
HETATM   15  O   UNL     1      42.935 -13.564   2.125  1.00  0.00    -0.273 OA
BRANCH  13  16
HETATM   16  C   UNL     1      42.225 -14.515   4.797  1.00  0.00     0.150 C 
BRANCH  16  17
HETATM   17  C   UNL     1      43.564 -14.135   5.457  1.00  0.00     0.253 C 
BRANCH  17  18
HETATM   18  N   UNL     1      43.617 -14.436   6.940  1.00  0.00    -0.077 N 
HETATM   19  H   UNL     1      42.721 -14.104   7.351  1.00  0.00     0.279 HD
HETATM   20  C   UNL     1      43.728 -15.899   7.273  1.00  0.00     0.269 C 
HETATM   21  C   UNL     1      44.722 -13.657   7.601  1.00  0.00     0.269 C 
ENDBRANCH  17  18
ENDBRANCH  16  17
ENDBRANCH  13  16
ENDBRANCH  11  12
ENDBRANCH   6  11
BRANCH   7  22
HETATM   22  C   UNL     1      41.146 -11.476  -1.524  1.00  0.00    -0.009 A 
HETATM   23  C   UNL     1      42.174 -11.526  -2.495  1.00  0.00     0.042 A 
HETATM   24 CL   UNL     1      43.151 -12.926  -2.746  1.00  0.00    -0.084 Cl
HETATM   25  C   UNL     1      42.477 -10.419  -3.299  1.00  0.00     0.024 A 
HETATM   26  C   UNL     1      41.788  -9.222  -3.143  1.00  0.00     0.002 A 
HETATM   27  C   UNL     1      40.797  -9.126  -2.177  1.00  0.00     0.001 A 
HETATM   28  C   UNL     1      40.481 -10.233  -1.380  1.00  0.00     0.011 A 
ENDBRANCH   7  22
BRANCH  10  29
HETATM   29  C   UNL     1      40.863 -15.129  -1.373  1.00  0.00     0.294 C 
HETATM   30  O   UNL     1      41.102 -15.769  -2.388  1.00  0.00    -0.259 OA
BRANCH  29  31
HETATM   31  O   UNL     1      41.496 -15.268  -0.191  1.00  0.00    -0.313 OA
BRANCH  31  32
HETATM   32  C   UNL     1      40.864 -16.100   0.794  1.00  0.00     0.217 C 
BRANCH  32  33
HETATM   33  C   UNL     1      41.892 -16.951   1.517  1.00  0.00    -0.034 A 
HETATM   34  C   UNL     1      43.167 -17.201   0.980  1.00  0.00     0.009 A 
HETATM   35  C   UNL     1      44.114 -17.947   1.687  1.00  0.00     0.001 A 
HETATM   36  C   UNL     1      43.812 -18.420   2.960  1.00  0.00     0.000 A 
HETATM   37  C   UNL     1      42.569 -18.144   3.525  1.00  0.00     0.001 A 
HETATM   38  C   UNL     1      41.611 -17.424   2.806  1.00  0.00     0.009 A 
ENDBRANCH  32  33
ENDBRANCH  31  32
ENDBRANCH  29  31
ENDBRANCH  10  29
TORSDOF 10
ENDMDL
MODEL 7
REMARK VINA RESULT:      -7.0      2.519      8.163
REMARK  10 active torsions:
REMARK  status: ('A' for Active; 'I' for Inactive)
REMARK    1  A    between atoms: C_6  and  C_7 
REMARK    2  A    between atoms: C_7  and  C_8 
REMARK       I    between atoms: C_8  and  N_9 
REMARK    3  A    between atoms: N_9  and  C_10 
REMARK    4  A    between atoms: C_10  and  C_11 
REMARK    5  A    between atoms: C_11  and  N_12 
REMARK    6  A    between atoms: C_17  and  C_18 
REMARK    7  A    between atoms: C_27  and  C_28 
REMARK    8  A    between atoms: C_28  and  O_29 
REMARK    9  A    between atoms: O_29  and  C_30 
REMARK   10  A    between atoms: C_30  and  C_31 
ROOT
HETATM    1  C   UNL     1      39.048 -12.457   6.470  1.00  0.00     0.071 C 
HETATM    2  C   UNL     1      40.006 -13.314   5.674  1.00  0.00     0.048 C 
HETATM    3  N   UNL     1      39.358 -14.201   4.827  1.00  0.00    -0.229 NA
HETATM    4  C   UNL     1      40.047 -14.676   3.847  1.00  0.00     0.170 C 
HETATM    5  N   UNL     1      41.596 -14.588   3.737  1.00  0.00    -0.318 N 
HETATM    6  C   UNL     1      42.019 -14.963   2.578  1.00  0.00     0.011 C 
HETATM    7  C   UNL     1      42.226 -14.238   5.027  1.00  0.00     0.168 C 
HETATM    8  S   UNL     1      39.368 -15.466   2.465  1.00  0.00    -0.086 SA
HETATM    9  C   UNL     1      40.941 -15.267   1.563  1.00  0.00     0.135 C 
HETATM   10  C   UNL     1      41.352 -13.161   5.636  1.00  0.00     0.069 C 
ENDROOT
BRANCH   6  11
HETATM   11  C   UNL     1      43.479 -15.100   2.271  1.00  0.00     0.156 C 
BRANCH  11  12
HETATM   12  C   UNL     1      43.980 -16.519   2.115  1.00  0.00     0.223 C 
HETATM   13  N   UNL     1      43.556 -17.365   3.111  1.00  0.00    -0.359 N 
HETATM   14  H   UNL     1      43.034 -16.958   3.884  1.00  0.00     0.162 HD
HETATM   15  O   UNL     1      44.714 -16.862   1.195  1.00  0.00    -0.273 OA
BRANCH  13  16
HETATM   16  C   UNL     1      44.099 -18.695   3.388  1.00  0.00     0.150 C 
BRANCH  16  17
HETATM   17  C   UNL     1      43.590 -19.863   2.521  1.00  0.00     0.253 C 
BRANCH  17  18
HETATM   18  N   UNL     1      44.011 -21.226   3.030  1.00  0.00    -0.077 N 
HETATM   19  H   UNL     1      43.146 -21.722   3.324  1.00  0.00     0.279 HD
HETATM   20  C   UNL     1      44.676 -22.095   1.997  1.00  0.00     0.269 C 
HETATM   21  C   UNL     1      44.881 -21.092   4.250  1.00  0.00     0.269 C 
ENDBRANCH  17  18
ENDBRANCH  16  17
ENDBRANCH  13  16
ENDBRANCH  11  12
ENDBRANCH   6  11
BRANCH   7  22
HETATM   22  C   UNL     1      42.417 -15.475   5.941  1.00  0.00    -0.009 A 
HETATM   23  C   UNL     1      43.489 -15.555   6.861  1.00  0.00     0.042 A 
HETATM   24 CL   UNL     1      44.693 -14.327   6.999  1.00  0.00    -0.084 Cl
HETATM   25  C   UNL     1      43.647 -16.662   7.707  1.00  0.00     0.024 A 
HETATM   26  C   UNL     1      42.765 -17.734   7.641  1.00  0.00     0.002 A 
HETATM   27  C   UNL     1      41.724 -17.705   6.726  1.00  0.00     0.001 A 
HETATM   28  C   UNL     1      41.551 -16.596   5.890  1.00  0.00     0.011 A 
ENDBRANCH   7  22
BRANCH  10  29
HETATM   29  C   UNL     1      42.032 -11.832   5.769  1.00  0.00     0.294 C 
HETATM   30  O   UNL     1      41.811 -10.922   4.982  1.00  0.00    -0.259 OA
BRANCH  29  31
HETATM   31  O   UNL     1      42.572 -11.695   6.996  1.00  0.00    -0.313 OA
BRANCH  31  32
HETATM   32  C   UNL     1      41.958 -10.740   7.877  1.00  0.00     0.217 C 
BRANCH  32  33
HETATM   33  C   UNL     1      42.749 -10.614   9.166  1.00  0.00    -0.034 A 
HETATM   34  C   UNL     1      42.272  -9.884  10.269  1.00  0.00     0.009 A 
HETATM   35  C   UNL     1      42.996  -9.824  11.462  1.00  0.00     0.001 A 
HETATM   36  C   UNL     1      44.191 -10.528  11.583  1.00  0.00     0.000 A 
HETATM   37  C   UNL     1      44.656 -11.291  10.515  1.00  0.00     0.001 A 
HETATM   38  C   UNL     1      43.947 -11.326   9.310  1.00  0.00     0.009 A 
ENDBRANCH  32  33
ENDBRANCH  31  32
ENDBRANCH  29  31
ENDBRANCH  10  29
TORSDOF 10
ENDMDL
MODEL 8
REMARK VINA RESULT:      -7.0      3.902      7.030
REMARK  10 active torsions:
REMARK  status: ('A' for Active; 'I' for Inactive)
REMARK    1  A    between atoms: C_6  and  C_7 
REMARK    2  A    between atoms: C_7  and  C_8 
REMARK       I    between atoms: C_8  and  N_9 
REMARK    3  A    between atoms: N_9  and  C_10 
REMARK    4  A    between atoms: C_10  and  C_11 
REMARK    5  A    between atoms: C_11  and  N_12 
REMARK    6  A    between atoms: C_17  and  C_18 
REMARK    7  A    between atoms: C_27  and  C_28 
REMARK    8  A    between atoms: C_28  and  O_29 
REMARK    9  A    between atoms: O_29  and  C_30 
REMARK   10  A    between atoms: C_30  and  C_31 
ROOT
HETATM    1  C   UNL     1      44.170 -13.972   5.222  1.00  0.00     0.071 C 
HETATM    2  C   UNL     1      43.040 -14.096   4.224  1.00  0.00     0.048 C 
HETATM    3  N   UNL     1      43.414 -14.766   3.069  1.00  0.00    -0.229 NA
HETATM    4  C   UNL     1      42.464 -15.264   2.354  1.00  0.00     0.170 C 
HETATM    5  N   UNL     1      40.960 -14.898   2.512  1.00  0.00    -0.318 N 
HETATM    6  C   UNL     1      40.199 -15.673   1.815  1.00  0.00     0.011 C 
HETATM    7  C   UNL     1      40.769 -13.664   3.301  1.00  0.00     0.168 C 
HETATM    8  S   UNL     1      42.689 -16.452   1.116  1.00  0.00    -0.086 SA
HETATM    9  C   UNL     1      40.903 -16.820   1.127  1.00  0.00     0.135 C 
HETATM   10  C   UNL     1      41.750 -13.752   4.452  1.00  0.00     0.069 C 
ENDROOT
BRANCH   6  11
HETATM   11  C   UNL     1      38.726 -15.437   1.692  1.00  0.00     0.156 C 
BRANCH  11  12
HETATM   12  C   UNL     1      38.325 -14.292   0.786  1.00  0.00     0.223 C 
HETATM   13  N   UNL     1      38.977 -14.292  -0.422  1.00  0.00    -0.359 N 
HETATM   14  H   UNL     1      39.709 -14.985  -0.563  1.00  0.00     0.162 HD
HETATM   15  O   UNL     1      37.511 -13.439   1.122  1.00  0.00    -0.273 OA
BRANCH  13  16
HETATM   16  C   UNL     1      39.017 -13.178  -1.370  1.00  0.00     0.150 C 
BRANCH  16  17
HETATM   17  C   UNL     1      38.195 -13.319  -2.666  1.00  0.00     0.253 C 
BRANCH  17  18
HETATM   18  N   UNL     1      38.935 -14.029  -3.780  1.00  0.00    -0.077 N 
HETATM   19  H   UNL     1      38.715 -13.524  -4.662  1.00  0.00     0.279 HD
HETATM   20  C   UNL     1      40.433 -14.016  -3.637  1.00  0.00     0.269 C 
HETATM   21  C   UNL     1      38.430 -15.438  -3.940  1.00  0.00     0.269 C 
ENDBRANCH  17  18
ENDBRANCH  16  17
ENDBRANCH  13  16
ENDBRANCH  11  12
ENDBRANCH   6  11
BRANCH   7  22
HETATM   22  C   UNL     1      40.932 -12.386   2.440  1.00  0.00    -0.009 A 
HETATM   23  C   UNL     1      40.167 -11.222   2.693  1.00  0.00     0.042 A 
HETATM   24 CL   UNL     1      38.961 -11.149   3.923  1.00  0.00    -0.084 Cl
HETATM   25  C   UNL     1      40.333 -10.057   1.931  1.00  0.00     0.024 A 
HETATM   26  C   UNL     1      41.240 -10.024   0.878  1.00  0.00     0.002 A 
HETATM   27  C   UNL     1      41.981 -11.157   0.580  1.00  0.00     0.001 A 
HETATM   28  C   UNL     1      41.831 -12.319   1.346  1.00  0.00     0.011 A 
ENDBRANCH   7  22
BRANCH  10  29
HETATM   29  C   UNL     1      41.098 -13.851   5.798  1.00  0.00     0.294 C 
HETATM   30  O   UNL     1      40.109 -13.187   6.077  1.00  0.00    -0.259 OA
BRANCH  29  31
HETATM   31  O   UNL     1      41.503 -14.963   6.442  1.00  0.00    -0.313 OA
BRANCH  31  32
HETATM   32  C   UNL     1      40.935 -16.211   6.014  1.00  0.00     0.217 C 
BRANCH  32  33
HETATM   33  C   UNL     1      42.026 -17.212   5.683  1.00  0.00    -0.034 A 
HETATM   34  C   UNL     1      42.000 -17.989   4.512  1.00  0.00     0.009 A 
HETATM   35  C   UNL     1      43.042 -18.868   4.207  1.00  0.00     0.001 A 
HETATM   36  C   UNL     1      44.146 -18.953   5.048  1.00  0.00     0.000 A 
HETATM   37  C   UNL     1      44.209 -18.158   6.190  1.00  0.00     0.001 A 
HETATM   38  C   UNL     1      43.152 -17.301   6.513  1.00  0.00     0.009 A 
ENDBRANCH  32  33
ENDBRANCH  31  32
ENDBRANCH  29  31
ENDBRANCH  10  29
TORSDOF 10
ENDMDL
MODEL 9
REMARK VINA RESULT:      -7.0      2.930      6.203
REMARK  10 active torsions:
REMARK  status: ('A' for Active; 'I' for Inactive)
REMARK    1  A    between atoms: C_6  and  C_7 
REMARK    2  A    between atoms: C_7  and  C_8 
REMARK       I    between atoms: C_8  and  N_9 
REMARK    3  A    between atoms: N_9  and  C_10 
REMARK    4  A    between atoms: C_10  and  C_11 
REMARK    5  A    between atoms: C_11  and  N_12 
REMARK    6  A    between atoms: C_17  and  C_18 
REMARK    7  A    between atoms: C_27  and  C_28 
REMARK    8  A    between atoms: C_28  and  O_29 
REMARK    9  A    between atoms: O_29  and  C_30 
REMARK   10  A    between atoms: C_30  and  C_31 
ROOT
HETATM    1  C   UNL     1      41.920 -17.816   7.291  1.00  0.00     0.071 C 
HETATM    2  C   UNL     1      41.859 -16.759   6.211  1.00  0.00     0.048 C 
HETATM    3  N   UNL     1      40.698 -16.002   6.263  1.00  0.00    -0.229 NA
HETATM    4  C   UNL     1      40.724 -14.858   5.670  1.00  0.00     0.170 C 
HETATM    5  N   UNL     1      41.816 -14.420   4.652  1.00  0.00    -0.318 N 
HETATM    6  C   UNL     1      41.723 -13.168   4.354  1.00  0.00     0.011 C 
HETATM    7  C   UNL     1      42.606 -15.566   4.157  1.00  0.00     0.168 C 
HETATM    8  S   UNL     1      39.568 -13.596   5.925  1.00  0.00    -0.086 SA
HETATM    9  C   UNL     1      40.691 -12.392   5.139  1.00  0.00     0.135 C 
HETATM   10  C   UNL     1      42.869 -16.441   5.366  1.00  0.00     0.069 C 
ENDROOT
BRANCH   6  11
HETATM   11  C   UNL     1      42.573 -12.540   3.293  1.00  0.00     0.156 C 
BRANCH  11  12
HETATM   12  C   UNL     1      41.857 -12.206   2.001  1.00  0.00     0.223 C 
HETATM   13  N   UNL     1      41.655 -13.293   1.188  1.00  0.00    -0.359 N 
HETATM   14  H   UNL     1      42.066 -14.179   1.474  1.00  0.00     0.162 HD
HETATM   15  O   UNL     1      41.518 -11.064   1.712  1.00  0.00    -0.273 OA
BRANCH  13  16
HETATM   16  C   UNL     1      41.261 -13.242  -0.221  1.00  0.00     0.150 C 
BRANCH  16  17
HETATM   17  C   UNL     1      41.516 -14.499  -1.074  1.00  0.00     0.253 C 
BRANCH  17  18
HETATM   18  N   UNL     1      41.965 -14.193  -2.488  1.00  0.00    -0.077 N 
HETATM   19  H   UNL     1      42.613 -14.954  -2.773  1.00  0.00     0.279 HD
HETATM   20  C   UNL     1      40.853 -14.170  -3.501  1.00  0.00     0.269 C 
HETATM   21  C   UNL     1      42.746 -12.907  -2.530  1.00  0.00     0.269 C 
ENDBRANCH  17  18
ENDBRANCH  16  17
ENDBRANCH  13  16
ENDBRANCH  11  12
ENDBRANCH   6  11
BRANCH   7  22
HETATM   22  C   UNL     1      41.899 -16.307   2.994  1.00  0.00    -0.009 A 
HETATM   23  C   UNL     1      42.635 -16.907   1.945  1.00  0.00     0.042 A 
HETATM   24 CL   UNL     1      44.354 -16.811   1.839  1.00  0.00    -0.084 Cl
HETATM   25  C   UNL     1      41.998 -17.600   0.906  1.00  0.00     0.024 A 
HETATM   26  C   UNL     1      40.612 -17.691   0.864  1.00  0.00     0.002 A 
HETATM   27  C   UNL     1      39.857 -17.085   1.857  1.00  0.00     0.001 A 
HETATM   28  C   UNL     1      40.488 -16.404   2.905  1.00  0.00     0.011 A 
ENDBRANCH   7  22
BRANCH  10  29
HETATM   29  C   UNL     1      44.317 -16.535   5.742  1.00  0.00     0.294 C 
HETATM   30  O   UNL     1      44.767 -15.921   6.700  1.00  0.00    -0.259 OA
BRANCH  29  31
HETATM   31  O   UNL     1      44.894 -17.600   5.152  1.00  0.00    -0.313 OA
BRANCH  31  32
HETATM   32  C   UNL     1      44.786 -18.862   5.831  1.00  0.00     0.217 C 
BRANCH  32  33
HETATM   33  C   UNL     1      44.700 -20.001   4.832  1.00  0.00    -0.034 A 
HETATM   34  C   UNL     1      44.838 -21.346   5.218  1.00  0.00     0.009 A 
HETATM   35  C   UNL     1      44.705 -22.380   4.288  1.00  0.00     0.001 A 
HETATM   36  C   UNL     1      44.392 -22.086   2.964  1.00  0.00     0.000 A 
HETATM   37  C   UNL     1      44.209 -20.761   2.575  1.00  0.00     0.001 A 
HETATM   38  C   UNL     1      44.372 -19.724   3.498  1.00  0.00     0.009 A 
ENDBRANCH  32  33
ENDBRANCH  31  32
ENDBRANCH  29  31
ENDBRANCH  10  29
TORSDOF 10
ENDMDL
MODEL 10
REMARK VINA RESULT:      -6.9      5.843      8.559
REMARK  10 active torsions:
REMARK  status: ('A' for Active; 'I' for Inactive)
REMARK    1  A    between atoms: C_6  and  C_7 
REMARK    2  A    between atoms: C_7  and  C_8 
REMARK       I    between atoms: C_8  and  N_9 
REMARK    3  A    between atoms: N_9  and  C_10 
REMARK    4  A    between atoms: C_10  and  C_11 
REMARK    5  A    between atoms: C_11  and  N_12 
REMARK    6  A    between atoms: C_17  and  C_18 
REMARK    7  A    between atoms: C_27  and  C_28 
REMARK    8  A    between atoms: C_28  and  O_29 
REMARK    9  A    between atoms: O_29  and  C_30 
REMARK   10  A    between atoms: C_30  and  C_31 
ROOT
HETATM    1  C   UNL     1      42.393 -12.829   2.889  1.00  0.00     0.071 C 
HETATM    2  C   UNL     1      41.723 -12.958   1.538  1.00  0.00     0.048 C 
HETATM    3  N   UNL     1      42.288 -12.132   0.577  1.00  0.00    -0.229 NA
HETATM    4  C   UNL     1      42.071 -12.444  -0.655  1.00  0.00     0.170 C 
HETATM    5  N   UNL     1      40.984 -13.451  -1.128  1.00  0.00    -0.318 N 
HETATM    6  C   UNL     1      41.100 -13.731  -2.382  1.00  0.00     0.011 C 
HETATM    7  C   UNL     1      39.991 -13.735  -0.072  1.00  0.00     0.168 C 
HETATM    8  S   UNL     1      42.970 -11.821  -1.995  1.00  0.00    -0.086 SA
HETATM    9  C   UNL     1      42.313 -13.144  -3.066  1.00  0.00     0.135 C 
HETATM   10  C   UNL     1      40.781 -13.875   1.213  1.00  0.00     0.069 C 
ENDROOT
BRANCH   6  11
HETATM   11  C   UNL     1      40.091 -14.569  -3.105  1.00  0.00     0.156 C 
BRANCH  11  12
HETATM   12  C   UNL     1      38.708 -13.965  -3.220  1.00  0.00     0.223 C 
HETATM   13  N   UNL     1      38.699 -12.714  -3.786  1.00  0.00    -0.359 N 
HETATM   14  H   UNL     1      39.598 -12.283  -3.991  1.00  0.00     0.162 HD
HETATM   15  O   UNL     1      37.702 -14.540  -2.820  1.00  0.00    -0.273 OA
BRANCH  13  16
HETATM   16  C   UNL     1      37.576 -11.776  -3.766  1.00  0.00     0.150 C 
BRANCH  16  17
HETATM   17  C   UNL     1      36.579 -11.838  -4.939  1.00  0.00     0.253 C 
BRANCH  17  18
HETATM   18  N   UNL     1      35.230 -12.413  -4.561  1.00  0.00    -0.077 N 
HETATM   19  H   UNL     1      35.176 -12.406  -3.523  1.00  0.00     0.279 HD
HETATM   20  C   UNL     1      34.055 -11.617  -5.059  1.00  0.00     0.269 C 
HETATM   21  C   UNL     1      35.122 -13.848  -5.000  1.00  0.00     0.269 C 
ENDBRANCH  17  18
ENDBRANCH  16  17
ENDBRANCH  13  16
ENDBRANCH  11  12
ENDBRANCH   6  11
BRANCH   7  22
HETATM   22  C   UNL     1      38.881 -12.655  -0.005  1.00  0.00    -0.009 A 
HETATM   23  C   UNL     1      37.584 -12.958   0.472  1.00  0.00     0.042 A 
HETATM   24 CL   UNL     1      37.115 -14.546   0.954  1.00  0.00    -0.084 Cl
HETATM   25  C   UNL     1      36.587 -11.976   0.557  1.00  0.00     0.024 A 
HETATM   26  C   UNL     1      36.840 -10.674   0.142  1.00  0.00     0.002 A 
HETATM   27  C   UNL     1      38.090 -10.350  -0.364  1.00  0.00     0.001 A 
HETATM   28  C   UNL     1      39.094 -11.322  -0.437  1.00  0.00     0.011 A 
ENDBRANCH   7  22
BRANCH  10  29
HETATM   29  C   UNL     1      40.733 -15.250   1.807  1.00  0.00     0.294 C 
HETATM   30  O   UNL     1      39.917 -15.544   2.669  1.00  0.00    -0.259 OA
BRANCH  29  31
HETATM   31  O   UNL     1      41.408 -16.125   1.035  1.00  0.00    -0.313 OA
BRANCH  31  32
HETATM   32  C   UNL     1      42.832 -16.188   1.211  1.00  0.00     0.217 C 
BRANCH  32  33
HETATM   33  C   UNL     1      43.216 -17.390   2.054  1.00  0.00    -0.034 A 
HETATM   34  C   UNL     1      43.422 -18.663   1.494  1.00  0.00     0.009 A 
HETATM   35  C   UNL     1      43.822 -19.742   2.285  1.00  0.00     0.001 A 
HETATM   36  C   UNL     1      44.062 -19.555   3.643  1.00  0.00     0.000 A 
HETATM   37  C   UNL     1      43.905 -18.291   4.206  1.00  0.00     0.001 A 
HETATM   38  C   UNL     1      43.474 -17.217   3.421  1.00  0.00     0.009 A 
ENDBRANCH  32  33
ENDBRANCH  31  32
ENDBRANCH  29  31
ENDBRANCH  10  29
TORSDOF 10
ENDMDL
