MODEL 1
REMARK VINA RESULT:      -7.7      0.000      0.000
REMARK  6 active torsions:
REMARK  status: ('A' for Active; 'I' for Inactive)
REMARK    1  A    between atoms: C_2  and  O_3 
REMARK    2  A    between atoms: O_3  and  C_4 
REMARK    3  A    between atoms: C_5  and  O_6 
REMARK    4  A    between atoms: C_9  and  C_10 
REMARK    5  A    between atoms: C_19  and  C_20 
REMARK    6  A    between atoms: C_22  and  O_23 
ROOT
HETATM    1  C   UNL     1      40.933 -15.819   0.996  1.00  0.00     0.156 A 
HETATM    2  N   UNL     1      40.774 -16.077  -0.447  1.00  0.00    -0.343 N 
HETATM    3  C   UNL     1      41.166 -15.023  -1.265  1.00  0.00     0.271 A 
HETATM    4  O   UNL     1      41.136 -14.977  -2.479  1.00  0.00    -0.266 OA
HETATM    5  C   UNL     1      41.615 -14.047  -0.347  1.00  0.00     0.128 A 
HETATM    6  C   UNL     1      41.515 -14.461   0.949  1.00  0.00     0.034 A 
HETATM    7  N   UNL     1      42.153 -12.819  -0.348  1.00  0.00    -0.272 N 
HETATM    8  H   UNL     1      42.375 -12.214  -1.133  1.00  0.00     0.189 HD
HETATM    9  N   UNL     1      42.426 -12.399   0.912  1.00  0.00    -0.173 NA
HETATM   10  C   UNL     1      42.029 -13.411   1.725  1.00  0.00     0.098 A 
HETATM   11  H   UNL     1      40.435 -16.944  -0.834  1.00  0.00     0.163 HD
ENDROOT
BRANCH   1  12
HETATM   12  C   UNL     1      41.905 -16.762   1.658  1.00  0.00    -0.028 A 
HETATM   13  C   UNL     1      43.017 -17.311   0.987  1.00  0.00     0.012 A 
HETATM   14  C   UNL     1      43.874 -18.211   1.627  1.00  0.00     0.040 A 
HETATM   15  C   UNL     1      43.624 -18.579   2.940  1.00  0.00     0.099 A 
HETATM   16  C   UNL     1      42.550 -18.024   3.632  1.00  0.00     0.102 A 
HETATM   17  C   UNL     1      41.681 -17.143   2.993  1.00  0.00     0.049 A 
BRANCH  15  18
HETATM   18  O   UNL     1      44.436 -19.508   3.523  1.00  0.00    -0.358 OA
HETATM   19  H   UNL     1      45.058 -19.791   2.828  1.00  0.00     0.218 HD
ENDBRANCH  15  18
BRANCH  16  20
HETATM   20  O   UNL     1      42.290 -18.380   4.928  1.00  0.00    -0.349 OA
BRANCH  20  21
HETATM   21  C   UNL     1      42.895 -17.448   5.838  1.00  0.00     0.171 C 
HETATM   22  C   UNL     1      41.789 -16.809   6.658  1.00  0.00     0.034 C 
ENDBRANCH  20  21
ENDBRANCH  16  20
ENDBRANCH   1  12
BRANCH  10  23
HETATM   23  C   UNL     1      42.189 -13.326   3.178  1.00  0.00    -0.002 A 
HETATM   24  C   UNL     1      43.351 -13.837   3.783  1.00  0.00     0.050 A 
HETATM   25  C   UNL     1      43.516 -13.787   5.167  1.00  0.00     0.069 A 
HETATM   26  C   UNL     1      42.513 -13.219   5.956  1.00  0.00     0.037 A 
HETATM   27  C   UNL     1      41.362 -12.696   5.370  1.00  0.00     0.004 A 
HETATM   28  C   UNL     1      41.201 -12.746   3.984  1.00  0.00     0.014 A 
BRANCH  25  29
HETATM   29  O   UNL     1      44.596 -14.256   5.865  1.00  0.00    -0.356 OA
HETATM   30  C   UNL     1      44.615 -13.996   7.264  1.00  0.00     0.210 C 
ENDBRANCH  25  29
ENDBRANCH  10  23
TORSDOF 6
ENDMDL
MODEL 2
REMARK VINA RESULT:      -7.6      2.789      6.016
REMARK  6 active torsions:
REMARK  status: ('A' for Active; 'I' for Inactive)
REMARK    1  A    between atoms: C_2  and  O_3 
REMARK    2  A    between atoms: O_3  and  C_4 
REMARK    3  A    between atoms: C_5  and  O_6 
REMARK    4  A    between atoms: C_9  and  C_10 
REMARK    5  A    between atoms: C_19  and  C_20 
REMARK    6  A    between atoms: C_22  and  O_23 
ROOT
HETATM    1  C   UNL     1      40.532 -16.018   4.278  1.00  0.00     0.156 A 
HETATM    2  N   UNL     1      39.900 -14.779   4.767  1.00  0.00    -0.343 N 
HETATM    3  C   UNL     1      40.660 -14.076   5.696  1.00  0.00     0.271 A 
HETATM    4  O   UNL     1      40.372 -13.034   6.252  1.00  0.00    -0.266 OA
HETATM    5  C   UNL     1      41.833 -14.853   5.814  1.00  0.00     0.128 A 
HETATM    6  C   UNL     1      41.811 -15.959   5.016  1.00  0.00     0.034 A 
HETATM    7  N   UNL     1      43.009 -14.832   6.458  1.00  0.00    -0.272 N 
HETATM    8  H   UNL     1      43.367 -14.153   7.123  1.00  0.00     0.189 HD
HETATM    9  N   UNL     1      43.783 -15.888   6.107  1.00  0.00    -0.173 NA
HETATM   10  C   UNL     1      43.046 -16.598   5.215  1.00  0.00     0.098 A 
HETATM   11  H   UNL     1      39.005 -14.436   4.453  1.00  0.00     0.163 HD
ENDROOT
BRANCH   1  12
HETATM   12  C   UNL     1      40.803 -15.994   2.796  1.00  0.00    -0.028 A 
HETATM   13  C   UNL     1      40.718 -17.142   1.982  1.00  0.00     0.012 A 
HETATM   14  C   UNL     1      41.013 -17.084   0.617  1.00  0.00     0.040 A 
HETATM   15  C   UNL     1      41.403 -15.879   0.052  1.00  0.00     0.099 A 
HETATM   16  C   UNL     1      41.463 -14.726   0.830  1.00  0.00     0.102 A 
HETATM   17  C   UNL     1      41.191 -14.782   2.195  1.00  0.00     0.049 A 
BRANCH  15  18
HETATM   18  O   UNL     1      41.748 -15.860  -1.268  1.00  0.00    -0.358 OA
HETATM   19  H   UNL     1      41.024 -15.395  -1.726  1.00  0.00     0.218 HD
ENDBRANCH  15  18
BRANCH  16  20
HETATM   20  O   UNL     1      41.850 -13.531   0.285  1.00  0.00    -0.349 OA
BRANCH  20  21
HETATM   21  C   UNL     1      42.072 -12.555   1.316  1.00  0.00     0.171 C 
HETATM   22  C   UNL     1      41.340 -11.285   0.924  1.00  0.00     0.034 C 
ENDBRANCH  20  21
ENDBRANCH  16  20
ENDBRANCH   1  12
BRANCH  10  23
HETATM   23  C   UNL     1      43.571 -17.813   4.591  1.00  0.00    -0.002 A 
HETATM   24  C   UNL     1      43.856 -18.938   5.385  1.00  0.00     0.050 A 
HETATM   25  C   UNL     1      44.378 -20.100   4.817  1.00  0.00     0.069 A 
HETATM   26  C   UNL     1      44.615 -20.142   3.441  1.00  0.00     0.037 A 
HETATM   27  C   UNL     1      44.326 -19.039   2.639  1.00  0.00     0.004 A 
HETATM   28  C   UNL     1      43.802 -17.879   3.211  1.00  0.00     0.014 A 
BRANCH  25  29
HETATM   29  O   UNL     1      44.698 -21.250   5.487  1.00  0.00    -0.356 OA
HETATM   30  C   UNL     1      44.848 -22.427   4.703  1.00  0.00     0.210 C 
ENDBRANCH  25  29
ENDBRANCH  10  23
TORSDOF 6
ENDMDL
MODEL 3
REMARK VINA RESULT:      -7.6      3.530      5.783
REMARK  6 active torsions:
REMARK  status: ('A' for Active; 'I' for Inactive)
REMARK    1  A    between atoms: C_2  and  O_3 
REMARK    2  A    between atoms: O_3  and  C_4 
REMARK    3  A    between atoms: C_5  and  O_6 
REMARK    4  A    between atoms: C_9  and  C_10 
REMARK    5  A    between atoms: C_19  and  C_20 
REMARK    6  A    between atoms: C_22  and  O_23 
ROOT
HETATM    1  C   UNL     1      44.822 -19.189   3.904  1.00  0.00     0.156 A 
HETATM    2  N   UNL     1      45.072 -20.626   3.689  1.00  0.00    -0.343 N 
HETATM    3  C   UNL     1      44.783 -21.429   4.787  1.00  0.00     0.271 A 
HETATM    4  O   UNL     1      44.902 -22.635   4.874  1.00  0.00    -0.266 OA
HETATM    5  C   UNL     1      44.311 -20.509   5.749  1.00  0.00     0.128 A 
HETATM    6  C   UNL     1      44.301 -19.226   5.286  1.00  0.00     0.034 A 
HETATM    7  N   UNL     1      43.826 -20.500   6.999  1.00  0.00    -0.272 N 
HETATM    8  H   UNL     1      43.684 -21.275   7.640  1.00  0.00     0.189 HD
HETATM    9  N   UNL     1      43.480 -19.248   7.386  1.00  0.00    -0.173 NA
HETATM   10  C   UNL     1      43.777 -18.447   6.331  1.00  0.00     0.098 A 
HETATM   11  H   UNL     1      45.402 -21.022   2.822  1.00  0.00     0.163 HD
ENDROOT
BRANCH   1  12
HETATM   12  C   UNL     1      43.767 -18.633   2.982  1.00  0.00    -0.028 A 
HETATM   13  C   UNL     1      42.876 -19.449   2.256  1.00  0.00     0.012 A 
HETATM   14  C   UNL     1      41.936 -18.894   1.383  1.00  0.00     0.040 A 
HETATM   15  C   UNL     1      41.883 -17.518   1.219  1.00  0.00     0.099 A 
HETATM   16  C   UNL     1      42.732 -16.691   1.950  1.00  0.00     0.102 A 
HETATM   17  C   UNL     1      43.685 -17.240   2.806  1.00  0.00     0.049 A 
BRANCH  15  18
HETATM   18  O   UNL     1      41.002 -17.003   0.314  1.00  0.00    -0.358 OA
HETATM   19  H   UNL     1      40.793 -16.104   0.626  1.00  0.00     0.218 HD
ENDBRANCH  15  18
BRANCH  16  20
HETATM   20  O   UNL     1      42.691 -15.331   1.796  1.00  0.00    -0.349 OA
BRANCH  20  21
HETATM   21  C   UNL     1      43.395 -14.681   2.866  1.00  0.00     0.171 C 
HETATM   22  C   UNL     1      42.808 -13.293   3.038  1.00  0.00     0.034 C 
ENDBRANCH  20  21
ENDBRANCH  16  20
ENDBRANCH   1  12
BRANCH  10  23
HETATM   23  C   UNL     1      43.517 -17.007   6.372  1.00  0.00    -0.002 A 
HETATM   24  C   UNL     1      44.552 -16.121   6.720  1.00  0.00     0.050 A 
HETATM   25  C   UNL     1      44.322 -14.747   6.787  1.00  0.00     0.069 A 
HETATM   26  C   UNL     1      43.048 -14.251   6.503  1.00  0.00     0.037 A 
HETATM   27  C   UNL     1      42.015 -15.116   6.145  1.00  0.00     0.004 A 
HETATM   28  C   UNL     1      42.249 -16.490   6.076  1.00  0.00     0.014 A 
BRANCH  25  29
HETATM   29  O   UNL     1      45.246 -13.793   7.118  1.00  0.00    -0.356 OA
HETATM   30  C   UNL     1      44.948 -12.977   8.245  1.00  0.00     0.210 C 
ENDBRANCH  25  29
ENDBRANCH  10  23
TORSDOF 6
ENDMDL
MODEL 4
REMARK VINA RESULT:      -7.5      1.005      1.689
REMARK  6 active torsions:
REMARK  status: ('A' for Active; 'I' for Inactive)
REMARK    1  A    between atoms: C_2  and  O_3 
REMARK    2  A    between atoms: O_3  and  C_4 
REMARK    3  A    between atoms: C_5  and  O_6 
REMARK    4  A    between atoms: C_9  and  C_10 
REMARK    5  A    between atoms: C_19  and  C_20 
REMARK    6  A    between atoms: C_22  and  O_23 
ROOT
HETATM    1  C   UNL     1      40.955 -15.796   1.054  1.00  0.00     0.156 A 
HETATM    2  N   UNL     1      40.723 -16.018  -0.385  1.00  0.00    -0.343 N 
HETATM    3  C   UNL     1      41.089 -14.949  -1.197  1.00  0.00     0.271 A 
HETATM    4  O   UNL     1      41.000 -14.874  -2.407  1.00  0.00    -0.266 OA
HETATM    5  C   UNL     1      41.595 -14.002  -0.280  1.00  0.00     0.128 A 
HETATM    6  C   UNL     1      41.553 -14.445   1.009  1.00  0.00     0.034 A 
HETATM    7  N   UNL     1      42.149 -12.781  -0.278  1.00  0.00    -0.272 N 
HETATM    8  H   UNL     1      42.341 -12.160  -1.059  1.00  0.00     0.189 HD
HETATM    9  N   UNL     1      42.489 -12.395   0.976  1.00  0.00    -0.173 NA
HETATM   10  C   UNL     1      42.118 -13.420   1.784  1.00  0.00     0.098 A 
HETATM   11  H   UNL     1      40.353 -16.871  -0.776  1.00  0.00     0.163 HD
ENDROOT
BRANCH   1  12
HETATM   12  C   UNL     1      41.945 -16.767   1.645  1.00  0.00    -0.028 A 
HETATM   13  C   UNL     1      43.035 -17.287   0.918  1.00  0.00     0.012 A 
HETATM   14  C   UNL     1      43.910 -18.215   1.492  1.00  0.00     0.040 A 
HETATM   15  C   UNL     1      43.699 -18.637   2.796  1.00  0.00     0.099 A 
HETATM   16  C   UNL     1      42.648 -18.112   3.544  1.00  0.00     0.102 A 
HETATM   17  C   UNL     1      41.761 -17.204   2.969  1.00  0.00     0.049 A 
BRANCH  15  18
HETATM   18  O   UNL     1      44.527 -19.590   3.314  1.00  0.00    -0.358 OA
HETATM   19  H   UNL     1      45.113 -19.860   2.583  1.00  0.00     0.218 HD
ENDBRANCH  15  18
BRANCH  16  20
HETATM   20  O   UNL     1      42.428 -18.522   4.831  1.00  0.00    -0.349 OA
BRANCH  20  21
HETATM   21  C   UNL     1      42.586 -17.425   5.744  1.00  0.00     0.171 C 
HETATM   22  C   UNL     1      44.010 -17.450   6.266  1.00  0.00     0.034 C 
ENDBRANCH  20  21
ENDBRANCH  16  20
ENDBRANCH   1  12
BRANCH  10  23
HETATM   23  C   UNL     1      42.350 -13.372   3.229  1.00  0.00    -0.002 A 
HETATM   24  C   UNL     1      41.434 -12.704   4.061  1.00  0.00     0.050 A 
HETATM   25  C   UNL     1      41.646 -12.627   5.438  1.00  0.00     0.069 A 
HETATM   26  C   UNL     1      42.782 -13.221   5.990  1.00  0.00     0.037 A 
HETATM   27  C   UNL     1      43.693 -13.897   5.180  1.00  0.00     0.004 A 
HETATM   28  C   UNL     1      43.476 -13.975   3.803  1.00  0.00     0.014 A 
BRANCH  25  29
HETATM   29  O   UNL     1      40.830 -12.002   6.342  1.00  0.00    -0.356 OA
HETATM   30  C   UNL     1      39.562 -12.602   6.579  1.00  0.00     0.210 C 
ENDBRANCH  25  29
ENDBRANCH  10  23
TORSDOF 6
ENDMDL
MODEL 5
REMARK VINA RESULT:      -7.5      3.302      5.632
REMARK  6 active torsions:
REMARK  status: ('A' for Active; 'I' for Inactive)
REMARK    1  A    between atoms: C_2  and  O_3 
REMARK    2  A    between atoms: O_3  and  C_4 
REMARK    3  A    between atoms: C_5  and  O_6 
REMARK    4  A    between atoms: C_9  and  C_10 
REMARK    5  A    between atoms: C_19  and  C_20 
REMARK    6  A    between atoms: C_22  and  O_23 
ROOT
HETATM    1  C   UNL     1      44.278 -18.977   2.752  1.00  0.00     0.156 A 
HETATM    2  N   UNL     1      44.423 -20.100   1.809  1.00  0.00    -0.343 N 
HETATM    3  C   UNL     1      44.575 -21.342   2.416  1.00  0.00     0.271 A 
HETATM    4  O   UNL     1      44.714 -22.420   1.872  1.00  0.00    -0.266 OA
HETATM    5  C   UNL     1      44.509 -21.042   3.794  1.00  0.00     0.128 A 
HETATM    6  C   UNL     1      44.327 -19.712   4.033  1.00  0.00     0.034 A 
HETATM    7  N   UNL     1      44.539 -21.673   4.977  1.00  0.00    -0.272 N 
HETATM    8  H   UNL     1      44.652 -22.663   5.176  1.00  0.00     0.189 HD
HETATM    9  N   UNL     1      44.372 -20.804   6.004  1.00  0.00    -0.173 NA
HETATM   10  C   UNL     1      44.245 -19.582   5.429  1.00  0.00     0.098 A 
HETATM   11  H   UNL     1      44.395 -20.006   0.805  1.00  0.00     0.163 HD
ENDROOT
BRANCH   1  12
HETATM   12  C   UNL     1      42.953 -18.271   2.625  1.00  0.00    -0.028 A 
HETATM   13  C   UNL     1      42.103 -18.431   1.512  1.00  0.00     0.012 A 
HETATM   14  C   UNL     1      40.898 -17.729   1.415  1.00  0.00     0.040 A 
HETATM   15  C   UNL     1      40.534 -16.853   2.427  1.00  0.00     0.099 A 
HETATM   16  C   UNL     1      41.342 -16.703   3.551  1.00  0.00     0.102 A 
HETATM   17  C   UNL     1      42.554 -17.385   3.642  1.00  0.00     0.049 A 
BRANCH  15  18
HETATM   18  O   UNL     1      39.385 -16.131   2.281  1.00  0.00    -0.358 OA
HETATM   19  H   UNL     1      39.393 -15.470   2.998  1.00  0.00     0.218 HD
ENDBRANCH  15  18
BRANCH  16  20
HETATM   20  O   UNL     1      40.995 -15.840   4.555  1.00  0.00    -0.349 OA
BRANCH  20  21
HETATM   21  C   UNL     1      41.810 -14.659   4.509  1.00  0.00     0.171 C 
HETATM   22  C   UNL     1      41.474 -13.809   5.720  1.00  0.00     0.034 C 
ENDBRANCH  20  21
ENDBRANCH  16  20
ENDBRANCH   1  12
BRANCH  10  23
HETATM   23  C   UNL     1      44.025 -18.381   6.236  1.00  0.00    -0.002 A 
HETATM   24  C   UNL     1      44.684 -17.185   5.901  1.00  0.00     0.050 A 
HETATM   25  C   UNL     1      44.506 -16.033   6.669  1.00  0.00     0.069 A 
HETATM   26  C   UNL     1      43.662 -16.075   7.780  1.00  0.00     0.037 A 
HETATM   27  C   UNL     1      42.992 -17.250   8.117  1.00  0.00     0.004 A 
HETATM   28  C   UNL     1      43.169 -18.399   7.345  1.00  0.00     0.014 A 
BRANCH  25  29
HETATM   29  O   UNL     1      45.097 -14.819   6.444  1.00  0.00    -0.356 OA
HETATM   30  C   UNL     1      44.851 -13.801   7.407  1.00  0.00     0.210 C 
ENDBRANCH  25  29
ENDBRANCH  10  23
TORSDOF 6
ENDMDL
MODEL 6
REMARK VINA RESULT:      -7.4      1.459      4.678
REMARK  6 active torsions:
REMARK  status: ('A' for Active; 'I' for Inactive)
REMARK    1  A    between atoms: C_2  and  O_3 
REMARK    2  A    between atoms: O_3  and  C_4 
REMARK    3  A    between atoms: C_5  and  O_6 
REMARK    4  A    between atoms: C_9  and  C_10 
REMARK    5  A    between atoms: C_19  and  C_20 
REMARK    6  A    between atoms: C_22  and  O_23 
ROOT
HETATM    1  C   UNL     1      42.172 -13.393   1.459  1.00  0.00     0.156 A 
HETATM    2  N   UNL     1      41.542 -12.303   0.693  1.00  0.00    -0.343 N 
HETATM    3  C   UNL     1      40.870 -12.721  -0.451  1.00  0.00     0.271 A 
HETATM    4  O   UNL     1      40.272 -12.031  -1.253  1.00  0.00    -0.266 OA
HETATM    5  C   UNL     1      41.040 -14.123  -0.436  1.00  0.00     0.128 A 
HETATM    6  C   UNL     1      41.761 -14.552   0.640  1.00  0.00     0.034 A 
HETATM    7  N   UNL     1      40.680 -15.201  -1.148  1.00  0.00    -0.272 N 
HETATM    8  H   UNL     1      40.134 -15.256  -2.002  1.00  0.00     0.189 HD
HETATM    9  N   UNL     1      41.132 -16.344  -0.575  1.00  0.00    -0.173 NA
HETATM   10  C   UNL     1      41.809 -15.951   0.534  1.00  0.00     0.098 A 
HETATM   11  H   UNL     1      41.561 -11.332   0.965  1.00  0.00     0.163 HD
ENDROOT
BRANCH   1  12
HETATM   12  C   UNL     1      41.610 -13.534   2.851  1.00  0.00    -0.028 A 
HETATM   13  C   UNL     1      40.254 -13.827   3.103  1.00  0.00     0.012 A 
HETATM   14  C   UNL     1      39.764 -13.912   4.409  1.00  0.00     0.040 A 
HETATM   15  C   UNL     1      40.623 -13.699   5.477  1.00  0.00     0.099 A 
HETATM   16  C   UNL     1      41.972 -13.441   5.252  1.00  0.00     0.102 A 
HETATM   17  C   UNL     1      42.461 -13.333   3.952  1.00  0.00     0.049 A 
BRANCH  15  18
HETATM   18  O   UNL     1      40.109 -13.724   6.741  1.00  0.00    -0.358 OA
HETATM   19  H   UNL     1      39.191 -13.407   6.662  1.00  0.00     0.218 HD
ENDBRANCH  15  18
BRANCH  16  20
HETATM   20  O   UNL     1      42.830 -13.226   6.297  1.00  0.00    -0.349 OA
BRANCH  20  21
HETATM   21  C   UNL     1      43.845 -14.241   6.335  1.00  0.00     0.171 C 
HETATM   22  C   UNL     1      44.899 -13.814   7.338  1.00  0.00     0.034 C 
ENDBRANCH  20  21
ENDBRANCH  16  20
ENDBRANCH   1  12
BRANCH  10  23
HETATM   23  C   UNL     1      42.430 -16.927   1.431  1.00  0.00    -0.002 A 
HETATM   24  C   UNL     1      41.876 -17.156   2.703  1.00  0.00     0.050 A 
HETATM   25  C   UNL     1      42.463 -18.066   3.584  1.00  0.00     0.069 A 
HETATM   26  C   UNL     1      43.612 -18.754   3.191  1.00  0.00     0.037 A 
HETATM   27  C   UNL     1      44.166 -18.547   1.928  1.00  0.00     0.004 A 
HETATM   28  C   UNL     1      43.574 -17.639   1.049  1.00  0.00     0.014 A 
BRANCH  25  29
HETATM   29  O   UNL     1      42.019 -18.366   4.843  1.00  0.00    -0.356 OA
HETATM   30  C   UNL     1      41.343 -17.330   5.547  1.00  0.00     0.210 C 
ENDBRANCH  25  29
ENDBRANCH  10  23
TORSDOF 6
ENDMDL
MODEL 7
REMARK VINA RESULT:      -7.3      2.524      6.010
REMARK  6 active torsions:
REMARK  status: ('A' for Active; 'I' for Inactive)
REMARK    1  A    between atoms: C_2  and  O_3 
REMARK    2  A    between atoms: O_3  and  C_4 
REMARK    3  A    between atoms: C_5  and  O_6 
REMARK    4  A    between atoms: C_9  and  C_10 
REMARK    5  A    between atoms: C_19  and  C_20 
REMARK    6  A    between atoms: C_22  and  O_23 
ROOT
HETATM    1  C   UNL     1      42.688 -18.464   5.167  1.00  0.00     0.156 A 
HETATM    2  N   UNL     1      43.586 -19.471   5.762  1.00  0.00    -0.343 N 
HETATM    3  C   UNL     1      44.379 -20.148   4.842  1.00  0.00     0.271 A 
HETATM    4  O   UNL     1      45.195 -21.020   5.067  1.00  0.00    -0.266 OA
HETATM    5  C   UNL     1      44.015 -19.566   3.607  1.00  0.00     0.128 A 
HETATM    6  C   UNL     1      43.068 -18.594   3.745  1.00  0.00     0.034 A 
HETATM    7  N   UNL     1      44.337 -19.647   2.308  1.00  0.00    -0.272 N 
HETATM    8  H   UNL     1      45.009 -20.255   1.848  1.00  0.00     0.189 HD
HETATM    9  N   UNL     1      43.640 -18.749   1.570  1.00  0.00    -0.173 NA
HETATM   10  C   UNL     1      42.844 -18.093   2.452  1.00  0.00     0.098 A 
HETATM   11  H   UNL     1      43.656 -19.655   6.751  1.00  0.00     0.163 HD
ENDROOT
BRANCH   1  12
HETATM   12  C   UNL     1      42.980 -17.064   5.642  1.00  0.00    -0.028 A 
HETATM   13  C   UNL     1      44.197 -16.700   6.253  1.00  0.00     0.012 A 
HETATM   14  C   UNL     1      44.413 -15.397   6.713  1.00  0.00     0.040 A 
HETATM   15  C   UNL     1      43.412 -14.448   6.574  1.00  0.00     0.099 A 
HETATM   16  C   UNL     1      42.215 -14.776   5.944  1.00  0.00     0.102 A 
HETATM   17  C   UNL     1      41.986 -16.079   5.503  1.00  0.00     0.049 A 
BRANCH  15  18
HETATM   18  O   UNL     1      43.621 -13.201   7.087  1.00  0.00    -0.358 OA
HETATM   19  H   UNL     1      44.223 -12.753   6.465  1.00  0.00     0.218 HD
ENDBRANCH  15  18
BRANCH  16  20
HETATM   20  O   UNL     1      41.217 -13.849   5.803  1.00  0.00    -0.349 OA
BRANCH  20  21
HETATM   21  C   UNL     1      40.945 -13.608   4.414  1.00  0.00     0.171 C 
HETATM   22  C   UNL     1      42.049 -12.723   3.867  1.00  0.00     0.034 C 
ENDBRANCH  20  21
ENDBRANCH  16  20
ENDBRANCH   1  12
BRANCH  10  23
HETATM   23  C   UNL     1      41.950 -17.019   2.017  1.00  0.00    -0.002 A 
HETATM   24  C   UNL     1      42.462 -15.946   1.266  1.00  0.00     0.050 A 
HETATM   25  C   UNL     1      41.633 -14.901   0.859  1.00  0.00     0.069 A 
HETATM   26  C   UNL     1      40.280 -14.926   1.203  1.00  0.00     0.037 A 
HETATM   27  C   UNL     1      39.755 -15.990   1.936  1.00  0.00     0.004 A 
HETATM   28  C   UNL     1      40.587 -17.035   2.339  1.00  0.00     0.014 A 
BRANCH  25  29
HETATM   29  O   UNL     1      42.018 -13.806   0.133  1.00  0.00    -0.356 OA
HETATM   30  C   UNL     1      41.373 -13.611  -1.120  1.00  0.00     0.210 C 
ENDBRANCH  25  29
ENDBRANCH  10  23
TORSDOF 6
ENDMDL
MODEL 8
REMARK VINA RESULT:      -7.3      1.540      2.156
REMARK  6 active torsions:
REMARK  status: ('A' for Active; 'I' for Inactive)
REMARK    1  A    between atoms: C_2  and  O_3 
REMARK    2  A    between atoms: O_3  and  C_4 
REMARK    3  A    between atoms: C_5  and  O_6 
REMARK    4  A    between atoms: C_9  and  C_10 
REMARK    5  A    between atoms: C_19  and  C_20 
REMARK    6  A    between atoms: C_22  and  O_23 
ROOT
HETATM    1  C   UNL     1      40.996 -16.477   2.690  1.00  0.00     0.156 A 
HETATM    2  N   UNL     1      40.360 -16.363   1.365  1.00  0.00    -0.343 N 
HETATM    3  C   UNL     1      40.462 -15.103   0.786  1.00  0.00     0.271 A 
HETATM    4  O   UNL     1      40.026 -14.745  -0.291  1.00  0.00    -0.266 OA
HETATM    5  C   UNL     1      41.201 -14.366   1.737  1.00  0.00     0.128 A 
HETATM    6  C   UNL     1      41.539 -15.110   2.829  1.00  0.00     0.034 A 
HETATM    7  N   UNL     1      41.717 -13.139   1.898  1.00  0.00    -0.272 N 
HETATM    8  H   UNL     1      41.668 -12.333   1.281  1.00  0.00     0.189 HD
HETATM    9  N   UNL     1      42.402 -13.040   3.064  1.00  0.00    -0.173 NA
HETATM   10  C   UNL     1      42.292 -14.258   3.653  1.00  0.00     0.098 A 
HETATM   11  H   UNL     1      39.903 -17.125   0.887  1.00  0.00     0.163 HD
ENDROOT
BRANCH   1  12
HETATM   12  C   UNL     1      42.127 -17.474   2.714  1.00  0.00    -0.028 A 
HETATM   13  C   UNL     1      42.920 -17.760   1.585  1.00  0.00     0.012 A 
HETATM   14  C   UNL     1      43.936 -18.720   1.640  1.00  0.00     0.040 A 
HETATM   15  C   UNL     1      44.163 -19.408   2.822  1.00  0.00     0.099 A 
HETATM   16  C   UNL     1      43.414 -19.118   3.959  1.00  0.00     0.102 A 
HETATM   17  C   UNL     1      42.386 -18.178   3.904  1.00  0.00     0.049 A 
BRANCH  15  18
HETATM   18  O   UNL     1      45.116 -20.384   2.835  1.00  0.00    -0.358 OA
HETATM   19  H   UNL     1      44.822 -21.052   2.188  1.00  0.00     0.218 HD
ENDBRANCH  15  18
BRANCH  16  20
HETATM   20  O   UNL     1      43.626 -19.792   5.132  1.00  0.00    -0.349 OA
BRANCH  20  21
HETATM   21  C   UNL     1      44.458 -19.021   6.013  1.00  0.00     0.171 C 
HETATM   22  C   UNL     1      43.960 -19.229   7.430  1.00  0.00     0.034 C 
ENDBRANCH  20  21
ENDBRANCH  16  20
ENDBRANCH   1  12
BRANCH  10  23
HETATM   23  C   UNL     1      42.932 -14.541   4.939  1.00  0.00    -0.002 A 
HETATM   24  C   UNL     1      44.066 -13.808   5.330  1.00  0.00     0.050 A 
HETATM   25  C   UNL     1      44.706 -14.074   6.541  1.00  0.00     0.069 A 
HETATM   26  C   UNL     1      44.208 -15.081   7.371  1.00  0.00     0.037 A 
HETATM   27  C   UNL     1      43.077 -15.808   7.002  1.00  0.00     0.004 A 
HETATM   28  C   UNL     1      42.438 -15.537   5.791  1.00  0.00     0.014 A 
BRANCH  25  29
HETATM   29  O   UNL     1      45.815 -13.433   7.023  1.00  0.00    -0.356 OA
HETATM   30  C   UNL     1      45.673 -12.755   8.266  1.00  0.00     0.210 C 
ENDBRANCH  25  29
ENDBRANCH  10  23
TORSDOF 6
ENDMDL
MODEL 9
REMARK VINA RESULT:      -7.1      2.172      5.842
REMARK  6 active torsions:
REMARK  status: ('A' for Active; 'I' for Inactive)
REMARK    1  A    between atoms: C_2  and  O_3 
REMARK    2  A    between atoms: O_3  and  C_4 
REMARK    3  A    between atoms: C_5  and  O_6 
REMARK    4  A    between atoms: C_9  and  C_10 
REMARK    5  A    between atoms: C_19  and  C_20 
REMARK    6  A    between atoms: C_22  and  O_23 
ROOT
HETATM    1  C   UNL     1      41.890 -17.659   4.531  1.00  0.00     0.156 A 
HETATM    2  N   UNL     1      42.892 -18.533   5.167  1.00  0.00    -0.343 N 
HETATM    3  C   UNL     1      43.869 -19.012   4.300  1.00  0.00     0.271 A 
HETATM    4  O   UNL     1      44.801 -19.745   4.567  1.00  0.00    -0.266 OA
HETATM    5  C   UNL     1      43.522 -18.427   3.063  1.00  0.00     0.128 A 
HETATM    6  C   UNL     1      42.412 -17.638   3.149  1.00  0.00     0.034 A 
HETATM    7  N   UNL     1      43.968 -18.375   1.799  1.00  0.00    -0.272 N 
HETATM    8  H   UNL     1      44.773 -18.832   1.381  1.00  0.00     0.189 HD
HETATM    9  N   UNL     1      43.194 -17.565   1.035  1.00  0.00    -0.173 NA
HETATM   10  C   UNL     1      42.221 -17.106   1.863  1.00  0.00     0.098 A 
HETATM   11  H   UNL     1      42.904 -18.762   6.150  1.00  0.00     0.163 HD
ENDROOT
BRANCH   1  12
HETATM   12  C   UNL     1      41.890 -16.260   5.092  1.00  0.00    -0.028 A 
HETATM   13  C   UNL     1      40.712 -15.587   5.473  1.00  0.00     0.012 A 
HETATM   14  C   UNL     1      40.752 -14.276   5.955  1.00  0.00     0.040 A 
HETATM   15  C   UNL     1      41.971 -13.620   6.053  1.00  0.00     0.099 A 
HETATM   16  C   UNL     1      43.150 -14.276   5.712  1.00  0.00     0.102 A 
HETATM   17  C   UNL     1      43.114 -15.576   5.211  1.00  0.00     0.049 A 
BRANCH  15  18
HETATM   18  O   UNL     1      41.979 -12.319   6.464  1.00  0.00    -0.358 OA
HETATM   19  H   UNL     1      42.646 -11.870   5.913  1.00  0.00     0.218 HD
ENDBRANCH  15  18
BRANCH  16  20
HETATM   20  O   UNL     1      44.359 -13.640   5.802  1.00  0.00    -0.349 OA
BRANCH  20  21
HETATM   21  C   UNL     1      45.108 -14.135   6.923  1.00  0.00     0.171 C 
HETATM   22  C   UNL     1      45.123 -13.056   7.989  1.00  0.00     0.034 C 
ENDBRANCH  20  21
ENDBRANCH  16  20
ENDBRANCH   1  12
BRANCH  10  23
HETATM   23  C   UNL     1      41.197 -16.175   1.389  1.00  0.00    -0.002 A 
HETATM   24  C   UNL     1      41.432 -15.405   0.236  1.00  0.00     0.050 A 
HETATM   25  C   UNL     1      40.479 -14.495  -0.222  1.00  0.00     0.069 A 
HETATM   26  C   UNL     1      39.279 -14.352   0.476  1.00  0.00     0.037 A 
HETATM   27  C   UNL     1      39.025 -15.116   1.614  1.00  0.00     0.004 A 
HETATM   28  C   UNL     1      39.980 -16.028   2.068  1.00  0.00     0.014 A 
BRANCH  25  29
HETATM   29  O   UNL     1      40.600 -13.692  -1.324  1.00  0.00    -0.356 OA
HETATM   30  C   UNL     1      41.286 -12.459  -1.145  1.00  0.00     0.210 C 
ENDBRANCH  25  29
ENDBRANCH  10  23
TORSDOF 6
ENDMDL
MODEL 10
REMARK VINA RESULT:      -7.1      2.805      5.536
REMARK  6 active torsions:
REMARK  status: ('A' for Active; 'I' for Inactive)
REMARK    1  A    between atoms: C_2  and  O_3 
REMARK    2  A    between atoms: O_3  and  C_4 
REMARK    3  A    between atoms: C_5  and  O_6 
REMARK    4  A    between atoms: C_9  and  C_10 
REMARK    5  A    between atoms: C_19  and  C_20 
REMARK    6  A    between atoms: C_22  and  O_23 
ROOT
HETATM    1  C   UNL     1      43.903 -17.719   2.426  1.00  0.00     0.156 A 
HETATM    2  N   UNL     1      43.980 -19.047   1.791  1.00  0.00    -0.343 N 
HETATM    3  C   UNL     1      44.066 -20.107   2.688  1.00  0.00     0.271 A 
HETATM    4  O   UNL     1      44.142 -21.292   2.429  1.00  0.00    -0.266 OA
HETATM    5  C   UNL     1      44.026 -19.471   3.949  1.00  0.00     0.128 A 
HETATM    6  C   UNL     1      43.918 -18.115   3.849  1.00  0.00     0.034 A 
HETATM    7  N   UNL     1      44.028 -19.791   5.251  1.00  0.00    -0.272 N 
HETATM    8  H   UNL     1      44.087 -20.704   5.690  1.00  0.00     0.189 HD
HETATM    9  N   UNL     1      43.915 -18.687   6.030  1.00  0.00    -0.173 NA
HETATM   10  C   UNL     1      43.852 -17.640   5.169  1.00  0.00     0.098 A 
HETATM   11  H   UNL     1      43.951 -19.203   0.795  1.00  0.00     0.163 HD
ENDROOT
BRANCH   1  12
HETATM   12  C   UNL     1      42.618 -16.994   2.117  1.00  0.00    -0.028 A 
HETATM   13  C   UNL     1      41.347 -17.529   2.412  1.00  0.00     0.012 A 
HETATM   14  C   UNL     1      40.178 -16.841   2.076  1.00  0.00     0.040 A 
HETATM   15  C   UNL     1      40.266 -15.614   1.434  1.00  0.00     0.099 A 
HETATM   16  C   UNL     1      41.511 -15.052   1.162  1.00  0.00     0.102 A 
HETATM   17  C   UNL     1      42.679 -15.744   1.476  1.00  0.00     0.049 A 
BRANCH  15  18
HETATM   18  O   UNL     1      39.112 -14.991   1.058  1.00  0.00    -0.358 OA
HETATM   19  H   UNL     1      39.274 -14.652   0.159  1.00  0.00     0.218 HD
ENDBRANCH  15  18
BRANCH  16  20
HETATM   20  O   UNL     1      41.612 -13.844   0.527  1.00  0.00    -0.349 OA
BRANCH  20  21
HETATM   21  C   UNL     1      41.697 -14.027  -0.895  1.00  0.00     0.171 C 
HETATM   22  C   UNL     1      42.206 -12.735  -1.505  1.00  0.00     0.034 C 
ENDBRANCH  20  21
ENDBRANCH  16  20
ENDBRANCH   1  12
BRANCH  10  23
HETATM   23  C   UNL     1      43.704 -16.266   5.652  1.00  0.00    -0.002 A 
HETATM   24  C   UNL     1      42.699 -15.442   5.114  1.00  0.00     0.050 A 
HETATM   25  C   UNL     1      42.553 -14.122   5.543  1.00  0.00     0.069 A 
HETATM   26  C   UNL     1      43.416 -13.621   6.519  1.00  0.00     0.037 A 
HETATM   27  C   UNL     1      44.409 -14.429   7.070  1.00  0.00     0.004 A 
HETATM   28  C   UNL     1      44.551 -15.749   6.641  1.00  0.00     0.014 A 
BRANCH  25  29
HETATM   29  O   UNL     1      41.619 -13.229   5.091  1.00  0.00    -0.356 OA
HETATM   30  C   UNL     1      41.915 -12.558   3.872  1.00  0.00     0.210 C 
ENDBRANCH  25  29
ENDBRANCH  10  23
TORSDOF 6
ENDMDL
