MODEL 1
REMARK VINA RESULT:      -9.1      0.000      0.000
REMARK  2 active torsions:
REMARK  status: ('A' for Active; 'I' for Inactive)
REMARK       I    between atoms: N_4  and  C_5 
REMARK       I    between atoms: C_5  and  N_6 
REMARK    1  A    between atoms: N_6  and  C_7 
REMARK    2  A    between atoms: C_20  and  C_21 
ROOT
HETATM    1  C   UNL     1      38.614 -12.034   1.632  1.00  0.00     0.011 C 
HETATM    2  C   UNL     1      38.099 -13.304   0.962  1.00  0.00     0.002 C 
HETATM    3  C   UNL     1      38.774 -14.560   1.502  1.00  0.00     0.132 C 
HETATM    4  N   UNL     1      39.879 -14.837   0.596  1.00  0.00    -0.325 N 
HETATM    5  C   UNL     1      40.845 -15.814   0.744  1.00  0.00     0.323 C 
HETATM    6  N   UNL     1      40.744 -16.542   1.908  1.00  0.00    -0.309 N 
HETATM    7  O   UNL     1      41.724 -15.986  -0.097  1.00  0.00    -0.247 OA
HETATM    8  C   UNL     1      39.772 -14.068  -0.647  1.00  0.00     0.125 C 
HETATM    9  C   UNL     1      38.406 -13.367  -0.538  1.00  0.00     0.036 C 
HETATM   10  H   UNL     1      39.810 -16.675   2.261  1.00  0.00     0.170 HD
ENDROOT
BRANCH   6  11
HETATM   11  C   UNL     1      41.757 -17.340   2.477  1.00  0.00     0.038 A 
HETATM   12  C   UNL     1      42.060 -18.622   2.007  1.00  0.00     0.062 A 
HETATM   13  C   UNL     1      43.118 -19.341   2.568  1.00  0.00     0.070 A 
HETATM   14  C   UNL     1      43.871 -18.796   3.607  1.00  0.00     0.096 A 
HETATM   15  N   UNL     1      43.446 -20.590   2.044  1.00  0.00    -0.323 N 
HETATM   16  O   UNL     1      44.937 -19.425   4.186  1.00  0.00    -0.335 OA
HETATM   17  C   UNL     1      43.577 -17.517   4.074  1.00  0.00     0.041 A 
HETATM   18  C   UNL     1      45.085 -20.804   3.857  1.00  0.00     0.217 C 
HETATM   19  C   UNL     1      44.467 -21.338   2.556  1.00  0.00     0.251 C 
HETATM   20  C   UNL     1      44.555 -21.630   5.026  1.00  0.00     0.050 C 
HETATM   21  O   UNL     1      44.802 -22.402   2.039  1.00  0.00    -0.270 OA
HETATM   22  C   UNL     1      42.528 -16.787   3.505  1.00  0.00     0.032 A 
HETATM   23  H   UNL     1      42.967 -20.956   1.231  1.00  0.00     0.169 HD
ENDBRANCH   6  11
BRANCH   8  24
HETATM   24  C   UNL     1      40.901 -13.096  -0.927  1.00  0.00     0.003 A 
HETATM   25  C   UNL     1      41.449 -13.069  -2.217  1.00  0.00     0.124 A 
HETATM   26  F   UNL     1      40.947 -13.872  -3.168  1.00  0.00    -0.205 F 
HETATM   27  C   UNL     1      42.508 -12.227  -2.550  1.00  0.00     0.043 A 
HETATM   28  C   UNL     1      43.046 -11.384  -1.583  1.00  0.00     0.003 A 
HETATM   29  C   UNL     1      42.519 -11.388  -0.293  1.00  0.00     0.001 A 
HETATM   30  C   UNL     1      41.455 -12.236   0.033  1.00  0.00     0.012 A 
ENDBRANCH   8  24
TORSDOF 2
ENDMDL
MODEL 2
REMARK VINA RESULT:      -8.8      2.535      4.109
REMARK  2 active torsions:
REMARK  status: ('A' for Active; 'I' for Inactive)
REMARK       I    between atoms: N_4  and  C_5 
REMARK       I    between atoms: C_5  and  N_6 
REMARK    1  A    between atoms: N_6  and  C_7 
REMARK    2  A    between atoms: C_20  and  C_21 
ROOT
HETATM    1  C   UNL     1      42.439 -12.168  -3.176  1.00  0.00     0.011 C 
HETATM    2  C   UNL     1      41.753 -11.563  -1.954  1.00  0.00     0.002 C 
HETATM    3  C   UNL     1      42.149 -12.264  -0.660  1.00  0.00     0.132 C 
HETATM    4  N   UNL     1      41.122 -13.267  -0.421  1.00  0.00    -0.325 N 
HETATM    5  C   UNL     1      41.115 -14.224   0.576  1.00  0.00     0.323 C 
HETATM    6  N   UNL     1      42.240 -14.226   1.369  1.00  0.00    -0.309 N 
HETATM    7  O   UNL     1      40.181 -15.010   0.711  1.00  0.00    -0.247 OA
HETATM    8  C   UNL     1      39.942 -13.051  -1.263  1.00  0.00     0.125 C 
HETATM    9  C   UNL     1      40.229 -11.717  -1.976  1.00  0.00     0.036 C 
HETATM   10  H   UNL     1      42.678 -13.329   1.510  1.00  0.00     0.170 HD
ENDROOT
BRANCH   6  11
HETATM   11  C   UNL     1      42.658 -15.275   2.213  1.00  0.00     0.038 A 
HETATM   12  C   UNL     1      42.430 -15.268   3.594  1.00  0.00     0.062 A 
HETATM   13  C   UNL     1      42.808 -16.365   4.371  1.00  0.00     0.070 A 
HETATM   14  C   UNL     1      43.426 -17.468   3.784  1.00  0.00     0.096 A 
HETATM   15  N   UNL     1      42.515 -16.368   5.733  1.00  0.00    -0.323 N 
HETATM   16  O   UNL     1      43.797 -18.589   4.471  1.00  0.00    -0.335 OA
HETATM   17  C   UNL     1      43.648 -17.483   2.408  1.00  0.00     0.041 A 
HETATM   18  C   UNL     1      43.769 -18.471   5.892  1.00  0.00     0.217 C 
HETATM   19  C   UNL     1      42.866 -17.411   6.541  1.00  0.00     0.251 C 
HETATM   20  C   UNL     1      45.200 -18.261   6.379  1.00  0.00     0.050 C 
HETATM   21  O   UNL     1      42.535 -17.443   7.725  1.00  0.00    -0.270 OA
HETATM   22  C   UNL     1      43.258 -16.393   1.624  1.00  0.00     0.032 A 
HETATM   23  H   UNL     1      41.986 -15.614   6.154  1.00  0.00     0.169 HD
ENDBRANCH   6  11
BRANCH   8  24
HETATM   24  C   UNL     1      39.605 -14.165  -2.235  1.00  0.00     0.003 A 
HETATM   25  C   UNL     1      38.291 -14.251  -2.717  1.00  0.00     0.124 A 
HETATM   26  F   UNL     1      37.384 -13.339  -2.335  1.00  0.00    -0.205 F 
HETATM   27  C   UNL     1      37.891 -15.261  -3.588  1.00  0.00     0.043 A 
HETATM   28  C   UNL     1      38.812 -16.218  -4.000  1.00  0.00     0.003 A 
HETATM   29  C   UNL     1      40.126 -16.156  -3.539  1.00  0.00     0.001 A 
HETATM   30  C   UNL     1      40.520 -15.138  -2.664  1.00  0.00     0.012 A 
ENDBRANCH   8  24
TORSDOF 2
ENDMDL
MODEL 3
REMARK VINA RESULT:      -8.8      2.420      3.946
REMARK  2 active torsions:
REMARK  status: ('A' for Active; 'I' for Inactive)
REMARK       I    between atoms: N_4  and  C_5 
REMARK       I    between atoms: C_5  and  N_6 
REMARK    1  A    between atoms: N_6  and  C_7 
REMARK    2  A    between atoms: C_20  and  C_21 
ROOT
HETATM    1  C   UNL     1      38.493 -15.512  -3.409  1.00  0.00     0.011 C 
HETATM    2  C   UNL     1      39.911 -14.970  -3.557  1.00  0.00     0.002 C 
HETATM    3  C   UNL     1      40.881 -15.602  -2.565  1.00  0.00     0.132 C 
HETATM    4  N   UNL     1      40.929 -14.697  -1.426  1.00  0.00    -0.325 N 
HETATM    5  C   UNL     1      41.588 -14.906  -0.229  1.00  0.00     0.323 C 
HETATM    6  N   UNL     1      42.206 -16.132  -0.128  1.00  0.00    -0.309 N 
HETATM    7  O   UNL     1      41.591 -14.062   0.663  1.00  0.00    -0.247 OA
HETATM    8  C   UNL     1      40.335 -13.394  -1.738  1.00  0.00     0.125 C 
HETATM    9  C   UNL     1      40.025 -13.475  -3.244  1.00  0.00     0.036 C 
HETATM   10  H   UNL     1      42.555 -16.519  -0.991  1.00  0.00     0.170 HD
ENDROOT
BRANCH   6  11
HETATM   11  C   UNL     1      42.643 -16.745   1.064  1.00  0.00     0.038 A 
HETATM   12  C   UNL     1      42.100 -16.433   2.315  1.00  0.00     0.062 A 
HETATM   13  C   UNL     1      42.527 -17.119   3.454  1.00  0.00     0.070 A 
HETATM   14  C   UNL     1      43.504 -18.108   3.358  1.00  0.00     0.096 A 
HETATM   15  N   UNL     1      41.928 -16.841   4.681  1.00  0.00    -0.323 N 
HETATM   16  O   UNL     1      43.952 -18.843   4.420  1.00  0.00    -0.335 OA
HETATM   17  C   UNL     1      44.043 -18.428   2.113  1.00  0.00     0.041 A 
HETATM   18  C   UNL     1      43.561 -18.360   5.704  1.00  0.00     0.217 C 
HETATM   19  C   UNL     1      42.310 -17.477   5.827  1.00  0.00     0.251 C 
HETATM   20  C   UNL     1      44.747 -17.617   6.312  1.00  0.00     0.050 C 
HETATM   21  O   UNL     1      41.724 -17.284   6.891  1.00  0.00    -0.270 OA
HETATM   22  C   UNL     1      43.608 -17.753   0.968  1.00  0.00     0.032 A 
HETATM   23  H   UNL     1      41.155 -16.191   4.748  1.00  0.00     0.169 HD
ENDBRANCH   6  11
BRANCH   8  24
HETATM   24  C   UNL     1      39.122 -13.001  -0.918  1.00  0.00     0.003 A 
HETATM   25  C   UNL     1      38.805 -11.640  -0.811  1.00  0.00     0.124 A 
HETATM   26  F   UNL     1      39.555 -10.732  -1.454  1.00  0.00    -0.205 F 
HETATM   27  C   UNL     1      37.725 -11.192  -0.053  1.00  0.00     0.043 A 
HETATM   28  C   UNL     1      36.931 -12.114   0.623  1.00  0.00     0.003 A 
HETATM   29  C   UNL     1      37.222 -13.474   0.533  1.00  0.00     0.001 A 
HETATM   30  C   UNL     1      38.308 -13.915  -0.231  1.00  0.00     0.012 A 
ENDBRANCH   8  24
TORSDOF 2
ENDMDL
MODEL 4
REMARK VINA RESULT:      -8.6      3.225      8.485
REMARK  2 active torsions:
REMARK  status: ('A' for Active; 'I' for Inactive)
REMARK       I    between atoms: N_4  and  C_5 
REMARK       I    between atoms: C_5  and  N_6 
REMARK    1  A    between atoms: N_6  and  C_7 
REMARK    2  A    between atoms: C_20  and  C_21 
ROOT
HETATM    1  C   UNL     1      40.610 -18.151   5.495  1.00  0.00     0.011 C 
HETATM    2  C   UNL     1      41.470 -16.906   5.684  1.00  0.00     0.002 C 
HETATM    3  C   UNL     1      41.386 -15.956   4.494  1.00  0.00     0.132 C 
HETATM    4  N   UNL     1      42.513 -16.292   3.637  1.00  0.00    -0.325 N 
HETATM    5  C   UNL     1      42.786 -15.774   2.386  1.00  0.00     0.323 C 
HETATM    6  N   UNL     1      41.838 -14.891   1.918  1.00  0.00    -0.309 N 
HETATM    7  O   UNL     1      43.785 -16.103   1.753  1.00  0.00    -0.247 OA
HETATM    8  C   UNL     1      43.489 -17.142   4.327  1.00  0.00     0.125 C 
HETATM    9  C   UNL     1      42.969 -17.211   5.774  1.00  0.00     0.036 C 
HETATM   10  H   UNL     1      41.369 -14.340   2.620  1.00  0.00     0.170 HD
ENDROOT
BRANCH   6  11
HETATM   11  C   UNL     1      41.673 -14.484   0.579  1.00  0.00     0.038 A 
HETATM   12  C   UNL     1      42.096 -13.235   0.112  1.00  0.00     0.062 A 
HETATM   13  C   UNL     1      41.965 -12.913  -1.241  1.00  0.00     0.070 A 
HETATM   14  C   UNL     1      41.401 -13.823  -2.133  1.00  0.00     0.096 A 
HETATM   15  N   UNL     1      42.451 -11.690  -1.699  1.00  0.00    -0.323 N 
HETATM   16  O   UNL     1      41.267 -13.592  -3.474  1.00  0.00    -0.335 OA
HETATM   17  C   UNL     1      40.986 -15.071  -1.674  1.00  0.00     0.041 A 
HETATM   18  C   UNL     1      41.487 -12.245  -3.886  1.00  0.00     0.217 C 
HETATM   19  C   UNL     1      42.345 -11.320  -3.009  1.00  0.00     0.251 C 
HETATM   20  C   UNL     1      40.127 -11.589  -4.107  1.00  0.00     0.050 C 
HETATM   21  O   UNL     1      42.846 -10.276  -3.422  1.00  0.00    -0.270 OA
HETATM   22  C   UNL     1      41.128 -15.404  -0.323  1.00  0.00     0.032 A 
HETATM   23  H   UNL     1      42.944 -11.060  -1.079  1.00  0.00     0.169 HD
ENDBRANCH   6  11
BRANCH   8  24
HETATM   24  C   UNL     1      43.716 -18.516   3.727  1.00  0.00     0.003 A 
HETATM   25  C   UNL     1      44.721 -19.323   4.278  1.00  0.00     0.124 A 
HETATM   26  F   UNL     1      45.428 -18.877   5.328  1.00  0.00    -0.205 F 
HETATM   27  C   UNL     1      45.014 -20.585   3.768  1.00  0.00     0.043 A 
HETATM   28  C   UNL     1      44.295 -21.071   2.680  1.00  0.00     0.003 A 
HETATM   29  C   UNL     1      43.288 -20.291   2.114  1.00  0.00     0.001 A 
HETATM   30  C   UNL     1      43.000 -19.024   2.633  1.00  0.00     0.012 A 
ENDBRANCH   8  24
TORSDOF 2
ENDMDL
MODEL 5
REMARK VINA RESULT:      -8.4      3.420      8.153
REMARK  2 active torsions:
REMARK  status: ('A' for Active; 'I' for Inactive)
REMARK       I    between atoms: N_4  and  C_5 
REMARK       I    between atoms: C_5  and  N_6 
REMARK    1  A    between atoms: N_6  and  C_7 
REMARK    2  A    between atoms: C_20  and  C_21 
ROOT
HETATM    1  C   UNL     1      40.576 -17.688   6.176  1.00  0.00     0.011 C 
HETATM    2  C   UNL     1      41.468 -16.498   6.516  1.00  0.00     0.002 C 
HETATM    3  C   UNL     1      41.407 -15.405   5.455  1.00  0.00     0.132 C 
HETATM    4  N   UNL     1      42.524 -15.660   4.559  1.00  0.00    -0.325 N 
HETATM    5  C   UNL     1      42.809 -14.995   3.381  1.00  0.00     0.323 C 
HETATM    6  N   UNL     1      41.884 -14.037   3.032  1.00  0.00    -0.309 N 
HETATM    7  O   UNL     1      43.799 -15.268   2.708  1.00  0.00    -0.247 OA
HETATM    8  C   UNL     1      43.479 -16.613   5.132  1.00  0.00     0.125 C 
HETATM    9  C   UNL     1      42.958 -16.850   6.561  1.00  0.00     0.036 C 
HETATM   10  H   UNL     1      41.430 -13.567   3.799  1.00  0.00     0.170 HD
ENDROOT
BRANCH   6  11
HETATM   11  C   UNL     1      41.728 -13.461   1.755  1.00  0.00     0.038 A 
HETATM   12  C   UNL     1      41.615 -14.229   0.590  1.00  0.00     0.062 A 
HETATM   13  C   UNL     1      41.397 -13.606  -0.640  1.00  0.00     0.070 A 
HETATM   14  C   UNL     1      41.303 -12.218  -0.723  1.00  0.00     0.096 A 
HETATM   15  N   UNL     1      41.222 -14.391  -1.779  1.00  0.00    -0.323 N 
HETATM   16  O   UNL     1      41.061 -11.539  -1.884  1.00  0.00    -0.335 OA
HETATM   17  C   UNL     1      41.407 -11.450   0.435  1.00  0.00     0.041 A 
HETATM   18  C   UNL     1      41.177 -12.310  -3.078  1.00  0.00     0.217 C 
HETATM   19  C   UNL     1      41.011 -13.835  -3.008  1.00  0.00     0.251 C 
HETATM   20  C   UNL     1      42.527 -11.993  -3.717  1.00  0.00     0.050 C 
HETATM   21  O   UNL     1      40.778 -14.532  -3.994  1.00  0.00    -0.270 OA
HETATM   22  C   UNL     1      41.612 -12.070   1.671  1.00  0.00     0.032 A 
HETATM   23  H   UNL     1      41.196 -15.400  -1.717  1.00  0.00     0.169 HD
ENDBRANCH   6  11
BRANCH   8  24
HETATM   24  C   UNL     1      43.670 -17.907   4.364  1.00  0.00     0.003 A 
HETATM   25  C   UNL     1      44.699 -18.770   4.764  1.00  0.00     0.124 A 
HETATM   26  F   UNL     1      45.460 -18.449   5.821  1.00  0.00    -0.205 F 
HETATM   27  C   UNL     1      44.962 -19.963   4.094  1.00  0.00     0.043 A 
HETATM   28  C   UNL     1      44.186 -20.319   2.995  1.00  0.00     0.003 A 
HETATM   29  C   UNL     1      43.154 -19.481   2.578  1.00  0.00     0.001 A 
HETATM   30  C   UNL     1      42.897 -18.285   3.256  1.00  0.00     0.012 A 
ENDBRANCH   8  24
TORSDOF 2
ENDMDL
MODEL 6
REMARK VINA RESULT:      -8.3      2.008      2.843
REMARK  2 active torsions:
REMARK  status: ('A' for Active; 'I' for Inactive)
REMARK       I    between atoms: N_4  and  C_5 
REMARK       I    between atoms: C_5  and  N_6 
REMARK    1  A    between atoms: N_6  and  C_7 
REMARK    2  A    between atoms: C_20  and  C_21 
ROOT
HETATM    1  C   UNL     1      38.308 -11.519   0.895  1.00  0.00     0.011 C 
HETATM    2  C   UNL     1      37.761 -12.881   0.482  1.00  0.00     0.002 C 
HETATM    3  C   UNL     1      38.313 -14.014   1.341  1.00  0.00     0.132 C 
HETATM    4  N   UNL     1      39.460 -14.539   0.616  1.00  0.00    -0.325 N 
HETATM    5  C   UNL     1      40.348 -15.502   1.057  1.00  0.00     0.323 C 
HETATM    6  N   UNL     1      40.116 -15.943   2.340  1.00  0.00    -0.309 N 
HETATM    7  O   UNL     1      41.272 -15.901   0.352  1.00  0.00    -0.247 OA
HETATM    8  C   UNL     1      39.493 -14.066  -0.771  1.00  0.00     0.125 C 
HETATM    9  C   UNL     1      38.171 -13.295  -0.936  1.00  0.00     0.036 C 
HETATM   10  H   UNL     1      39.152 -15.949   2.634  1.00  0.00     0.170 HD
ENDROOT
BRANCH   6  11
HETATM   11  C   UNL     1      41.031 -16.639   3.156  1.00  0.00     0.038 A 
HETATM   12  C   UNL     1      41.268 -16.292   4.491  1.00  0.00     0.062 A 
HETATM   13  C   UNL     1      42.137 -17.059   5.269  1.00  0.00     0.070 A 
HETATM   14  C   UNL     1      42.787 -18.165   4.723  1.00  0.00     0.096 A 
HETATM   15  N   UNL     1      42.310 -16.737   6.614  1.00  0.00    -0.323 N 
HETATM   16  O   UNL     1      43.628 -18.979   5.428  1.00  0.00    -0.335 OA
HETATM   17  C   UNL     1      42.549 -18.518   3.397  1.00  0.00     0.041 A 
HETATM   18  C   UNL     1      44.031 -18.484   6.703  1.00  0.00     0.217 C 
HETATM   19  C   UNL     1      43.152 -17.448   7.420  1.00  0.00     0.251 C 
HETATM   20  C   UNL     1      45.442 -17.919   6.568  1.00  0.00     0.050 C 
HETATM   21  O   UNL     1      43.239 -17.209   8.623  1.00  0.00    -0.270 OA
HETATM   22  C   UNL     1      41.668 -17.763   2.617  1.00  0.00     0.032 A 
HETATM   23  H   UNL     1      41.775 -15.994   7.044  1.00  0.00     0.169 HD
ENDBRANCH   6  11
BRANCH   8  24
HETATM   24  C   UNL     1      40.700 -13.236  -1.163  1.00  0.00     0.003 A 
HETATM   25  C   UNL     1      41.158 -13.314  -2.485  1.00  0.00     0.124 A 
HETATM   26  F   UNL     1      40.508 -14.088  -3.368  1.00  0.00    -0.205 F 
HETATM   27  C   UNL     1      42.278 -12.608  -2.920  1.00  0.00     0.043 A 
HETATM   28  C   UNL     1      42.969 -11.798  -2.024  1.00  0.00     0.003 A 
HETATM   29  C   UNL     1      42.534 -11.699  -0.704  1.00  0.00     0.001 A 
HETATM   30  C   UNL     1      41.408 -12.412  -0.276  1.00  0.00     0.012 A 
ENDBRANCH   8  24
TORSDOF 2
ENDMDL
MODEL 7
REMARK VINA RESULT:      -8.1      3.780      8.933
REMARK  2 active torsions:
REMARK  status: ('A' for Active; 'I' for Inactive)
REMARK       I    between atoms: N_4  and  C_5 
REMARK       I    between atoms: C_5  and  N_6 
REMARK    1  A    between atoms: N_6  and  C_7 
REMARK    2  A    between atoms: C_20  and  C_21 
ROOT
HETATM    1  C   UNL     1      43.968 -17.520   1.371  1.00  0.00     0.011 C 
HETATM    2  C   UNL     1      42.593 -18.118   1.653  1.00  0.00     0.002 C 
HETATM    3  C   UNL     1      41.465 -17.285   1.055  1.00  0.00     0.132 C 
HETATM    4  N   UNL     1      41.016 -16.402   2.122  1.00  0.00    -0.325 N 
HETATM    5  C   UNL     1      40.085 -15.385   2.019  1.00  0.00     0.323 C 
HETATM    6  N   UNL     1      39.597 -15.190   0.746  1.00  0.00    -0.309 N 
HETATM    7  O   UNL     1      39.752 -14.713   2.991  1.00  0.00    -0.247 OA
HETATM    8  C   UNL     1      41.530 -16.820   3.429  1.00  0.00     0.125 C 
HETATM    9  C   UNL     1      42.241 -18.155   3.143  1.00  0.00     0.036 C 
HETATM   10  H   UNL     1      39.536 -16.014   0.169  1.00  0.00     0.170 HD
ENDROOT
BRANCH   6  11
HETATM   11  C   UNL     1      38.922 -14.041   0.285  1.00  0.00     0.038 A 
HETATM   12  C   UNL     1      37.634 -13.700   0.711  1.00  0.00     0.062 A 
HETATM   13  C   UNL     1      37.041 -12.515   0.270  1.00  0.00     0.070 A 
HETATM   14  C   UNL     1      37.719 -11.670  -0.607  1.00  0.00     0.096 A 
HETATM   15  N   UNL     1      35.784 -12.161   0.755  1.00  0.00    -0.323 N 
HETATM   16  O   UNL     1      37.219 -10.481  -1.059  1.00  0.00    -0.335 OA
HETATM   17  C   UNL     1      39.005 -12.001  -1.028  1.00  0.00     0.041 A 
HETATM   18  C   UNL     1      35.833 -10.265  -0.802  1.00  0.00     0.217 C 
HETATM   19  C   UNL     1      35.156 -11.017   0.354  1.00  0.00     0.251 C 
HETATM   20  C   UNL     1      35.062 -10.549  -2.088  1.00  0.00     0.050 C 
HETATM   21  O   UNL     1      34.084 -10.671   0.846  1.00  0.00    -0.270 OA
HETATM   22  C   UNL     1      39.609 -13.179  -0.577  1.00  0.00     0.032 A 
HETATM   23  H   UNL     1      35.322 -12.720   1.461  1.00  0.00     0.169 HD
ENDBRANCH   6  11
BRANCH   8  24
HETATM   24  C   UNL     1      42.428 -15.826   4.140  1.00  0.00     0.003 A 
HETATM   25  C   UNL     1      42.495 -15.875   5.539  1.00  0.00     0.124 A 
HETATM   26  F   UNL     1      41.796 -16.807   6.205  1.00  0.00    -0.205 F 
HETATM   27  C   UNL     1      43.272 -14.980   6.271  1.00  0.00     0.043 A 
HETATM   28  C   UNL     1      44.008 -14.005   5.605  1.00  0.00     0.003 A 
HETATM   29  C   UNL     1      43.962 -13.935   4.214  1.00  0.00     0.001 A 
HETATM   30  C   UNL     1      43.179 -14.838   3.487  1.00  0.00     0.012 A 
ENDBRANCH   8  24
TORSDOF 2
ENDMDL
MODEL 8
REMARK VINA RESULT:      -8.0      1.618      2.657
REMARK  2 active torsions:
REMARK  status: ('A' for Active; 'I' for Inactive)
REMARK       I    between atoms: N_4  and  C_5 
REMARK       I    between atoms: C_5  and  N_6 
REMARK    1  A    between atoms: N_6  and  C_7 
REMARK    2  A    between atoms: C_20  and  C_21 
ROOT
HETATM    1  C   UNL     1      42.494 -11.834  -0.826  1.00  0.00     0.011 C 
HETATM    2  C   UNL     1      41.629 -11.881   0.430  1.00  0.00     0.002 C 
HETATM    3  C   UNL     1      42.073 -12.970   1.400  1.00  0.00     0.132 C 
HETATM    4  N   UNL     1      41.247 -14.130   1.098  1.00  0.00    -0.325 N 
HETATM    5  C   UNL     1      41.364 -15.395   1.644  1.00  0.00     0.323 C 
HETATM    6  N   UNL     1      42.416 -15.540   2.520  1.00  0.00    -0.309 N 
HETATM    7  O   UNL     1      40.594 -16.302   1.343  1.00  0.00    -0.247 OA
HETATM    8  C   UNL     1      40.102 -13.780   0.253  1.00  0.00     0.125 C 
HETATM    9  C   UNL     1      40.168 -12.246   0.148  1.00  0.00     0.036 C 
HETATM   10  H   UNL     1      42.662 -14.718   3.049  1.00  0.00     0.170 HD
ENDROOT
BRANCH   6  11
HETATM   11  C   UNL     1      42.976 -16.760   2.948  1.00  0.00     0.038 A 
HETATM   12  C   UNL     1      42.989 -17.907   2.146  1.00  0.00     0.062 A 
HETATM   13  C   UNL     1      43.616 -19.070   2.598  1.00  0.00     0.070 A 
HETATM   14  C   UNL     1      44.221 -19.105   3.853  1.00  0.00     0.096 A 
HETATM   15  N   UNL     1      43.674 -20.181   1.759  1.00  0.00    -0.323 N 
HETATM   16  O   UNL     1      44.879 -20.194   4.351  1.00  0.00    -0.335 OA
HETATM   17  C   UNL     1      44.218 -17.963   4.652  1.00  0.00     0.041 A 
HETATM   18  C   UNL     1      44.685 -21.408   3.629  1.00  0.00     0.217 C 
HETATM   19  C   UNL     1      44.270 -21.346   2.151  1.00  0.00     0.251 C 
HETATM   20  C   UNL     1      43.666 -22.254   4.388  1.00  0.00     0.050 C 
HETATM   21  O   UNL     1      44.389 -22.295   1.378  1.00  0.00    -0.270 OA
HETATM   22  C   UNL     1      43.604 -16.792   4.198  1.00  0.00     0.032 A 
HETATM   23  H   UNL     1      43.319 -20.139   0.812  1.00  0.00     0.169 HD
ENDBRANCH   6  11
BRANCH   8  24
HETATM   24  C   UNL     1      40.049 -14.451  -1.106  1.00  0.00     0.003 A 
HETATM   25  C   UNL     1      38.852 -14.383  -1.834  1.00  0.00     0.124 A 
HETATM   26  F   UNL     1      37.808 -13.709  -1.330  1.00  0.00    -0.205 F 
HETATM   27  C   UNL     1      38.710 -14.997  -3.076  1.00  0.00     0.043 A 
HETATM   28  C   UNL     1      39.779 -15.702  -3.621  1.00  0.00     0.003 A 
HETATM   29  C   UNL     1      40.981 -15.784  -2.920  1.00  0.00     0.001 A 
HETATM   30  C   UNL     1      41.116 -15.164  -1.674  1.00  0.00     0.012 A 
ENDBRANCH   8  24
TORSDOF 2
ENDMDL
MODEL 9
REMARK VINA RESULT:      -7.7      3.738      8.783
REMARK  2 active torsions:
REMARK  status: ('A' for Active; 'I' for Inactive)
REMARK       I    between atoms: N_4  and  C_5 
REMARK       I    between atoms: C_5  and  N_6 
REMARK    1  A    between atoms: N_6  and  C_7 
REMARK    2  A    between atoms: C_20  and  C_21 
ROOT
HETATM    1  C   UNL     1      44.207 -17.613   1.709  1.00  0.00     0.011 C 
HETATM    2  C   UNL     1      42.837 -18.239   1.951  1.00  0.00     0.002 C 
HETATM    3  C   UNL     1      41.707 -17.419   1.340  1.00  0.00     0.132 C 
HETATM    4  N   UNL     1      41.218 -16.559   2.408  1.00  0.00    -0.325 N 
HETATM    5  C   UNL     1      40.271 -15.559   2.297  1.00  0.00     0.323 C 
HETATM    6  N   UNL     1      39.807 -15.354   1.017  1.00  0.00    -0.309 N 
HETATM    7  O   UNL     1      39.903 -14.906   3.271  1.00  0.00    -0.247 OA
HETATM    8  C   UNL     1      41.710 -16.986   3.721  1.00  0.00     0.125 C 
HETATM    9  C   UNL     1      42.452 -18.303   3.433  1.00  0.00     0.036 C 
HETATM   10  H   UNL     1      39.775 -16.171   0.427  1.00  0.00     0.170 HD
ENDROOT
BRANCH   6  11
HETATM   11  C   UNL     1      39.122 -14.212   0.556  1.00  0.00     0.038 A 
HETATM   12  C   UNL     1      39.682 -13.316  -0.362  1.00  0.00     0.062 A 
HETATM   13  C   UNL     1      38.932 -12.237  -0.832  1.00  0.00     0.070 A 
HETATM   14  C   UNL     1      37.627 -12.034  -0.385  1.00  0.00     0.096 A 
HETATM   15  N   UNL     1      39.483 -11.392  -1.794  1.00  0.00    -0.323 N 
HETATM   16  O   UNL     1      36.821 -11.020  -0.822  1.00  0.00    -0.335 OA
HETATM   17  C   UNL     1      37.063 -12.928   0.522  1.00  0.00     0.041 A 
HETATM   18  C   UNL     1      37.476  -9.998  -1.570  1.00  0.00     0.217 C 
HETATM   19  C   UNL     1      38.797 -10.319  -2.286  1.00  0.00     0.251 C 
HETATM   20  C   UNL     1      37.698  -8.803  -0.646  1.00  0.00     0.050 C 
HETATM   21  O   UNL     1      39.257  -9.626  -3.191  1.00  0.00    -0.270 OA
HETATM   22  C   UNL     1      37.805 -14.019   0.986  1.00  0.00     0.032 A 
HETATM   23  H   UNL     1      40.393 -11.582  -2.193  1.00  0.00     0.169 HD
ENDBRANCH   6  11
BRANCH   8  24
HETATM   24  C   UNL     1      42.574 -15.986   4.465  1.00  0.00     0.003 A 
HETATM   25  C   UNL     1      42.744 -16.155   5.846  1.00  0.00     0.124 A 
HETATM   26  F   UNL     1      42.172 -17.201   6.462  1.00  0.00    -0.205 F 
HETATM   27  C   UNL     1      43.497 -15.265   6.610  1.00  0.00     0.043 A 
HETATM   28  C   UNL     1      44.101 -14.173   5.995  1.00  0.00     0.003 A 
HETATM   29  C   UNL     1      43.950 -13.982   4.622  1.00  0.00     0.001 A 
HETATM   30  C   UNL     1      43.193 -14.881   3.863  1.00  0.00     0.012 A 
ENDBRANCH   8  24
TORSDOF 2
ENDMDL
MODEL 10
REMARK VINA RESULT:      -7.7      3.231      8.529
REMARK  2 active torsions:
REMARK  status: ('A' for Active; 'I' for Inactive)
REMARK       I    between atoms: N_4  and  C_5 
REMARK       I    between atoms: C_5  and  N_6 
REMARK    1  A    between atoms: N_6  and  C_7 
REMARK    2  A    between atoms: C_20  and  C_21 
ROOT
HETATM    1  C   UNL     1      41.166 -18.118   5.781  1.00  0.00     0.011 C 
HETATM    2  C   UNL     1      41.972 -16.836   5.596  1.00  0.00     0.002 C 
HETATM    3  C   UNL     1      41.519 -16.036   4.379  1.00  0.00     0.132 C 
HETATM    4  N   UNL     1      42.394 -16.440   3.289  1.00  0.00    -0.325 N 
HETATM    5  C   UNL     1      42.293 -16.066   1.963  1.00  0.00     0.323 C 
HETATM    6  N   UNL     1      41.206 -15.269   1.680  1.00  0.00    -0.309 N 
HETATM    7  O   UNL     1      43.105 -16.441   1.122  1.00  0.00    -0.247 OA
HETATM    8  C   UNL     1      43.566 -17.176   3.774  1.00  0.00     0.125 C 
HETATM    9  C   UNL     1      43.456 -17.089   5.307  1.00  0.00     0.036 C 
HETATM   10  H   UNL     1      40.910 -14.653   2.420  1.00  0.00     0.170 HD
ENDROOT
BRANCH   6  11
HETATM   11  C   UNL     1      40.666 -15.028   0.400  1.00  0.00     0.038 A 
HETATM   12  C   UNL     1      39.571 -14.183   0.191  1.00  0.00     0.062 A 
HETATM   13  C   UNL     1      39.120 -13.930  -1.107  1.00  0.00     0.070 A 
HETATM   14  C   UNL     1      39.746 -14.525  -2.201  1.00  0.00     0.096 A 
HETATM   15  N   UNL     1      38.069 -13.036  -1.300  1.00  0.00    -0.323 N 
HETATM   16  O   UNL     1      39.382 -14.304  -3.500  1.00  0.00    -0.335 OA
HETATM   17  C   UNL     1      40.842 -15.361  -1.998  1.00  0.00     0.041 A 
HETATM   18  C   UNL     1      38.137 -13.633  -3.679  1.00  0.00     0.217 C 
HETATM   19  C   UNL     1      37.584 -12.756  -2.545  1.00  0.00     0.251 C 
HETATM   20  C   UNL     1      37.085 -14.676  -4.048  1.00  0.00     0.050 C 
HETATM   21  O   UNL     1      36.712 -11.907  -2.716  1.00  0.00    -0.270 OA
HETATM   22  C   UNL     1      41.306 -15.606  -0.702  1.00  0.00     0.032 A 
HETATM   23  H   UNL     1      37.667 -12.529  -0.522  1.00  0.00     0.169 HD
ENDBRANCH   6  11
BRANCH   8  24
HETATM   24  C   UNL     1      43.703 -18.605   3.285  1.00  0.00     0.003 A 
HETATM   25  C   UNL     1      44.631 -19.439   3.924  1.00  0.00     0.124 A 
HETATM   26  F   UNL     1      45.343 -18.968   4.959  1.00  0.00    -0.205 F 
HETATM   27  C   UNL     1      44.841 -20.755   3.518  1.00  0.00     0.043 A 
HETATM   28  C   UNL     1      44.114 -21.268   2.447  1.00  0.00     0.003 A 
HETATM   29  C   UNL     1      43.183 -20.461   1.795  1.00  0.00     0.001 A 
HETATM   30  C   UNL     1      42.979 -19.141   2.210  1.00  0.00     0.012 A 
ENDBRANCH   8  24
TORSDOF 2
ENDMDL
