MODEL 1
REMARK VINA RESULT:      -9.0      0.000      0.000
REMARK  6 active torsions:
REMARK  status: ('A' for Active; 'I' for Inactive)
REMARK    1  A    between atoms: O_2  and  C_3 
REMARK    2  A    between atoms: C_6  and  C_7 
REMARK    3  A    between atoms: C_12  and  C_13 
REMARK       I    between atoms: C_13  and  N_14 
REMARK    4  A    between atoms: N_14  and  C_15 
REMARK    5  A    between atoms: C_17  and  O_18 
REMARK    6  A    between atoms: C_24  and  C_25 
ROOT
HETATM    1  C   UNL     1      43.016 -16.909   3.625  1.00  0.00     0.118 C 
HETATM    2  N   UNL     1      42.683 -16.297   2.337  1.00  0.00    -0.366 N 
HETATM    3  C   UNL     1      41.512 -15.670   2.112  1.00  0.00     0.123 C 
HETATM    4  N   UNL     1      40.656 -15.386   3.137  1.00  0.00    -0.240 N 
HETATM    5  N   UNL     1      39.451 -14.944   2.740  1.00  0.00    -0.165 NA
HETATM    6  C   UNL     1      39.606 -14.788   1.403  1.00  0.00     0.148 C 
HETATM    7  C   UNL     1      40.900 -15.206   0.979  1.00  0.00     0.089 C 
HETATM    8  C   UNL     1      40.955 -15.687   4.523  1.00  0.00     0.221 C 
HETATM    9  C   UNL     1      41.798 -16.965   4.573  1.00  0.00     0.066 C 
HETATM   10  H   UNL     1      43.337 -16.492   1.579  1.00  0.00     0.161 HD
ENDROOT
BRANCH   6  11
HETATM   11  C   UNL     1      38.508 -14.305   0.545  1.00  0.00     0.276 C 
HETATM   12  N   UNL     1      38.902 -14.209  -0.775  1.00  0.00    -0.322 N 
HETATM   13  H   UNL     1      39.871 -14.477  -0.925  1.00  0.00     0.169 HD
HETATM   14  O   UNL     1      37.415 -13.998   1.009  1.00  0.00    -0.266 OA
BRANCH  12  15
HETATM   15  C   UNL     1      38.169 -13.735  -1.875  1.00  0.00     0.037 A 
HETATM   16  C   UNL     1      37.815 -14.526  -2.970  1.00  0.00     0.066 A 
HETATM   17  C   UNL     1      37.082 -13.968  -4.017  1.00  0.00     0.067 A 
HETATM   18  C   UNL     1      36.686 -12.637  -3.988  1.00  0.00     0.036 A 
HETATM   19  C   UNL     1      37.035 -11.842  -2.900  1.00  0.00     0.005 A 
HETATM   20  C   UNL     1      37.780 -12.388  -1.851  1.00  0.00     0.029 A 
BRANCH  17  21
HETATM   21  O   UNL     1      36.730 -14.710  -5.108  1.00  0.00    -0.361 OA
HETATM   22  H   UNL     1      35.841 -14.437  -5.390  1.00  0.00     0.217 HD
ENDBRANCH  17  21
ENDBRANCH  12  15
ENDBRANCH   6  11
BRANCH   8  23
HETATM   23  C   UNL     1      41.637 -14.509   5.177  1.00  0.00     0.409 C 
HETATM   24  F   UNL     1      42.214 -13.684   4.275  1.00  0.00    -0.169 F 
HETATM   25  F   UNL     1      40.719 -13.765   5.847  1.00  0.00    -0.169 F 
HETATM   26  F   UNL     1      42.579 -14.858   6.078  1.00  0.00    -0.169 F 
ENDBRANCH   8  23
BRANCH   1  27
HETATM   27  C   UNL     1      43.542 -18.318   3.400  1.00  0.00    -0.035 A 
HETATM   28  C   UNL     1      44.239 -18.987   4.413  1.00  0.00     0.012 A 
HETATM   29  C   UNL     1      44.644 -20.313   4.234  1.00  0.00     0.037 A 
HETATM   30  C   UNL     1      44.348 -20.998   3.053  1.00  0.00     0.068 A 
HETATM   31  C   UNL     1      43.686 -20.330   2.025  1.00  0.00     0.037 A 
HETATM   32  C   UNL     1      43.284 -19.003   2.199  1.00  0.00     0.012 A 
BRANCH  30  33
HETATM   33  O   UNL     1      44.763 -22.300   3.015  1.00  0.00    -0.356 OA
HETATM   34  C   UNL     1      44.792 -22.983   4.265  1.00  0.00     0.210 C 
ENDBRANCH  30  33
ENDBRANCH   1  27
TORSDOF 6
ENDMDL
MODEL 2
REMARK VINA RESULT:      -8.7      4.002      7.226
REMARK  6 active torsions:
REMARK  status: ('A' for Active; 'I' for Inactive)
REMARK    1  A    between atoms: O_2  and  C_3 
REMARK    2  A    between atoms: C_6  and  C_7 
REMARK    3  A    between atoms: C_12  and  C_13 
REMARK       I    between atoms: C_13  and  N_14 
REMARK    4  A    between atoms: N_14  and  C_15 
REMARK    5  A    between atoms: C_17  and  O_18 
REMARK    6  A    between atoms: C_24  and  C_25 
ROOT
HETATM    1  C   UNL     1      41.600 -17.056   2.878  1.00  0.00     0.118 C 
HETATM    2  N   UNL     1      40.809 -16.632   4.034  1.00  0.00    -0.366 N 
HETATM    3  C   UNL     1      40.508 -15.340   4.274  1.00  0.00     0.123 C 
HETATM    4  N   UNL     1      40.745 -14.375   3.337  1.00  0.00    -0.240 N 
HETATM    5  N   UNL     1      40.583 -13.120   3.788  1.00  0.00    -0.165 NA
HETATM    6  C   UNL     1      40.062 -13.303   5.025  1.00  0.00     0.148 C 
HETATM    7  C   UNL     1      39.972 -14.686   5.351  1.00  0.00     0.089 C 
HETATM    8  C   UNL     1      41.283 -14.665   2.023  1.00  0.00     0.221 C 
HETATM    9  C   UNL     1      42.237 -15.858   2.138  1.00  0.00     0.066 C 
HETATM   10  H   UNL     1      40.614 -17.360   4.721  1.00  0.00     0.161 HD
ENDROOT
BRANCH   6  11
HETATM   11  C   UNL     1      39.717 -12.165   5.898  1.00  0.00     0.276 C 
HETATM   12  N   UNL     1      40.558 -12.091   6.991  1.00  0.00    -0.322 N 
HETATM   13  H   UNL     1      41.258 -12.829   7.009  1.00  0.00     0.169 HD
HETATM   14  O   UNL     1      38.760 -11.437   5.658  1.00  0.00    -0.266 OA
BRANCH  12  15
HETATM   15  C   UNL     1      40.515 -11.194   8.069  1.00  0.00     0.037 A 
HETATM   16  C   UNL     1      39.397 -11.020   8.888  1.00  0.00     0.066 A 
HETATM   17  C   UNL     1      39.448 -10.106   9.940  1.00  0.00     0.067 A 
HETATM   18  C   UNL     1      40.597  -9.368  10.197  1.00  0.00     0.036 A 
HETATM   19  C   UNL     1      41.714  -9.536   9.385  1.00  0.00     0.005 A 
HETATM   20  C   UNL     1      41.670 -10.441   8.321  1.00  0.00     0.029 A 
BRANCH  17  21
HETATM   21  O   UNL     1      38.369  -9.902  10.752  1.00  0.00    -0.361 OA
HETATM   22  H   UNL     1      38.466 -10.467  11.538  1.00  0.00     0.217 HD
ENDBRANCH  17  21
ENDBRANCH  12  15
ENDBRANCH   6  11
BRANCH   8  23
HETATM   23  C   UNL     1      40.160 -14.905   1.042  1.00  0.00     0.409 C 
HETATM   24  F   UNL     1      39.733 -13.762   0.460  1.00  0.00    -0.169 F 
HETATM   25  F   UNL     1      40.597 -15.708   0.037  1.00  0.00    -0.169 F 
HETATM   26  F   UNL     1      39.087 -15.518   1.583  1.00  0.00    -0.169 F 
ENDBRANCH   8  23
BRANCH   1  27
HETATM   27  C   UNL     1      42.697 -18.006   3.331  1.00  0.00    -0.035 A 
HETATM   28  C   UNL     1      43.041 -18.102   4.685  1.00  0.00     0.012 A 
HETATM   29  C   UNL     1      43.987 -19.040   5.109  1.00  0.00     0.037 A 
HETATM   30  C   UNL     1      44.593 -19.906   4.197  1.00  0.00     0.068 A 
HETATM   31  C   UNL     1      44.284 -19.796   2.842  1.00  0.00     0.037 A 
HETATM   32  C   UNL     1      43.342 -18.856   2.415  1.00  0.00     0.012 A 
BRANCH  30  33
HETATM   33  O   UNL     1      45.471 -20.803   4.740  1.00  0.00    -0.356 OA
HETATM   34  C   UNL     1      44.925 -22.065   5.110  1.00  0.00     0.210 C 
ENDBRANCH  30  33
ENDBRANCH   1  27
TORSDOF 6
ENDMDL
MODEL 3
REMARK VINA RESULT:      -8.4      4.482      8.145
REMARK  6 active torsions:
REMARK  status: ('A' for Active; 'I' for Inactive)
REMARK    1  A    between atoms: O_2  and  C_3 
REMARK    2  A    between atoms: C_6  and  C_7 
REMARK    3  A    between atoms: C_12  and  C_13 
REMARK       I    between atoms: C_13  and  N_14 
REMARK    4  A    between atoms: N_14  and  C_15 
REMARK    5  A    between atoms: C_17  and  O_18 
REMARK    6  A    between atoms: C_24  and  C_25 
ROOT
HETATM    1  C   UNL     1      42.493 -16.766   3.107  1.00  0.00     0.118 C 
HETATM    2  N   UNL     1      41.820 -16.223   4.288  1.00  0.00    -0.366 N 
HETATM    3  C   UNL     1      41.960 -14.941   4.678  1.00  0.00     0.123 C 
HETATM    4  N   UNL     1      42.571 -14.021   3.873  1.00  0.00    -0.240 N 
HETATM    5  N   UNL     1      42.815 -12.843   4.472  1.00  0.00    -0.165 NA
HETATM    6  C   UNL     1      42.185 -12.968   5.665  1.00  0.00     0.148 C 
HETATM    7  C   UNL     1      41.610 -14.262   5.815  1.00  0.00     0.089 C 
HETATM    8  C   UNL     1      43.062 -14.335   2.547  1.00  0.00     0.221 C 
HETATM    9  C   UNL     1      43.545 -15.789   2.536  1.00  0.00     0.066 C 
HETATM   10  H   UNL     1      41.345 -16.908   4.875  1.00  0.00     0.161 HD
ENDROOT
BRANCH   6  11
HETATM   11  C   UNL     1      42.190 -11.882   6.663  1.00  0.00     0.276 C 
HETATM   12  N   UNL     1      43.041 -12.164   7.714  1.00  0.00    -0.322 N 
HETATM   13  H   UNL     1      43.506 -13.064   7.623  1.00  0.00     0.169 HD
HETATM   14  O   UNL     1      41.472 -10.896   6.545  1.00  0.00    -0.266 OA
BRANCH  12  15
HETATM   15  C   UNL     1      43.273 -11.414   8.877  1.00  0.00     0.037 A 
HETATM   16  C   UNL     1      42.304 -10.619   9.493  1.00  0.00     0.066 A 
HETATM   17  C   UNL     1      42.626  -9.910  10.650  1.00  0.00     0.067 A 
HETATM   18  C   UNL     1      43.894  -9.988  11.211  1.00  0.00     0.036 A 
HETATM   19  C   UNL     1      44.865 -10.778  10.603  1.00  0.00     0.005 A 
HETATM   20  C   UNL     1      44.556 -11.483   9.437  1.00  0.00     0.029 A 
BRANCH  17  21
HETATM   21  O   UNL     1      41.706  -9.113  11.270  1.00  0.00    -0.361 OA
HETATM   22  H   UNL     1      40.903  -9.090  10.722  1.00  0.00     0.217 HD
ENDBRANCH  17  21
ENDBRANCH  12  15
ENDBRANCH   6  11
BRANCH   8  23
HETATM   23  C   UNL     1      41.990 -14.066   1.517  1.00  0.00     0.409 C 
HETATM   24  F   UNL     1      42.119 -12.847   0.948  1.00  0.00    -0.169 F 
HETATM   25  F   UNL     1      42.088 -14.974   0.510  1.00  0.00    -0.169 F 
HETATM   26  F   UNL     1      40.735 -14.165   2.001  1.00  0.00    -0.169 F 
ENDBRANCH   8  23
BRANCH   1  27
HETATM   27  C   UNL     1      43.171 -18.079   3.465  1.00  0.00    -0.035 A 
HETATM   28  C   UNL     1      43.522 -18.995   2.465  1.00  0.00     0.012 A 
HETATM   29  C   UNL     1      44.223 -20.160   2.789  1.00  0.00     0.037 A 
HETATM   30  C   UNL     1      44.599 -20.424   4.107  1.00  0.00     0.068 A 
HETATM   31  C   UNL     1      44.225 -19.538   5.115  1.00  0.00     0.037 A 
HETATM   32  C   UNL     1      43.520 -18.374   4.795  1.00  0.00     0.012 A 
BRANCH  30  33
HETATM   33  O   UNL     1      45.314 -21.576   4.289  1.00  0.00    -0.356 OA
HETATM   34  C   UNL     1      44.850 -22.443   5.319  1.00  0.00     0.210 C 
ENDBRANCH  30  33
ENDBRANCH   1  27
TORSDOF 6
ENDMDL
MODEL 4
REMARK VINA RESULT:      -8.3      1.532      2.079
REMARK  6 active torsions:
REMARK  status: ('A' for Active; 'I' for Inactive)
REMARK    1  A    between atoms: O_2  and  C_3 
REMARK    2  A    between atoms: C_6  and  C_7 
REMARK    3  A    between atoms: C_12  and  C_13 
REMARK       I    between atoms: C_13  and  N_14 
REMARK    4  A    between atoms: N_14  and  C_15 
REMARK    5  A    between atoms: C_17  and  O_18 
REMARK    6  A    between atoms: C_24  and  C_25 
ROOT
HETATM    1  C   UNL     1      42.622 -16.565   3.879  1.00  0.00     0.118 C 
HETATM    2  N   UNL     1      42.974 -16.060   2.551  1.00  0.00    -0.366 N 
HETATM    3  C   UNL     1      42.063 -15.535   1.708  1.00  0.00     0.123 C 
HETATM    4  N   UNL     1      40.795 -15.250   2.129  1.00  0.00    -0.240 N 
HETATM    5  N   UNL     1      39.948 -14.923   1.139  1.00  0.00    -0.165 NA
HETATM    6  C   UNL     1      40.758 -14.840   0.057  1.00  0.00     0.148 C 
HETATM    7  C   UNL     1      42.099 -15.188   0.384  1.00  0.00     0.089 C 
HETATM    8  C   UNL     1      40.355 -15.442   3.497  1.00  0.00     0.221 C 
HETATM    9  C   UNL     1      41.093 -16.650   4.082  1.00  0.00     0.066 C 
HETATM   10  H   UNL     1      43.929 -16.254   2.247  1.00  0.00     0.161 HD
ENDROOT
BRANCH   6  11
HETATM   11  C   UNL     1      40.236 -14.492  -1.278  1.00  0.00     0.276 C 
HETATM   12  N   UNL     1      38.881 -14.230  -1.240  1.00  0.00    -0.322 N 
HETATM   13  H   UNL     1      38.479 -14.328  -0.310  1.00  0.00     0.169 HD
HETATM   14  O   UNL     1      40.954 -14.497  -2.272  1.00  0.00    -0.266 OA
BRANCH  12  15
HETATM   15  C   UNL     1      38.017 -13.926  -2.304  1.00  0.00     0.037 A 
HETATM   16  C   UNL     1      37.537 -12.642  -2.570  1.00  0.00     0.066 A 
HETATM   17  C   UNL     1      36.683 -12.435  -3.654  1.00  0.00     0.067 A 
HETATM   18  C   UNL     1      36.307 -13.484  -4.483  1.00  0.00     0.036 A 
HETATM   19  C   UNL     1      36.782 -14.766  -4.224  1.00  0.00     0.005 A 
HETATM   20  C   UNL     1      37.628 -14.987  -3.134  1.00  0.00     0.029 A 
BRANCH  17  21
HETATM   21  O   UNL     1      36.185 -11.195  -3.934  1.00  0.00    -0.361 OA
HETATM   22  H   UNL     1      35.216 -11.257  -3.973  1.00  0.00     0.217 HD
ENDBRANCH  17  21
ENDBRANCH  12  15
ENDBRANCH   6  11
BRANCH   8  23
HETATM   23  C   UNL     1      40.572 -14.179   4.296  1.00  0.00     0.409 C 
HETATM   24  F   UNL     1      39.510 -13.345   4.238  1.00  0.00    -0.169 F 
HETATM   25  F   UNL     1      40.743 -14.493   5.607  1.00  0.00    -0.169 F 
HETATM   26  F   UNL     1      41.665 -13.481   3.924  1.00  0.00    -0.169 F 
ENDBRANCH   8  23
BRANCH   1  27
HETATM   27  C   UNL     1      43.233 -17.943   4.079  1.00  0.00    -0.035 A 
HETATM   28  C   UNL     1      43.592 -18.729   2.977  1.00  0.00     0.012 A 
HETATM   29  C   UNL     1      44.234 -19.957   3.164  1.00  0.00     0.037 A 
HETATM   30  C   UNL     1      44.541 -20.413   4.448  1.00  0.00     0.068 A 
HETATM   31  C   UNL     1      44.157 -19.656   5.552  1.00  0.00     0.037 A 
HETATM   32  C   UNL     1      43.512 -18.430   5.368  1.00  0.00     0.012 A 
BRANCH  30  33
HETATM   33  O   UNL     1      45.204 -21.609   4.497  1.00  0.00    -0.356 OA
HETATM   34  C   UNL     1      44.655 -22.659   3.708  1.00  0.00     0.210 C 
ENDBRANCH  30  33
ENDBRANCH   1  27
TORSDOF 6
ENDMDL
MODEL 5
REMARK VINA RESULT:      -8.3      4.882      9.534
REMARK  6 active torsions:
REMARK  status: ('A' for Active; 'I' for Inactive)
REMARK    1  A    between atoms: O_2  and  C_3 
REMARK    2  A    between atoms: C_6  and  C_7 
REMARK    3  A    between atoms: C_12  and  C_13 
REMARK       I    between atoms: C_13  and  N_14 
REMARK    4  A    between atoms: N_14  and  C_15 
REMARK    5  A    between atoms: C_17  and  O_18 
REMARK    6  A    between atoms: C_24  and  C_25 
ROOT
HETATM    1  C   UNL     1      40.796 -11.966   6.231  1.00  0.00     0.118 C 
HETATM    2  N   UNL     1      42.123 -12.569   6.091  1.00  0.00    -0.366 N 
HETATM    3  C   UNL     1      42.303 -13.850   5.714  1.00  0.00     0.123 C 
HETATM    4  N   UNL     1      41.264 -14.596   5.235  1.00  0.00    -0.240 N 
HETATM    5  N   UNL     1      41.547 -15.902   5.090  1.00  0.00    -0.165 NA
HETATM    6  C   UNL     1      42.877 -15.957   5.336  1.00  0.00     0.148 C 
HETATM    7  C   UNL     1      43.391 -14.680   5.701  1.00  0.00     0.089 C 
HETATM    8  C   UNL     1      39.927 -14.066   5.055  1.00  0.00     0.221 C 
HETATM    9  C   UNL     1      39.668 -13.017   6.141  1.00  0.00     0.066 C 
HETATM   10  H   UNL     1      42.900 -12.000   6.429  1.00  0.00     0.161 HD
ENDROOT
BRANCH   6  11
HETATM   11  C   UNL     1      43.625 -17.227   5.281  1.00  0.00     0.276 C 
HETATM   12  N   UNL     1      43.283 -17.967   4.165  1.00  0.00    -0.322 N 
HETATM   13  H   UNL     1      42.578 -17.517   3.586  1.00  0.00     0.169 HD
HETATM   14  O   UNL     1      44.406 -17.555   6.167  1.00  0.00    -0.266 OA
BRANCH  12  15
HETATM   15  C   UNL     1      43.726 -19.246   3.794  1.00  0.00     0.037 A 
HETATM   16  C   UNL     1      44.370 -20.127   4.666  1.00  0.00     0.066 A 
HETATM   17  C   UNL     1      44.773 -21.381   4.208  1.00  0.00     0.067 A 
HETATM   18  C   UNL     1      44.538 -21.777   2.897  1.00  0.00     0.036 A 
HETATM   19  C   UNL     1      43.897 -20.905   2.023  1.00  0.00     0.005 A 
HETATM   20  C   UNL     1      43.500 -19.641   2.469  1.00  0.00     0.029 A 
BRANCH  17  21
HETATM   21  O   UNL     1      45.415 -22.261   5.031  1.00  0.00    -0.361 OA
HETATM   22  H   UNL     1      46.047 -21.763   5.578  1.00  0.00     0.217 HD
ENDBRANCH  17  21
ENDBRANCH  12  15
ENDBRANCH   6  11
BRANCH   8  23
HETATM   23  C   UNL     1      39.769 -13.514   3.658  1.00  0.00     0.409 C 
HETATM   24  F   UNL     1      39.234 -14.417   2.807  1.00  0.00    -0.169 F 
HETATM   25  F   UNL     1      38.918 -12.455   3.680  1.00  0.00    -0.169 F 
HETATM   26  F   UNL     1      40.921 -13.069   3.116  1.00  0.00    -0.169 F 
ENDBRANCH   8  23
BRANCH   1  27
HETATM   27  C   UNL     1      40.703 -11.241   7.564  1.00  0.00    -0.035 A 
HETATM   28  C   UNL     1      39.539 -11.322   8.338  1.00  0.00     0.012 A 
HETATM   29  C   UNL     1      39.488 -10.728   9.602  1.00  0.00     0.037 A 
HETATM   30  C   UNL     1      40.598 -10.059  10.122  1.00  0.00     0.068 A 
HETATM   31  C   UNL     1      41.749  -9.941   9.346  1.00  0.00     0.037 A 
HETATM   32  C   UNL     1      41.801 -10.531   8.080  1.00  0.00     0.012 A 
BRANCH  30  33
HETATM   33  O   UNL     1      40.436  -9.555  11.383  1.00  0.00    -0.356 OA
HETATM   34  C   UNL     1      39.105  -9.551  11.888  1.00  0.00     0.210 C 
ENDBRANCH  30  33
ENDBRANCH   1  27
TORSDOF 6
ENDMDL
MODEL 6
REMARK VINA RESULT:      -8.2      4.525      9.583
REMARK  6 active torsions:
REMARK  status: ('A' for Active; 'I' for Inactive)
REMARK    1  A    between atoms: O_2  and  C_3 
REMARK    2  A    between atoms: C_6  and  C_7 
REMARK    3  A    between atoms: C_12  and  C_13 
REMARK       I    between atoms: C_13  and  N_14 
REMARK    4  A    between atoms: N_14  and  C_15 
REMARK    5  A    between atoms: C_17  and  O_18 
REMARK    6  A    between atoms: C_24  and  C_25 
ROOT
HETATM    1  C   UNL     1      41.628 -16.030   1.698  1.00  0.00     0.118 C 
HETATM    2  N   UNL     1      42.489 -15.099   2.429  1.00  0.00    -0.366 N 
HETATM    3  C   UNL     1      42.886 -15.319   3.697  1.00  0.00     0.123 C 
HETATM    4  N   UNL     1      42.678 -16.527   4.301  1.00  0.00    -0.240 N 
HETATM    5  N   UNL     1      42.943 -16.535   5.618  1.00  0.00    -0.165 NA
HETATM    6  C   UNL     1      43.497 -15.317   5.828  1.00  0.00     0.148 C 
HETATM    7  C   UNL     1      43.506 -14.539   4.636  1.00  0.00     0.089 C 
HETATM    8  C   UNL     1      42.072 -17.655   3.623  1.00  0.00     0.221 C 
HETATM    9  C   UNL     1      41.045 -17.126   2.617  1.00  0.00     0.066 C 
HETATM   10  H   UNL     1      42.662 -14.206   1.965  1.00  0.00     0.161 HD
ENDROOT
BRANCH   6  11
HETATM   11  C   UNL     1      43.952 -14.891   7.165  1.00  0.00     0.276 C 
HETATM   12  N   UNL     1      44.157 -13.526   7.219  1.00  0.00    -0.322 N 
HETATM   13  H   UNL     1      43.968 -13.057   6.337  1.00  0.00     0.169 HD
HETATM   14  O   UNL     1      44.151 -15.699   8.065  1.00  0.00    -0.266 OA
BRANCH  12  15
HETATM   15  C   UNL     1      44.643 -12.756   8.287  1.00  0.00     0.037 A 
HETATM   16  C   UNL     1      43.913 -12.491   9.447  1.00  0.00     0.066 A 
HETATM   17  C   UNL     1      44.481 -11.716  10.459  1.00  0.00     0.067 A 
HETATM   18  C   UNL     1      45.769 -11.209  10.339  1.00  0.00     0.036 A 
HETATM   19  C   UNL     1      46.502 -11.470   9.186  1.00  0.00     0.005 A 
HETATM   20  C   UNL     1      45.938 -12.235   8.161  1.00  0.00     0.029 A 
BRANCH  17  21
HETATM   21  O   UNL     1      43.789 -11.427  11.600  1.00  0.00    -0.361 OA
HETATM   22  H   UNL     1      42.845 -11.592  11.436  1.00  0.00     0.217 HD
ENDBRANCH  17  21
ENDBRANCH  12  15
ENDBRANCH   6  11
BRANCH   8  23
HETATM   23  C   UNL     1      43.138 -18.510   2.978  1.00  0.00     0.409 C 
HETATM   24  F   UNL     1      44.250 -17.804   2.679  1.00  0.00    -0.169 F 
HETATM   25  F   UNL     1      43.522 -19.487   3.840  1.00  0.00    -0.169 F 
HETATM   26  F   UNL     1      42.728 -19.131   1.853  1.00  0.00    -0.169 F 
ENDBRANCH   8  23
BRANCH   1  27
HETATM   27  C   UNL     1      40.488 -15.264   1.045  1.00  0.00    -0.035 A 
HETATM   28  C   UNL     1      39.307 -15.007   1.752  1.00  0.00     0.012 A 
HETATM   29  C   UNL     1      38.296 -14.228   1.181  1.00  0.00     0.037 A 
HETATM   30  C   UNL     1      38.452 -13.679  -0.094  1.00  0.00     0.068 A 
HETATM   31  C   UNL     1      39.608 -13.957  -0.820  1.00  0.00     0.037 A 
HETATM   32  C   UNL     1      40.618 -14.740  -0.253  1.00  0.00     0.012 A 
BRANCH  30  33
HETATM   33  O   UNL     1      37.411 -12.905  -0.526  1.00  0.00    -0.356 OA
HETATM   34  C   UNL     1      36.728 -12.161   0.478  1.00  0.00     0.210 C 
ENDBRANCH  30  33
ENDBRANCH   1  27
TORSDOF 6
ENDMDL
MODEL 7
REMARK VINA RESULT:      -8.1      4.928      9.361
REMARK  6 active torsions:
REMARK  status: ('A' for Active; 'I' for Inactive)
REMARK    1  A    between atoms: O_2  and  C_3 
REMARK    2  A    between atoms: C_6  and  C_7 
REMARK    3  A    between atoms: C_12  and  C_13 
REMARK       I    between atoms: C_13  and  N_14 
REMARK    4  A    between atoms: N_14  and  C_15 
REMARK    5  A    between atoms: C_17  and  O_18 
REMARK    6  A    between atoms: C_24  and  C_25 
ROOT
HETATM    1  C   UNL     1      41.170 -10.923   7.607  1.00  0.00     0.118 C 
HETATM    2  N   UNL     1      42.126 -11.783   6.907  1.00  0.00    -0.366 N 
HETATM    3  C   UNL     1      41.741 -12.812   6.127  1.00  0.00     0.123 C 
HETATM    4  N   UNL     1      40.431 -12.980   5.777  1.00  0.00    -0.240 N 
HETATM    5  N   UNL     1      40.171 -14.150   5.169  1.00  0.00    -0.165 NA
HETATM    6  C   UNL     1      41.403 -14.680   4.982  1.00  0.00     0.148 C 
HETATM    7  C   UNL     1      42.415 -13.851   5.544  1.00  0.00     0.089 C 
HETATM    8  C   UNL     1      39.384 -12.058   6.169  1.00  0.00     0.221 C 
HETATM    9  C   UNL     1      39.731 -11.481   7.545  1.00  0.00     0.066 C 
HETATM   10  H   UNL     1      43.105 -11.640   7.154  1.00  0.00     0.161 HD
ENDROOT
BRANCH   6  11
HETATM   11  C   UNL     1      41.594 -15.989   4.329  1.00  0.00     0.276 C 
HETATM   12  N   UNL     1      42.846 -16.508   4.592  1.00  0.00    -0.322 N 
HETATM   13  H   UNL     1      43.417 -15.903   5.177  1.00  0.00     0.169 HD
HETATM   14  O   UNL     1      40.729 -16.484   3.615  1.00  0.00    -0.266 OA
BRANCH  12  15
HETATM   15  C   UNL     1      43.422 -17.692   4.106  1.00  0.00     0.037 A 
HETATM   16  C   UNL     1      43.845 -18.741   4.924  1.00  0.00     0.066 A 
HETATM   17  C   UNL     1      44.405 -19.883   4.350  1.00  0.00     0.067 A 
HETATM   18  C   UNL     1      44.542 -20.001   2.973  1.00  0.00     0.036 A 
HETATM   19  C   UNL     1      44.122 -18.960   2.151  1.00  0.00     0.005 A 
HETATM   20  C   UNL     1      43.571 -17.807   2.717  1.00  0.00     0.029 A 
BRANCH  17  21
HETATM   21  O   UNL     1      44.841 -20.921   5.123  1.00  0.00    -0.361 OA
HETATM   22  H   UNL     1      44.278 -20.971   5.914  1.00  0.00     0.217 HD
ENDBRANCH  17  21
ENDBRANCH  12  15
ENDBRANCH   6  11
BRANCH   8  23
HETATM   23  C   UNL     1      39.208 -10.991   5.114  1.00  0.00     0.409 C 
HETATM   24  F   UNL     1      40.325 -10.808   4.377  1.00  0.00    -0.169 F 
HETATM   25  F   UNL     1      38.231 -11.364   4.247  1.00  0.00    -0.169 F 
HETATM   26  F   UNL     1      38.841  -9.791   5.611  1.00  0.00    -0.169 F 
ENDBRANCH   8  23
BRANCH   1  27
HETATM   27  C   UNL     1      41.589 -10.774   9.061  1.00  0.00    -0.035 A 
HETATM   28  C   UNL     1      40.643 -10.883  10.088  1.00  0.00     0.012 A 
HETATM   29  C   UNL     1      41.044 -10.834  11.427  1.00  0.00     0.037 A 
HETATM   30  C   UNL     1      42.392 -10.690  11.763  1.00  0.00     0.068 A 
HETATM   31  C   UNL     1      43.337 -10.545  10.749  1.00  0.00     0.037 A 
HETATM   32  C   UNL     1      42.938 -10.590   9.411  1.00  0.00     0.012 A 
BRANCH  30  33
HETATM   33  O   UNL     1      42.662 -10.695  13.104  1.00  0.00    -0.356 OA
HETATM   34  C   UNL     1      43.276  -9.519  13.621  1.00  0.00     0.210 C 
ENDBRANCH  30  33
ENDBRANCH   1  27
TORSDOF 6
ENDMDL
MODEL 8
REMARK VINA RESULT:      -8.0      5.053      9.431
REMARK  6 active torsions:
REMARK  status: ('A' for Active; 'I' for Inactive)
REMARK    1  A    between atoms: O_2  and  C_3 
REMARK    2  A    between atoms: C_6  and  C_7 
REMARK    3  A    between atoms: C_12  and  C_13 
REMARK       I    between atoms: C_13  and  N_14 
REMARK    4  A    between atoms: N_14  and  C_15 
REMARK    5  A    between atoms: C_17  and  O_18 
REMARK    6  A    between atoms: C_24  and  C_25 
ROOT
HETATM    1  C   UNL     1      42.782 -11.803   6.999  1.00  0.00     0.118 C 
HETATM    2  N   UNL     1      43.584 -13.003   6.755  1.00  0.00    -0.366 N 
HETATM    3  C   UNL     1      43.091 -14.092   6.134  1.00  0.00     0.123 C 
HETATM    4  N   UNL     1      41.877 -14.058   5.508  1.00  0.00    -0.240 N 
HETATM    5  N   UNL     1      41.430 -15.261   5.110  1.00  0.00    -0.165 NA
HETATM    6  C   UNL     1      42.484 -16.076   5.353  1.00  0.00     0.148 C 
HETATM    7  C   UNL     1      43.557 -15.369   5.967  1.00  0.00     0.089 C 
HETATM    8  C   UNL     1      41.065 -12.861   5.424  1.00  0.00     0.221 C 
HETATM    9  C   UNL     1      41.285 -12.032   6.694  1.00  0.00     0.066 C 
HETATM   10  H   UNL     1      44.499 -13.017   7.205  1.00  0.00     0.161 HD
ENDROOT
BRANCH   6  11
HETATM   11  C   UNL     1      42.434 -17.520   5.054  1.00  0.00     0.276 C 
HETATM   12  N   UNL     1      43.639 -17.976   4.557  1.00  0.00    -0.322 N 
HETATM   13  H   UNL     1      44.343 -17.246   4.477  1.00  0.00     0.169 HD
HETATM   14  O   UNL     1      41.408 -18.173   5.205  1.00  0.00    -0.266 OA
BRANCH  12  15
HETATM   15  C   UNL     1      43.968 -19.263   4.103  1.00  0.00     0.037 A 
HETATM   16  C   UNL     1      44.509 -20.259   4.919  1.00  0.00     0.066 A 
HETATM   17  C   UNL     1      44.801 -21.511   4.379  1.00  0.00     0.067 A 
HETATM   18  C   UNL     1      44.555 -21.792   3.042  1.00  0.00     0.036 A 
HETATM   19  C   UNL     1      44.015 -20.805   2.223  1.00  0.00     0.005 A 
HETATM   20  C   UNL     1      43.730 -19.543   2.751  1.00  0.00     0.029 A 
BRANCH  17  21
HETATM   21  O   UNL     1      45.343 -22.502   5.146  1.00  0.00    -0.361 OA
HETATM   22  H   UNL     1      44.699 -23.229   5.207  1.00  0.00     0.217 HD
ENDBRANCH  17  21
ENDBRANCH  12  15
ENDBRANCH   6  11
BRANCH   8  23
HETATM   23  C   UNL     1      41.390 -12.097   4.162  1.00  0.00     0.409 C 
HETATM   24  F   UNL     1      40.376 -12.124   3.270  1.00  0.00    -0.169 F 
HETATM   25  F   UNL     1      41.604 -10.790   4.463  1.00  0.00    -0.169 F 
HETATM   26  F   UNL     1      42.503 -12.533   3.535  1.00  0.00    -0.169 F 
ENDBRANCH   8  23
BRANCH   1  27
HETATM   27  C   UNL     1      42.938 -11.370   8.448  1.00  0.00    -0.035 A 
HETATM   28  C   UNL     1      44.079 -11.726   9.178  1.00  0.00     0.012 A 
HETATM   29  C   UNL     1      44.261 -11.253  10.481  1.00  0.00     0.037 A 
HETATM   30  C   UNL     1      43.320 -10.407  11.071  1.00  0.00     0.068 A 
HETATM   31  C   UNL     1      42.164 -10.075  10.367  1.00  0.00     0.037 A 
HETATM   32  C   UNL     1      41.978 -10.550   9.066  1.00  0.00     0.012 A 
BRANCH  30  33
HETATM   33  O   UNL     1      43.630  -9.982  12.333  1.00  0.00    -0.356 OA
HETATM   34  C   UNL     1      42.803 -10.480  13.380  1.00  0.00     0.210 C 
ENDBRANCH  30  33
ENDBRANCH   1  27
TORSDOF 6
ENDMDL
MODEL 9
REMARK VINA RESULT:      -7.7      1.641      2.227
REMARK  6 active torsions:
REMARK  status: ('A' for Active; 'I' for Inactive)
REMARK    1  A    between atoms: O_2  and  C_3 
REMARK    2  A    between atoms: C_6  and  C_7 
REMARK    3  A    between atoms: C_12  and  C_13 
REMARK       I    between atoms: C_13  and  N_14 
REMARK    4  A    between atoms: N_14  and  C_15 
REMARK    5  A    between atoms: C_17  and  O_18 
REMARK    6  A    between atoms: C_24  and  C_25 
ROOT
HETATM    1  C   UNL     1      43.204 -16.105   3.621  1.00  0.00     0.118 C 
HETATM    2  N   UNL     1      42.565 -15.881   2.323  1.00  0.00    -0.366 N 
HETATM    3  C   UNL     1      41.409 -15.202   2.190  1.00  0.00     0.123 C 
HETATM    4  N   UNL     1      40.878 -14.502   3.236  1.00  0.00    -0.240 N 
HETATM    5  N   UNL     1      39.634 -14.046   3.016  1.00  0.00    -0.165 NA
HETATM    6  C   UNL     1      39.427 -14.334   1.709  1.00  0.00     0.148 C 
HETATM    7  C   UNL     1      40.535 -15.032   1.150  1.00  0.00     0.089 C 
HETATM    8  C   UNL     1      41.527 -14.399   4.528  1.00  0.00     0.221 C 
HETATM    9  C   UNL     1      42.289 -15.700   4.797  1.00  0.00     0.066 C 
HETATM   10  H   UNL     1      42.978 -16.387   1.539  1.00  0.00     0.161 HD
ENDROOT
BRANCH   6  11
HETATM   11  C   UNL     1      38.162 -13.995   1.030  1.00  0.00     0.276 C 
HETATM   12  N   UNL     1      38.204 -12.727   0.485  1.00  0.00    -0.322 N 
HETATM   13  H   UNL     1      39.086 -12.248   0.649  1.00  0.00     0.169 HD
HETATM   14  O   UNL     1      37.209 -14.766   1.023  1.00  0.00    -0.266 OA
BRANCH  12  15
HETATM   15  C   UNL     1      37.186 -12.026  -0.181  1.00  0.00     0.037 A 
HETATM   16  C   UNL     1      37.169 -11.808  -1.560  1.00  0.00     0.066 A 
HETATM   17  C   UNL     1      36.112 -11.102  -2.135  1.00  0.00     0.067 A 
HETATM   18  C   UNL     1      35.066 -10.618  -1.360  1.00  0.00     0.036 A 
HETATM   19  C   UNL     1      35.076 -10.831   0.015  1.00  0.00     0.005 A 
HETATM   20  C   UNL     1      36.136 -11.527   0.602  1.00  0.00     0.029 A 
BRANCH  17  21
HETATM   21  O   UNL     1      36.071 -10.860  -3.478  1.00  0.00    -0.361 OA
HETATM   22  H   UNL     1      36.605 -11.538  -3.927  1.00  0.00     0.217 HD
ENDBRANCH  17  21
ENDBRANCH  12  15
ENDBRANCH   6  11
BRANCH   8  23
HETATM   23  C   UNL     1      42.418 -13.180   4.567  1.00  0.00     0.409 C 
HETATM   24  F   UNL     1      41.789 -12.101   5.083  1.00  0.00    -0.169 F 
HETATM   25  F   UNL     1      43.487 -13.423   5.370  1.00  0.00    -0.169 F 
HETATM   26  F   UNL     1      42.915 -12.831   3.363  1.00  0.00    -0.169 F 
ENDBRANCH   8  23
BRANCH   1  27
HETATM   27  C   UNL     1      43.580 -17.572   3.758  1.00  0.00    -0.035 A 
HETATM   28  C   UNL     1      43.502 -18.432   2.657  1.00  0.00     0.012 A 
HETATM   29  C   UNL     1      43.932 -19.759   2.764  1.00  0.00     0.037 A 
HETATM   30  C   UNL     1      44.460 -20.243   3.962  1.00  0.00     0.068 A 
HETATM   31  C   UNL     1      44.509 -19.406   5.075  1.00  0.00     0.037 A 
HETATM   32  C   UNL     1      44.076 -18.081   4.971  1.00  0.00     0.012 A 
BRANCH  30  33
HETATM   33  O   UNL     1      44.881 -21.544   3.930  1.00  0.00    -0.356 OA
HETATM   34  C   UNL     1      44.956 -22.207   5.187  1.00  0.00     0.210 C 
ENDBRANCH  30  33
ENDBRANCH   1  27
TORSDOF 6
ENDMDL
MODEL 10
REMARK VINA RESULT:      -7.7      1.986      2.784
REMARK  6 active torsions:
REMARK  status: ('A' for Active; 'I' for Inactive)
REMARK    1  A    between atoms: O_2  and  C_3 
REMARK    2  A    between atoms: C_6  and  C_7 
REMARK    3  A    between atoms: C_12  and  C_13 
REMARK       I    between atoms: C_13  and  N_14 
REMARK    4  A    between atoms: N_14  and  C_15 
REMARK    5  A    between atoms: C_17  and  O_18 
REMARK    6  A    between atoms: C_24  and  C_25 
ROOT
HETATM    1  C   UNL     1      42.015 -15.671   2.417  1.00  0.00     0.118 C 
HETATM    2  N   UNL     1      42.291 -15.202   1.058  1.00  0.00    -0.366 N 
HETATM    3  C   UNL     1      41.321 -14.771   0.228  1.00  0.00     0.123 C 
HETATM    4  N   UNL     1      40.052 -14.549   0.682  1.00  0.00    -0.240 N 
HETATM    5  N   UNL     1      39.154 -14.317  -0.291  1.00  0.00    -0.165 NA
HETATM    6  C   UNL     1      39.921 -14.229  -1.403  1.00  0.00     0.148 C 
HETATM    7  C   UNL     1      41.292 -14.478  -1.109  1.00  0.00     0.089 C 
HETATM    8  C   UNL     1      39.669 -14.710   2.070  1.00  0.00     0.221 C 
HETATM    9  C   UNL     1      40.503 -15.844   2.677  1.00  0.00     0.066 C 
HETATM   10  H   UNL     1      43.245 -15.348   0.730  1.00  0.00     0.161 HD
ENDROOT
BRANCH   6  11
HETATM   11  C   UNL     1      39.335 -13.971  -2.732  1.00  0.00     0.276 C 
HETATM   12  N   UNL     1      38.025 -13.544  -2.633  1.00  0.00    -0.322 N 
HETATM   13  H   UNL     1      37.692 -13.489  -1.674  1.00  0.00     0.169 HD
HETATM   14  O   UNL     1      39.965 -14.173  -3.764  1.00  0.00    -0.266 OA
BRANCH  12  15
HETATM   15  C   UNL     1      37.118 -13.258  -3.665  1.00  0.00     0.037 A 
HETATM   16  C   UNL     1      36.801 -11.964  -4.082  1.00  0.00     0.066 A 
HETATM   17  C   UNL     1      35.888 -11.777  -5.120  1.00  0.00     0.067 A 
HETATM   18  C   UNL     1      35.292 -12.858  -5.757  1.00  0.00     0.036 A 
HETATM   19  C   UNL     1      35.603 -14.151  -5.347  1.00  0.00     0.005 A 
HETATM   20  C   UNL     1      36.507 -14.349  -4.300  1.00  0.00     0.029 A 
BRANCH  17  21
HETATM   21  O   UNL     1      35.546 -10.525  -5.544  1.00  0.00    -0.361 OA
HETATM   22  H   UNL     1      34.581 -10.428  -5.467  1.00  0.00     0.217 HD
ENDBRANCH  17  21
ENDBRANCH  12  15
ENDBRANCH   6  11
BRANCH   8  23
HETATM   23  C   UNL     1      39.831 -13.404   2.811  1.00  0.00     0.409 C 
HETATM   24  F   UNL     1      40.756 -12.601   2.240  1.00  0.00    -0.169 F 
HETATM   25  F   UNL     1      38.658 -12.718   2.786  1.00  0.00    -0.169 F 
HETATM   26  F   UNL     1      40.160 -13.553   4.110  1.00  0.00    -0.169 F 
ENDBRANCH   8  23
BRANCH   1  27
HETATM   27  C   UNL     1      42.719 -16.999   2.650  1.00  0.00    -0.035 A 
HETATM   28  C   UNL     1      42.786 -17.552   3.935  1.00  0.00     0.012 A 
HETATM   29  C   UNL     1      43.356 -18.814   4.132  1.00  0.00     0.037 A 
HETATM   30  C   UNL     1      43.853 -19.549   3.054  1.00  0.00     0.068 A 
HETATM   31  C   UNL     1      43.824 -18.993   1.776  1.00  0.00     0.037 A 
HETATM   32  C   UNL     1      43.259 -17.730   1.577  1.00  0.00     0.012 A 
BRANCH  30  33
HETATM   33  O   UNL     1      44.349 -20.783   3.370  1.00  0.00    -0.356 OA
HETATM   34  C   UNL     1      44.988 -20.893   4.638  1.00  0.00     0.210 C 
ENDBRANCH  30  33
ENDBRANCH   1  27
TORSDOF 6
ENDMDL
