MODEL 1
REMARK VINA RESULT:      -7.9      0.000      0.000
REMARK  8 active torsions:
REMARK  status: ('A' for Active; 'I' for Inactive)
REMARK    1  A    between atoms: C_2  and  O_3 
REMARK    2  A    between atoms: O_3  and  C_4 
REMARK    3  A    between atoms: C_7  and  N_8 
REMARK       I    between atoms: N_8  and  C_9 
REMARK    4  A    between atoms: C_9  and  C_10 
REMARK    5  A    between atoms: C_10  and  N_11 
REMARK    6  A    between atoms: C_14  and  C_15 
REMARK       I    between atoms: C_15  and  N_16 
REMARK    7  A    between atoms: N_16  and  C_17 
REMARK    8  A    between atoms: C_25  and  N_26 
ROOT
HETATM    1  N   UNL     1      42.144 -14.040   3.486  1.00  0.00    -0.248 N 
HETATM    2  N   UNL     1      43.464 -14.156   3.217  1.00  0.00     0.007 NA
HETATM    3  N   UNL     1      43.795 -15.427   3.396  1.00  0.00    -0.150 NA
HETATM    4  C   UNL     1      42.672 -16.113   3.814  1.00  0.00     0.187 A 
HETATM    5  C   UNL     1      41.615 -15.226   3.928  1.00  0.00     0.151 A 
ENDROOT
BRANCH   1   6
HETATM    6  C   UNL     1      41.465 -12.811   3.158  1.00  0.00     0.251 C 
BRANCH   6   7
HETATM    7  C   UNL     1      40.831 -12.856   1.790  1.00  0.00     0.241 C 
HETATM    8  N   UNL     1      41.638 -13.422   0.816  1.00  0.00    -0.326 N 
HETATM    9  H   UNL     1      42.628 -13.512   1.037  1.00  0.00     0.169 HD
HETATM   10  O   UNL     1      39.674 -12.469   1.636  1.00  0.00    -0.271 OA
BRANCH   8  11
HETATM   11  C   UNL     1      41.255 -13.826  -0.479  1.00  0.00     0.034 A 
HETATM   12  C   UNL     1      40.879 -12.940  -1.488  1.00  0.00     0.032 A 
HETATM   13  C   UNL     1      40.458 -13.425  -2.732  1.00  0.00     0.039 A 
HETATM   14  C   UNL     1      40.415 -14.795  -2.992  1.00  0.00     0.068 A 
HETATM   15  C   UNL     1      40.797 -15.684  -1.990  1.00  0.00     0.039 A 
HETATM   16  C   UNL     1      41.209 -15.200  -0.740  1.00  0.00     0.032 A 
BRANCH  14  17
HETATM   17  O   UNL     1      39.975 -15.125  -4.242  1.00  0.00    -0.352 OA
BRANCH  17  18
HETATM   18  C   UNL     1      38.884 -16.039  -4.328  1.00  0.00     0.171 C 
HETATM   19  C   UNL     1      37.630 -15.312  -3.873  1.00  0.00     0.034 C 
ENDBRANCH  17  18
ENDBRANCH  14  17
ENDBRANCH   8  11
ENDBRANCH   6   7
ENDBRANCH   1   6
BRANCH   5  20
HETATM   20  N   UNL     1      40.324 -15.382   4.305  1.00  0.00    -0.382 N 
HETATM   21  H   UNL     1      39.938 -16.332   4.301  1.00  0.00     0.157 HD
HETATM   22  H   UNL     1      39.885 -14.799   5.016  1.00  0.00     0.157 HD
ENDBRANCH   5  20
BRANCH   4  23
HETATM   23  C   UNL     1      42.667 -17.551   4.062  1.00  0.00     0.280 C 
HETATM   24  N   UNL     1      43.833 -18.158   3.633  1.00  0.00    -0.320 N 
HETATM   25  H   UNL     1      44.614 -17.523   3.507  1.00  0.00     0.169 HD
HETATM   26  O   UNL     1      41.739 -18.104   4.643  1.00  0.00    -0.265 OA
BRANCH  24  27
HETATM   27  C   UNL     1      44.108 -19.544   3.599  1.00  0.00     0.057 A 
HETATM   28  C   UNL     1      44.472 -20.340   4.700  1.00  0.00     0.060 A 
HETATM   29 CL   UNL     1      44.415 -19.797   6.342  1.00  0.00    -0.082 Cl
HETATM   30  C   UNL     1      44.731 -21.707   4.521  1.00  0.00     0.026 A 
HETATM   31  C   UNL     1      44.603 -22.297   3.264  1.00  0.00     0.002 A 
HETATM   32  C   UNL     1      44.192 -21.528   2.182  1.00  0.00     0.002 A 
HETATM   33  C   UNL     1      43.935 -20.165   2.351  1.00  0.00     0.031 A 
ENDBRANCH  24  27
ENDBRANCH   4  23
TORSDOF 8
ENDMDL
MODEL 2
REMARK VINA RESULT:      -7.9      5.623      8.969
REMARK  8 active torsions:
REMARK  status: ('A' for Active; 'I' for Inactive)
REMARK    1  A    between atoms: C_2  and  O_3 
REMARK    2  A    between atoms: O_3  and  C_4 
REMARK    3  A    between atoms: C_7  and  N_8 
REMARK       I    between atoms: N_8  and  C_9 
REMARK    4  A    between atoms: C_9  and  C_10 
REMARK    5  A    between atoms: C_10  and  N_11 
REMARK    6  A    between atoms: C_14  and  C_15 
REMARK       I    between atoms: C_15  and  N_16 
REMARK    7  A    between atoms: N_16  and  C_17 
REMARK    8  A    between atoms: C_25  and  N_26 
ROOT
HETATM    1  N   UNL     1      41.646 -13.388   5.602  1.00  0.00    -0.248 N 
HETATM    2  N   UNL     1      42.982 -13.378   5.398  1.00  0.00     0.007 NA
HETATM    3  N   UNL     1      43.347 -14.616   5.096  1.00  0.00    -0.150 NA
HETATM    4  C   UNL     1      42.226 -15.422   5.140  1.00  0.00     0.187 A 
HETATM    5  C   UNL     1      41.134 -14.658   5.516  1.00  0.00     0.151 A 
ENDROOT
BRANCH   1   6
HETATM    6  C   UNL     1      40.945 -12.135   5.727  1.00  0.00     0.251 C 
BRANCH   6   7
HETATM    7  C   UNL     1      40.806 -11.698   7.165  1.00  0.00     0.241 C 
HETATM    8  N   UNL     1      42.008 -11.350   7.762  1.00  0.00    -0.326 N 
HETATM    9  H   UNL     1      42.858 -11.652   7.292  1.00  0.00     0.169 HD
HETATM   10  O   UNL     1      39.692 -11.619   7.678  1.00  0.00    -0.271 OA
BRANCH   8  11
HETATM   11  C   UNL     1      42.185 -10.681   8.991  1.00  0.00     0.034 A 
HETATM   12  C   UNL     1      41.355  -9.657   9.444  1.00  0.00     0.032 A 
HETATM   13  C   UNL     1      41.632  -9.006  10.652  1.00  0.00     0.039 A 
HETATM   14  C   UNL     1      42.732  -9.371  11.429  1.00  0.00     0.068 A 
HETATM   15  C   UNL     1      43.560 -10.399  10.984  1.00  0.00     0.039 A 
HETATM   16  C   UNL     1      43.290 -11.045   9.770  1.00  0.00     0.032 A 
BRANCH  14  17
HETATM   17  O   UNL     1      42.887  -8.645  12.575  1.00  0.00    -0.352 OA
BRANCH  17  18
HETATM   18  C   UNL     1      43.458  -9.314  13.698  1.00  0.00     0.171 C 
HETATM   19  C   UNL     1      42.335 -10.011  14.447  1.00  0.00     0.034 C 
ENDBRANCH  17  18
ENDBRANCH  14  17
ENDBRANCH   8  11
ENDBRANCH   6   7
ENDBRANCH   1   6
BRANCH   5  20
HETATM   20  N   UNL     1      39.829 -14.960   5.715  1.00  0.00    -0.382 N 
HETATM   21  H   UNL     1      39.613 -15.779   6.293  1.00  0.00     0.157 HD
HETATM   22  H   UNL     1      39.104 -14.247   5.783  1.00  0.00     0.157 HD
ENDBRANCH   5  20
BRANCH   4  23
HETATM   23  C   UNL     1      42.257 -16.843   4.814  1.00  0.00     0.280 C 
HETATM   24  N   UNL     1      43.535 -17.284   4.522  1.00  0.00    -0.320 N 
HETATM   25  H   UNL     1      44.275 -16.679   4.865  1.00  0.00     0.169 HD
HETATM   26  O   UNL     1      41.250 -17.541   4.865  1.00  0.00    -0.265 OA
BRANCH  24  27
HETATM   27  C   UNL     1      43.907 -18.560   4.043  1.00  0.00     0.057 A 
HETATM   28  C   UNL     1      43.900 -18.971   2.698  1.00  0.00     0.060 A 
HETATM   29 CL   UNL     1      43.656 -17.896   1.364  1.00  0.00    -0.082 Cl
HETATM   30  C   UNL     1      44.282 -20.279   2.363  1.00  0.00     0.026 A 
HETATM   31  C   UNL     1      44.699 -21.173   3.347  1.00  0.00     0.002 A 
HETATM   32  C   UNL     1      44.760 -20.757   4.672  1.00  0.00     0.002 A 
HETATM   33  C   UNL     1      44.378 -19.458   5.016  1.00  0.00     0.031 A 
ENDBRANCH  24  27
ENDBRANCH   4  23
TORSDOF 8
ENDMDL
MODEL 3
REMARK VINA RESULT:      -7.9      5.476      8.818
REMARK  8 active torsions:
REMARK  status: ('A' for Active; 'I' for Inactive)
REMARK    1  A    between atoms: C_2  and  O_3 
REMARK    2  A    between atoms: O_3  and  C_4 
REMARK    3  A    between atoms: C_7  and  N_8 
REMARK       I    between atoms: N_8  and  C_9 
REMARK    4  A    between atoms: C_9  and  C_10 
REMARK    5  A    between atoms: C_10  and  N_11 
REMARK    6  A    between atoms: C_14  and  C_15 
REMARK       I    between atoms: C_15  and  N_16 
REMARK    7  A    between atoms: N_16  and  C_17 
REMARK    8  A    between atoms: C_25  and  N_26 
ROOT
HETATM    1  N   UNL     1      41.464 -13.271   5.448  1.00  0.00    -0.248 N 
HETATM    2  N   UNL     1      42.769 -13.222   5.102  1.00  0.00     0.007 NA
HETATM    3  N   UNL     1      43.146 -14.455   4.798  1.00  0.00    -0.150 NA
HETATM    4  C   UNL     1      42.068 -15.297   4.985  1.00  0.00     0.187 A 
HETATM    5  C   UNL     1      40.993 -14.560   5.453  1.00  0.00     0.151 A 
ENDROOT
BRANCH   1   6
HETATM    6  C   UNL     1      40.733 -12.039   5.612  1.00  0.00     0.251 C 
BRANCH   6   7
HETATM    7  C   UNL     1      40.632 -11.623   7.059  1.00  0.00     0.241 C 
HETATM    8  N   UNL     1      41.850 -11.300   7.636  1.00  0.00    -0.326 N 
HETATM    9  H   UNL     1      42.686 -11.607   7.142  1.00  0.00     0.169 HD
HETATM   10  O   UNL     1      39.530 -11.537   7.598  1.00  0.00    -0.271 OA
BRANCH   8  11
HETATM   11  C   UNL     1      42.063 -10.654   8.870  1.00  0.00     0.034 A 
HETATM   12  C   UNL     1      41.256  -9.627   9.358  1.00  0.00     0.032 A 
HETATM   13  C   UNL     1      41.568  -8.998  10.569  1.00  0.00     0.039 A 
HETATM   14  C   UNL     1      42.681  -9.388  11.315  1.00  0.00     0.068 A 
HETATM   15  C   UNL     1      43.486 -10.418  10.836  1.00  0.00     0.039 A 
HETATM   16  C   UNL     1      43.182 -11.042   9.618  1.00  0.00     0.032 A 
BRANCH  14  17
HETATM   17  O   UNL     1      42.871  -8.682  12.468  1.00  0.00    -0.352 OA
BRANCH  17  18
HETATM   18  C   UNL     1      43.464  -9.374  13.566  1.00  0.00     0.171 C 
HETATM   19  C   UNL     1      42.343  -9.926  14.429  1.00  0.00     0.034 C 
ENDBRANCH  17  18
ENDBRANCH  14  17
ENDBRANCH   8  11
ENDBRANCH   6   7
ENDBRANCH   1   6
BRANCH   5  20
HETATM   20  N   UNL     1      39.729 -14.901   5.800  1.00  0.00    -0.382 N 
HETATM   21  H   UNL     1      39.003 -14.182   5.719  1.00  0.00     0.157 HD
HETATM   22  H   UNL     1      39.354 -15.836   5.653  1.00  0.00     0.157 HD
ENDBRANCH   5  20
BRANCH   4  23
HETATM   23  C   UNL     1      42.118 -16.726   4.697  1.00  0.00     0.280 C 
HETATM   24  N   UNL     1      43.350 -17.117   4.206  1.00  0.00    -0.320 N 
HETATM   25  H   UNL     1      44.104 -16.467   4.401  1.00  0.00     0.169 HD
HETATM   26  O   UNL     1      41.171 -17.468   4.937  1.00  0.00    -0.265 OA
BRANCH  24  27
HETATM   27  C   UNL     1      43.702 -18.391   3.706  1.00  0.00     0.057 A 
HETATM   28  C   UNL     1      44.332 -19.418   4.432  1.00  0.00     0.060 A 
HETATM   29 CL   UNL     1      44.575 -19.377   6.145  1.00  0.00    -0.082 Cl
HETATM   30  C   UNL     1      44.638 -20.635   3.805  1.00  0.00     0.026 A 
HETATM   31  C   UNL     1      44.296 -20.853   2.471  1.00  0.00     0.002 A 
HETATM   32  C   UNL     1      43.625 -19.864   1.762  1.00  0.00     0.002 A 
HETATM   33  C   UNL     1      43.320 -18.647   2.379  1.00  0.00     0.031 A 
ENDBRANCH  24  27
ENDBRANCH   4  23
TORSDOF 8
ENDMDL
MODEL 4
REMARK VINA RESULT:      -7.8      6.215      9.868
REMARK  8 active torsions:
REMARK  status: ('A' for Active; 'I' for Inactive)
REMARK    1  A    between atoms: C_2  and  O_3 
REMARK    2  A    between atoms: O_3  and  C_4 
REMARK    3  A    between atoms: C_7  and  N_8 
REMARK       I    between atoms: N_8  and  C_9 
REMARK    4  A    between atoms: C_9  and  C_10 
REMARK    5  A    between atoms: C_10  and  N_11 
REMARK    6  A    between atoms: C_14  and  C_15 
REMARK       I    between atoms: C_15  and  N_16 
REMARK    7  A    between atoms: N_16  and  C_17 
REMARK    8  A    between atoms: C_25  and  N_26 
ROOT
HETATM    1  N   UNL     1      40.024 -12.330   6.517  1.00  0.00    -0.248 N 
HETATM    2  N   UNL     1      40.990 -11.558   5.969  1.00  0.00     0.007 NA
HETATM    3  N   UNL     1      41.413 -10.726   6.909  1.00  0.00    -0.150 NA
HETATM    4  C   UNL     1      40.682 -10.958   8.057  1.00  0.00     0.187 A 
HETATM    5  C   UNL     1      39.748 -11.950   7.806  1.00  0.00     0.151 A 
ENDROOT
BRANCH   1   6
HETATM    6  C   UNL     1      39.540 -13.474   5.786  1.00  0.00     0.251 C 
BRANCH   6   7
HETATM    7  C   UNL     1      40.661 -14.367   5.313  1.00  0.00     0.241 C 
HETATM    8  N   UNL     1      41.336 -15.009   6.338  1.00  0.00    -0.326 N 
HETATM    9  H   UNL     1      41.199 -14.642   7.278  1.00  0.00     0.169 HD
HETATM   10  O   UNL     1      40.860 -14.516   4.109  1.00  0.00    -0.271 OA
BRANCH   8  11
HETATM   11  C   UNL     1      42.252 -16.075   6.218  1.00  0.00     0.034 A 
HETATM   12  C   UNL     1      43.571 -16.018   6.666  1.00  0.00     0.032 A 
HETATM   13  C   UNL     1      44.433 -17.102   6.459  1.00  0.00     0.039 A 
HETATM   14  C   UNL     1      43.993 -18.257   5.813  1.00  0.00     0.068 A 
HETATM   15  C   UNL     1      42.675 -18.321   5.369  1.00  0.00     0.039 A 
HETATM   16  C   UNL     1      41.812 -17.233   5.566  1.00  0.00     0.032 A 
BRANCH  14  17
HETATM   17  O   UNL     1      44.943 -19.228   5.669  1.00  0.00    -0.352 OA
BRANCH  17  18
HETATM   18  C   UNL     1      44.704 -20.234   4.687  1.00  0.00     0.171 C 
HETATM   19  C   UNL     1      44.689 -21.579   5.391  1.00  0.00     0.034 C 
ENDBRANCH  17  18
ENDBRANCH  14  17
ENDBRANCH   8  11
ENDBRANCH   6   7
ENDBRANCH   1   6
BRANCH   5  20
HETATM   20  N   UNL     1      38.797 -12.528   8.576  1.00  0.00    -0.382 N 
HETATM   21  H   UNL     1      37.817 -12.314   8.364  1.00  0.00     0.157 HD
HETATM   22  H   UNL     1      38.903 -13.461   8.971  1.00  0.00     0.157 HD
ENDBRANCH   5  20
BRANCH   4  23
HETATM   23  C   UNL     1      40.919 -10.246   9.307  1.00  0.00     0.280 C 
HETATM   24  N   UNL     1      41.707 -10.973  10.181  1.00  0.00    -0.320 N 
HETATM   25  H   UNL     1      42.245 -11.713   9.742  1.00  0.00     0.169 HD
HETATM   26  O   UNL     1      40.500  -9.108   9.494  1.00  0.00    -0.265 OA
BRANCH  24  27
HETATM   27  C   UNL     1      42.022 -10.644  11.518  1.00  0.00     0.057 A 
HETATM   28  C   UNL     1      41.267 -10.990  12.654  1.00  0.00     0.060 A 
HETATM   29 CL   UNL     1      39.932 -12.092  12.624  1.00  0.00    -0.082 Cl
HETATM   30  C   UNL     1      41.690 -10.584  13.928  1.00  0.00     0.026 A 
HETATM   31  C   UNL     1      42.872  -9.863  14.088  1.00  0.00     0.002 A 
HETATM   32  C   UNL     1      43.652  -9.564  12.977  1.00  0.00     0.002 A 
HETATM   33  C   UNL     1      43.235  -9.962  11.704  1.00  0.00     0.031 A 
ENDBRANCH  24  27
ENDBRANCH   4  23
TORSDOF 8
ENDMDL
MODEL 5
REMARK VINA RESULT:      -7.6      5.045      8.516
REMARK  8 active torsions:
REMARK  status: ('A' for Active; 'I' for Inactive)
REMARK    1  A    between atoms: C_2  and  O_3 
REMARK    2  A    between atoms: O_3  and  C_4 
REMARK    3  A    between atoms: C_7  and  N_8 
REMARK       I    between atoms: N_8  and  C_9 
REMARK    4  A    between atoms: C_9  and  C_10 
REMARK    5  A    between atoms: C_10  and  N_11 
REMARK    6  A    between atoms: C_14  and  C_15 
REMARK       I    between atoms: C_15  and  N_16 
REMARK    7  A    between atoms: N_16  and  C_17 
REMARK    8  A    between atoms: C_25  and  N_26 
ROOT
HETATM    1  N   UNL     1      40.326 -12.976   4.985  1.00  0.00    -0.248 N 
HETATM    2  N   UNL     1      41.143 -12.265   4.176  1.00  0.00     0.007 NA
HETATM    3  N   UNL     1      41.749 -11.356   4.926  1.00  0.00    -0.150 NA
HETATM    4  C   UNL     1      41.283 -11.479   6.220  1.00  0.00     0.187 A 
HETATM    5  C   UNL     1      40.327 -12.481   6.263  1.00  0.00     0.151 A 
ENDROOT
BRANCH   1   6
HETATM    6  C   UNL     1      39.708 -14.177   4.479  1.00  0.00     0.251 C 
BRANCH   6   7
HETATM    7  C   UNL     1      40.569 -15.397   4.694  1.00  0.00     0.241 C 
HETATM    8  N   UNL     1      40.855 -16.093   3.530  1.00  0.00    -0.326 N 
HETATM    9  H   UNL     1      40.277 -15.884   2.718  1.00  0.00     0.169 HD
HETATM   10  O   UNL     1      40.999 -15.656   5.816  1.00  0.00    -0.271 OA
BRANCH   8  11
HETATM   11  C   UNL     1      41.813 -17.113   3.361  1.00  0.00     0.034 A 
HETATM   12  C   UNL     1      42.623 -17.595   4.388  1.00  0.00     0.032 A 
HETATM   13  C   UNL     1      43.590 -18.572   4.125  1.00  0.00     0.039 A 
HETATM   14  C   UNL     1      43.758 -19.089   2.841  1.00  0.00     0.068 A 
HETATM   15  C   UNL     1      42.948 -18.616   1.812  1.00  0.00     0.039 A 
HETATM   16  C   UNL     1      41.985 -17.630   2.071  1.00  0.00     0.032 A 
BRANCH  14  17
HETATM   17  O   UNL     1      44.745 -20.027   2.727  1.00  0.00    -0.352 OA
BRANCH  17  18
HETATM   18  C   UNL     1      44.375 -21.390   2.926  1.00  0.00     0.171 C 
HETATM   19  C   UNL     1      44.184 -22.026   1.560  1.00  0.00     0.034 C 
ENDBRANCH  17  18
ENDBRANCH  14  17
ENDBRANCH   8  11
ENDBRANCH   6   7
ENDBRANCH   1   6
BRANCH   5  20
HETATM   20  N   UNL     1      39.569 -12.980   7.268  1.00  0.00    -0.382 N 
HETATM   21  H   UNL     1      39.211 -13.936   7.165  1.00  0.00     0.157 HD
HETATM   22  H   UNL     1      39.723 -12.738   8.245  1.00  0.00     0.157 HD
ENDBRANCH   5  20
BRANCH   4  23
HETATM   23  C   UNL     1      41.774 -10.660   7.322  1.00  0.00     0.280 C 
HETATM   24  N   UNL     1      42.278 -11.427   8.357  1.00  0.00    -0.320 N 
HETATM   25  H   UNL     1      42.519 -12.377   8.095  1.00  0.00     0.169 HD
HETATM   26  O   UNL     1      41.777  -9.434   7.268  1.00  0.00    -0.265 OA
BRANCH  24  27
HETATM   27  C   UNL     1      42.712 -10.970   9.622  1.00  0.00     0.057 A 
HETATM   28  C   UNL     1      41.883 -10.535  10.672  1.00  0.00     0.060 A 
HETATM   29 CL   UNL     1      40.161 -10.709  10.674  1.00  0.00    -0.082 Cl
HETATM   30  C   UNL     1      42.450 -10.091  11.875  1.00  0.00     0.026 A 
HETATM   31  C   UNL     1      43.832 -10.104  12.058  1.00  0.00     0.002 A 
HETATM   32  C   UNL     1      44.655 -10.583  11.046  1.00  0.00     0.002 A 
HETATM   33  C   UNL     1      44.098 -11.023   9.842  1.00  0.00     0.031 A 
ENDBRANCH  24  27
ENDBRANCH   4  23
TORSDOF 8
ENDMDL
MODEL 6
REMARK VINA RESULT:      -7.5      5.700      8.899
REMARK  8 active torsions:
REMARK  status: ('A' for Active; 'I' for Inactive)
REMARK    1  A    between atoms: C_2  and  O_3 
REMARK    2  A    between atoms: O_3  and  C_4 
REMARK    3  A    between atoms: C_7  and  N_8 
REMARK       I    between atoms: N_8  and  C_9 
REMARK    4  A    between atoms: C_9  and  C_10 
REMARK    5  A    between atoms: C_10  and  N_11 
REMARK    6  A    between atoms: C_14  and  C_15 
REMARK       I    between atoms: C_15  and  N_16 
REMARK    7  A    between atoms: N_16  and  C_17 
REMARK    8  A    between atoms: C_25  and  N_26 
ROOT
HETATM    1  N   UNL     1      40.020 -12.089   5.633  1.00  0.00    -0.248 N 
HETATM    2  N   UNL     1      40.680 -11.013   5.150  1.00  0.00     0.007 NA
HETATM    3  N   UNL     1      41.009 -10.252   6.184  1.00  0.00    -0.150 NA
HETATM    4  C   UNL     1      40.521 -10.845   7.332  1.00  0.00     0.187 A 
HETATM    5  C   UNL     1      39.837 -11.999   6.989  1.00  0.00     0.151 A 
ENDROOT
BRANCH   1   6
HETATM    6  C   UNL     1      39.739 -13.195   4.752  1.00  0.00     0.251 C 
BRANCH   6   7
HETATM    7  C   UNL     1      40.856 -14.209   4.732  1.00  0.00     0.241 C 
HETATM    8  N   UNL     1      40.436 -15.499   4.445  1.00  0.00    -0.326 N 
HETATM    9  H   UNL     1      39.439 -15.685   4.528  1.00  0.00     0.169 HD
HETATM   10  O   UNL     1      42.018 -13.846   4.899  1.00  0.00    -0.271 OA
BRANCH   8  11
HETATM   11  C   UNL     1      41.247 -16.605   4.118  1.00  0.00     0.034 A 
HETATM   12  C   UNL     1      41.838 -17.440   5.064  1.00  0.00     0.032 A 
HETATM   13  C   UNL     1      42.676 -18.486   4.657  1.00  0.00     0.039 A 
HETATM   14  C   UNL     1      42.927 -18.720   3.306  1.00  0.00     0.068 A 
HETATM   15  C   UNL     1      42.333 -17.893   2.356  1.00  0.00     0.039 A 
HETATM   16  C   UNL     1      41.503 -16.838   2.761  1.00  0.00     0.032 A 
BRANCH  14  17
HETATM   17  O   UNL     1      43.771 -19.764   3.054  1.00  0.00    -0.352 OA
BRANCH  17  18
HETATM   18  C   UNL     1      43.516 -20.541   1.885  1.00  0.00     0.171 C 
HETATM   19  C   UNL     1      44.207 -21.883   2.057  1.00  0.00     0.034 C 
ENDBRANCH  17  18
ENDBRANCH  14  17
ENDBRANCH   8  11
ENDBRANCH   6   7
ENDBRANCH   1   6
BRANCH   5  20
HETATM   20  N   UNL     1      39.172 -12.923   7.724  1.00  0.00    -0.382 N 
HETATM   21  H   UNL     1      39.689 -13.756   8.022  1.00  0.00     0.157 HD
HETATM   22  H   UNL     1      38.442 -12.673   8.389  1.00  0.00     0.157 HD
ENDBRANCH   5  20
BRANCH   4  23
HETATM   23  C   UNL     1      40.743 -10.296   8.665  1.00  0.00     0.280 C 
HETATM   24  N   UNL     1      41.489 -11.146   9.461  1.00  0.00    -0.320 N 
HETATM   25  H   UNL     1      42.020 -11.841   8.948  1.00  0.00     0.169 HD
HETATM   26  O   UNL     1      40.346  -9.178   8.979  1.00  0.00    -0.265 OA
BRANCH  24  27
HETATM   27  C   UNL     1      41.776 -10.989  10.836  1.00  0.00     0.057 A 
HETATM   28  C   UNL     1      43.043 -10.734  11.390  1.00  0.00     0.060 A 
HETATM   29 CL   UNL     1      44.441 -10.331  10.453  1.00  0.00    -0.082 Cl
HETATM   30  C   UNL     1      43.190 -10.615  12.780  1.00  0.00     0.026 A 
HETATM   31  C   UNL     1      42.084 -10.717  13.623  1.00  0.00     0.002 A 
HETATM   32  C   UNL     1      40.820 -10.915  13.079  1.00  0.00     0.002 A 
HETATM   33  C   UNL     1      40.667 -11.039  11.696  1.00  0.00     0.031 A 
ENDBRANCH  24  27
ENDBRANCH   4  23
TORSDOF 8
ENDMDL
MODEL 7
REMARK VINA RESULT:      -7.5      1.798      2.316
REMARK  8 active torsions:
REMARK  status: ('A' for Active; 'I' for Inactive)
REMARK    1  A    between atoms: C_2  and  O_3 
REMARK    2  A    between atoms: O_3  and  C_4 
REMARK    3  A    between atoms: C_7  and  N_8 
REMARK       I    between atoms: N_8  and  C_9 
REMARK    4  A    between atoms: C_9  and  C_10 
REMARK    5  A    between atoms: C_10  and  N_11 
REMARK    6  A    between atoms: C_14  and  C_15 
REMARK       I    between atoms: C_15  and  N_16 
REMARK    7  A    between atoms: N_16  and  C_17 
REMARK    8  A    between atoms: C_25  and  N_26 
ROOT
HETATM    1  N   UNL     1      41.316 -13.774   5.127  1.00  0.00    -0.248 N 
HETATM    2  N   UNL     1      42.509 -13.673   4.499  1.00  0.00     0.007 NA
HETATM    3  N   UNL     1      42.936 -14.904   4.258  1.00  0.00    -0.150 NA
HETATM    4  C   UNL     1      42.011 -15.792   4.769  1.00  0.00     0.187 A 
HETATM    5  C   UNL     1      40.989 -15.082   5.378  1.00  0.00     0.151 A 
ENDROOT
BRANCH   1   6
HETATM    6  C   UNL     1      40.516 -12.589   5.310  1.00  0.00     0.251 C 
BRANCH   6   7
HETATM    7  C   UNL     1      39.658 -12.285   4.106  1.00  0.00     0.241 C 
HETATM    8  N   UNL     1      40.185 -12.752   2.912  1.00  0.00    -0.326 N 
HETATM    9  H   UNL     1      41.170 -13.010   2.915  1.00  0.00     0.169 HD
HETATM   10  O   UNL     1      38.572 -11.729   4.250  1.00  0.00    -0.271 OA
BRANCH   8  11
HETATM   11  C   UNL     1      39.526 -12.844   1.669  1.00  0.00     0.034 A 
HETATM   12  C   UNL     1      38.602 -13.839   1.352  1.00  0.00     0.032 A 
HETATM   13  C   UNL     1      38.033 -13.892   0.074  1.00  0.00     0.039 A 
HETATM   14  C   UNL     1      38.366 -12.952  -0.900  1.00  0.00     0.068 A 
HETATM   15  C   UNL     1      39.283 -11.951  -0.587  1.00  0.00     0.039 A 
HETATM   16  C   UNL     1      39.863 -11.902   0.689  1.00  0.00     0.032 A 
BRANCH  14  17
HETATM   17  O   UNL     1      37.744 -13.131  -2.103  1.00  0.00    -0.352 OA
BRANCH  17  18
HETATM   18  C   UNL     1      37.838 -14.423  -2.700  1.00  0.00     0.171 C 
HETATM   19  C   UNL     1      39.129 -14.475  -3.499  1.00  0.00     0.034 C 
ENDBRANCH  17  18
ENDBRANCH  14  17
ENDBRANCH   8  11
ENDBRANCH   6   7
ENDBRANCH   1   6
BRANCH   5  20
HETATM   20  N   UNL     1      39.866 -15.468   6.029  1.00  0.00    -0.382 N 
HETATM   21  H   UNL     1      39.973 -16.098   6.830  1.00  0.00     0.157 HD
HETATM   22  H   UNL     1      39.055 -14.861   6.131  1.00  0.00     0.157 HD
ENDBRANCH   5  20
BRANCH   4  23
HETATM   23  C   UNL     1      42.143 -17.239   4.638  1.00  0.00     0.280 C 
HETATM   24  N   UNL     1      43.317 -17.600   4.003  1.00  0.00    -0.320 N 
HETATM   25  H   UNL     1      44.032 -16.879   4.003  1.00  0.00     0.169 HD
HETATM   26  O   UNL     1      41.312 -18.010   5.106  1.00  0.00    -0.265 OA
BRANCH  24  27
HETATM   27  C   UNL     1      43.701 -18.898   3.598  1.00  0.00     0.057 A 
HETATM   28  C   UNL     1      44.365 -19.849   4.395  1.00  0.00     0.060 A 
HETATM   29 CL   UNL     1      44.617 -19.671   6.097  1.00  0.00    -0.082 Cl
HETATM   30  C   UNL     1      44.701 -21.101   3.859  1.00  0.00     0.026 A 
HETATM   31  C   UNL     1      44.357 -21.429   2.548  1.00  0.00     0.002 A 
HETATM   32  C   UNL     1      43.653 -20.515   1.772  1.00  0.00     0.002 A 
HETATM   33  C   UNL     1      43.318 -19.264   2.297  1.00  0.00     0.031 A 
ENDBRANCH  24  27
ENDBRANCH   4  23
TORSDOF 8
ENDMDL
MODEL 8
REMARK VINA RESULT:      -7.4      5.224      8.497
REMARK  8 active torsions:
REMARK  status: ('A' for Active; 'I' for Inactive)
REMARK    1  A    between atoms: C_2  and  O_3 
REMARK    2  A    between atoms: O_3  and  C_4 
REMARK    3  A    between atoms: C_7  and  N_8 
REMARK       I    between atoms: N_8  and  C_9 
REMARK    4  A    between atoms: C_9  and  C_10 
REMARK    5  A    between atoms: C_10  and  N_11 
REMARK    6  A    between atoms: C_14  and  C_15 
REMARK       I    between atoms: C_15  and  N_16 
REMARK    7  A    between atoms: N_16  and  C_17 
REMARK    8  A    between atoms: C_25  and  N_26 
ROOT
HETATM    1  N   UNL     1      39.785 -12.454   5.198  1.00  0.00    -0.248 N 
HETATM    2  N   UNL     1      38.857 -12.489   6.181  1.00  0.00     0.007 NA
HETATM    3  N   UNL     1      39.352 -11.826   7.216  1.00  0.00    -0.150 NA
HETATM    4  C   UNL     1      40.622 -11.394   6.890  1.00  0.00     0.187 A 
HETATM    5  C   UNL     1      40.936 -11.835   5.615  1.00  0.00     0.151 A 
ENDROOT
BRANCH   1   6
HETATM    6  C   UNL     1      39.426 -12.905   3.877  1.00  0.00     0.251 C 
BRANCH   6   7
HETATM    7  C   UNL     1      40.470 -13.816   3.279  1.00  0.00     0.241 C 
HETATM    8  N   UNL     1      40.397 -15.123   3.733  1.00  0.00    -0.326 N 
HETATM    9  H   UNL     1      39.849 -15.287   4.575  1.00  0.00     0.169 HD
HETATM   10  O   UNL     1      41.242 -13.388   2.425  1.00  0.00    -0.271 OA
BRANCH   8  11
HETATM   11  C   UNL     1      41.057 -16.248   3.197  1.00  0.00     0.034 A 
HETATM   12  C   UNL     1      42.105 -16.910   3.835  1.00  0.00     0.032 A 
HETATM   13  C   UNL     1      42.745 -17.987   3.210  1.00  0.00     0.039 A 
HETATM   14  C   UNL     1      42.344 -18.426   1.948  1.00  0.00     0.068 A 
HETATM   15  C   UNL     1      41.292 -17.774   1.310  1.00  0.00     0.039 A 
HETATM   16  C   UNL     1      40.657 -16.688   1.929  1.00  0.00     0.032 A 
BRANCH  14  17
HETATM   17  O   UNL     1      43.062 -19.477   1.455  1.00  0.00    -0.352 OA
BRANCH  17  18
HETATM   18  C   UNL     1      43.808 -20.254   2.390  1.00  0.00     0.171 C 
HETATM   19  C   UNL     1      43.878 -21.677   1.863  1.00  0.00     0.034 C 
ENDBRANCH  17  18
ENDBRANCH  14  17
ENDBRANCH   8  11
ENDBRANCH   6   7
ENDBRANCH   1   6
BRANCH   5  20
HETATM   20  N   UNL     1      42.040 -11.696   4.843  1.00  0.00    -0.382 N 
HETATM   21  H   UNL     1      41.903 -11.467   3.853  1.00  0.00     0.157 HD
HETATM   22  H   UNL     1      42.916 -11.319   5.201  1.00  0.00     0.157 HD
ENDBRANCH   5  20
BRANCH   4  23
HETATM   23  C   UNL     1      41.442 -10.589   7.787  1.00  0.00     0.280 C 
HETATM   24  N   UNL     1      41.522 -11.138   9.055  1.00  0.00    -0.320 N 
HETATM   25  H   UNL     1      41.285 -12.124   9.099  1.00  0.00     0.169 HD
HETATM   26  O   UNL     1      42.024  -9.580   7.403  1.00  0.00    -0.265 OA
BRANCH  24  27
HETATM   27  C   UNL     1      42.120 -10.560  10.196  1.00  0.00     0.057 A 
HETATM   28  C   UNL     1      43.426 -10.803  10.657  1.00  0.00     0.060 A 
HETATM   29 CL   UNL     1      44.615 -11.684   9.759  1.00  0.00    -0.082 Cl
HETATM   30  C   UNL     1      43.890 -10.169  11.819  1.00  0.00     0.026 A 
HETATM   31  C   UNL     1      43.078  -9.271  12.511  1.00  0.00     0.002 A 
HETATM   32  C   UNL     1      41.805  -8.984  12.032  1.00  0.00     0.002 A 
HETATM   33  C   UNL     1      41.335  -9.615  10.878  1.00  0.00     0.031 A 
ENDBRANCH  24  27
ENDBRANCH   4  23
TORSDOF 8
ENDMDL
MODEL 9
REMARK VINA RESULT:      -7.3      2.519      3.285
REMARK  8 active torsions:
REMARK  status: ('A' for Active; 'I' for Inactive)
REMARK    1  A    between atoms: C_2  and  O_3 
REMARK    2  A    between atoms: O_3  and  C_4 
REMARK    3  A    between atoms: C_7  and  N_8 
REMARK       I    between atoms: N_8  and  C_9 
REMARK    4  A    between atoms: C_9  and  C_10 
REMARK    5  A    between atoms: C_10  and  N_11 
REMARK    6  A    between atoms: C_14  and  C_15 
REMARK       I    between atoms: C_15  and  N_16 
REMARK    7  A    between atoms: N_16  and  C_17 
REMARK    8  A    between atoms: C_25  and  N_26 
ROOT
HETATM    1  N   UNL     1      41.054 -14.671   0.695  1.00  0.00    -0.248 N 
HETATM    2  N   UNL     1      40.773 -15.544  -0.299  1.00  0.00     0.007 NA
HETATM    3  N   UNL     1      41.592 -16.577  -0.163  1.00  0.00    -0.150 NA
HETATM    4  C   UNL     1      42.421 -16.335   0.914  1.00  0.00     0.187 A 
HETATM    5  C   UNL     1      42.124 -15.090   1.444  1.00  0.00     0.151 A 
ENDROOT
BRANCH   1   6
HETATM    6  C   UNL     1      40.167 -13.558   0.924  1.00  0.00     0.251 C 
BRANCH   6   7
HETATM    7  C   UNL     1      38.937 -13.617   0.052  1.00  0.00     0.241 C 
HETATM    8  N   UNL     1      39.182 -13.328  -1.281  1.00  0.00    -0.326 N 
HETATM    9  H   UNL     1      40.066 -12.871  -1.496  1.00  0.00     0.169 HD
HETATM   10  O   UNL     1      37.859 -13.961   0.532  1.00  0.00    -0.271 OA
BRANCH   8  11
HETATM   11  C   UNL     1      38.311 -13.533  -2.371  1.00  0.00     0.034 A 
HETATM   12  C   UNL     1      37.434 -12.564  -2.856  1.00  0.00     0.032 A 
HETATM   13  C   UNL     1      36.561 -12.865  -3.908  1.00  0.00     0.039 A 
HETATM   14  C   UNL     1      36.556 -14.130  -4.497  1.00  0.00     0.068 A 
HETATM   15  C   UNL     1      37.435 -15.099  -4.021  1.00  0.00     0.039 A 
HETATM   16  C   UNL     1      38.303 -14.803  -2.960  1.00  0.00     0.032 A 
BRANCH  14  17
HETATM   17  O   UNL     1      35.647 -14.287  -5.504  1.00  0.00    -0.352 OA
BRANCH  17  18
HETATM   18  C   UNL     1      34.781 -13.187  -5.779  1.00  0.00     0.171 C 
HETATM   19  C   UNL     1      34.796 -12.946  -7.279  1.00  0.00     0.034 C 
ENDBRANCH  17  18
ENDBRANCH  14  17
ENDBRANCH   8  11
ENDBRANCH   6   7
ENDBRANCH   1   6
BRANCH   5  20
HETATM   20  N   UNL     1      42.642 -14.387   2.479  1.00  0.00    -0.382 N 
HETATM   21  H   UNL     1      42.581 -14.802   3.414  1.00  0.00     0.157 HD
HETATM   22  H   UNL     1      43.464 -13.793   2.381  1.00  0.00     0.157 HD
ENDBRANCH   5  20
BRANCH   4  23
HETATM   23  C   UNL     1      43.420 -17.291   1.378  1.00  0.00     0.280 C 
HETATM   24  N   UNL     1      42.845 -18.453   1.861  1.00  0.00    -0.320 N 
HETATM   25  H   UNL     1      41.891 -18.608   1.552  1.00  0.00     0.169 HD
HETATM   26  O   UNL     1      44.622 -17.073   1.275  1.00  0.00    -0.265 OA
BRANCH  24  27
HETATM   27  C   UNL     1      43.504 -19.526   2.502  1.00  0.00     0.057 A 
HETATM   28  C   UNL     1      44.105 -19.485   3.773  1.00  0.00     0.060 A 
HETATM   29 CL   UNL     1      43.933 -18.163   4.877  1.00  0.00    -0.082 Cl
HETATM   30  C   UNL     1      44.741 -20.625   4.285  1.00  0.00     0.026 A 
HETATM   31  C   UNL     1      44.759 -21.815   3.560  1.00  0.00     0.002 A 
HETATM   32  C   UNL     1      44.120 -21.880   2.328  1.00  0.00     0.002 A 
HETATM   33  C   UNL     1      43.488 -20.747   1.808  1.00  0.00     0.031 A 
ENDBRANCH  24  27
ENDBRANCH   4  23
TORSDOF 8
ENDMDL
MODEL 10
REMARK VINA RESULT:      -7.2      4.307      7.678
REMARK  8 active torsions:
REMARK  status: ('A' for Active; 'I' for Inactive)
REMARK    1  A    between atoms: C_2  and  O_3 
REMARK    2  A    between atoms: O_3  and  C_4 
REMARK    3  A    between atoms: C_7  and  N_8 
REMARK       I    between atoms: N_8  and  C_9 
REMARK    4  A    between atoms: C_9  and  C_10 
REMARK    5  A    between atoms: C_10  and  N_11 
REMARK    6  A    between atoms: C_14  and  C_15 
REMARK       I    between atoms: C_15  and  N_16 
REMARK    7  A    between atoms: N_16  and  C_17 
REMARK    8  A    between atoms: C_25  and  N_26 
ROOT
HETATM    1  N   UNL     1      40.389 -13.442   3.308  1.00  0.00    -0.248 N 
HETATM    2  N   UNL     1      39.820 -14.379   4.099  1.00  0.00     0.007 NA
HETATM    3  N   UNL     1      40.587 -15.458   4.052  1.00  0.00    -0.150 NA
HETATM    4  C   UNL     1      41.639 -15.205   3.194  1.00  0.00     0.187 A 
HETATM    5  C   UNL     1      41.498 -13.932   2.666  1.00  0.00     0.151 A 
ENDROOT
BRANCH   1   6
HETATM    6  C   UNL     1      39.888 -12.091   3.346  1.00  0.00     0.251 C 
BRANCH   6   7
HETATM    7  C   UNL     1      39.477 -11.672   4.736  1.00  0.00     0.241 C 
HETATM    8  N   UNL     1      40.408 -11.987   5.714  1.00  0.00    -0.326 N 
HETATM    9  H   UNL     1      41.123 -12.667   5.463  1.00  0.00     0.169 HD
HETATM   10  O   UNL     1      38.430 -11.052   4.907  1.00  0.00    -0.271 OA
BRANCH   8  11
HETATM   11  C   UNL     1      40.435 -11.523   7.045  1.00  0.00     0.034 A 
HETATM   12  C   UNL     1      39.382 -11.683   7.944  1.00  0.00     0.032 A 
HETATM   13  C   UNL     1      39.467 -11.143   9.233  1.00  0.00     0.039 A 
HETATM   14  C   UNL     1      40.602 -10.447   9.647  1.00  0.00     0.068 A 
HETATM   15  C   UNL     1      41.660 -10.291   8.755  1.00  0.00     0.039 A 
HETATM   16  C   UNL     1      41.573 -10.821   7.460  1.00  0.00     0.032 A 
BRANCH  14  17
HETATM   17  O   UNL     1      40.543  -9.967  10.924  1.00  0.00    -0.352 OA
BRANCH  17  18
HETATM   18  C   UNL     1      41.403 -10.571  11.889  1.00  0.00     0.171 C 
HETATM   19  C   UNL     1      40.567 -11.523  12.728  1.00  0.00     0.034 C 
ENDBRANCH  17  18
ENDBRANCH  14  17
ENDBRANCH   8  11
ENDBRANCH   6   7
ENDBRANCH   1   6
BRANCH   5  20
HETATM   20  N   UNL     1      42.237 -13.219   1.785  1.00  0.00    -0.382 N 
HETATM   21  H   UNL     1      43.254 -13.343   1.805  1.00  0.00     0.157 HD
HETATM   22  H   UNL     1      41.904 -12.986   0.851  1.00  0.00     0.157 HD
ENDBRANCH   5  20
BRANCH   4  23
HETATM   23  C   UNL     1      42.706 -16.167   2.942  1.00  0.00     0.280 C 
HETATM   24  N   UNL     1      42.299 -17.470   3.166  1.00  0.00    -0.320 N 
HETATM   25  H   UNL     1      41.292 -17.600   3.163  1.00  0.00     0.169 HD
HETATM   26  O   UNL     1      43.805 -15.820   2.521  1.00  0.00    -0.265 OA
BRANCH  24  27
HETATM   27  C   UNL     1      43.105 -18.629   3.145  1.00  0.00     0.057 A 
HETATM   28  C   UNL     1      44.011 -19.023   4.146  1.00  0.00     0.060 A 
HETATM   29 CL   UNL     1      44.120 -18.266   5.698  1.00  0.00    -0.082 Cl
HETATM   30  C   UNL     1      44.763 -20.197   3.989  1.00  0.00     0.026 A 
HETATM   31  C   UNL     1      44.601 -21.000   2.861  1.00  0.00     0.002 A 
HETATM   32  C   UNL     1      43.669 -20.646   1.893  1.00  0.00     0.002 A 
HETATM   33  C   UNL     1      42.919 -19.476   2.040  1.00  0.00     0.031 A 
ENDBRANCH  24  27
ENDBRANCH   4  23
TORSDOF 8
ENDMDL
