MODEL 1
REMARK VINA RESULT:      -9.0      0.000      0.000
REMARK  5 active torsions:
REMARK  status: ('A' for Active; 'I' for Inactive)
REMARK    1  A    between atoms: C_8  and  N_9 
REMARK    2  A    between atoms: C_12  and  N_13 
REMARK    3  A    between atoms: N_13  and  C_15 
REMARK    4  A    between atoms: C_15  and  C_16 
REMARK    5  A    between atoms: C_17  and  C_18 
ROOT
HETATM    1  N   UNL     1      41.079 -14.155   1.222  1.00  0.00    -0.067 N 
HETATM    2  H   UNL     1      42.090 -14.168   1.045  1.00  0.00     0.280 HD
HETATM    3  C   UNL     1      40.900 -13.735   2.666  1.00  0.00     0.270 C 
ENDROOT
BRANCH   1   4
HETATM    4  C   UNL     1      40.475 -15.528   0.865  1.00  0.00     0.190 C 
HETATM    5  C   UNL     1      41.463 -16.368   0.038  1.00  0.00     0.048 C 
HETATM    6  C   UNL     1      42.578 -16.991   0.878  1.00  0.00     0.099 C 
HETATM    7  N   UNL     1      41.983 -17.746   1.988  1.00  0.00    -0.268 NA
HETATM    8  C   UNL     1      41.144 -16.947   2.888  1.00  0.00     0.099 C 
HETATM    9  C   UNL     1      39.999 -16.340   2.081  1.00  0.00     0.048 C 
BRANCH   7  10
HETATM   10  C   UNL     1      42.864 -18.632   2.627  1.00  0.00     0.109 A 
HETATM   11  N   UNL     1      43.420 -18.285   3.802  1.00  0.00    -0.224 NA
HETATM   12  C   UNL     1      44.323 -19.132   4.359  1.00  0.00     0.102 A 
HETATM   13  N   UNL     1      44.691 -20.288   3.793  1.00  0.00    -0.348 N 
HETATM   14  C   UNL     1      44.969 -18.725   5.646  1.00  0.00     0.091 C 
HETATM   15  C   UNL     1      44.155 -20.665   2.623  1.00  0.00     0.009 A 
HETATM   16  H   UNL     1      45.390 -20.871   4.253  1.00  0.00     0.167 HD
HETATM   17  C   UNL     1      44.594 -21.950   2.001  1.00  0.00     0.068 C 
HETATM   18  C   UNL     1      43.220 -19.827   2.011  1.00  0.00     0.069 A 
ENDBRANCH   7  10
ENDBRANCH   1   4
BRANCH   1  19
HETATM   19  C   UNL     1      40.516 -13.052   0.305  1.00  0.00     0.277 C 
BRANCH  19  20
HETATM   20  C   UNL     1      41.354 -12.771  -0.887  1.00  0.00     0.016 A 
HETATM   21  C   UNL     1      41.190 -13.196  -2.246  1.00  0.00     0.099 A 
HETATM   22  N   UNL     1      42.241 -12.810  -2.983  1.00  0.00    -0.174 NA
HETATM   23  N   UNL     1      42.979 -12.038  -2.182  1.00  0.00    -0.288 N 
HETATM   24  H   UNL     1      43.800 -11.578  -2.572  1.00  0.00     0.188 HD
HETATM   25  C   UNL     1      42.514 -12.014  -0.903  1.00  0.00     0.120 A 
BRANCH  21  26
HETATM   26  C   UNL     1      40.134 -13.986  -2.878  1.00  0.00     0.034 A 
HETATM   27  C   UNL     1      40.350 -15.292  -3.327  1.00  0.00     0.129 A 
HETATM   28  F   UNL     1      41.564 -15.854  -3.240  1.00  0.00    -0.205 F 
HETATM   29  C   UNL     1      39.317 -16.055  -3.871  1.00  0.00     0.043 A 
HETATM   30  C   UNL     1      38.035 -15.518  -3.965  1.00  0.00     0.003 A 
HETATM   31  C   UNL     1      37.794 -14.220  -3.518  1.00  0.00     0.001 A 
HETATM   32  C   UNL     1      38.835 -13.461  -2.976  1.00  0.00     0.017 A 
ENDBRANCH  21  26
ENDBRANCH  19  20
ENDBRANCH   1  19
TORSDOF 5
ENDMDL
MODEL 2
REMARK VINA RESULT:      -8.9      2.743      8.422
REMARK  5 active torsions:
REMARK  status: ('A' for Active; 'I' for Inactive)
REMARK    1  A    between atoms: C_8  and  N_9 
REMARK    2  A    between atoms: C_12  and  N_13 
REMARK    3  A    between atoms: N_13  and  C_15 
REMARK    4  A    between atoms: C_15  and  C_16 
REMARK    5  A    between atoms: C_17  and  C_18 
ROOT
HETATM    1  N   UNL     1      41.533 -16.741   3.799  1.00  0.00    -0.067 N 
HETATM    2  H   UNL     1      40.741 -17.017   3.207  1.00  0.00     0.280 HD
HETATM    3  C   UNL     1      41.036 -15.624   4.693  1.00  0.00     0.270 C 
ENDROOT
BRANCH   1   4
HETATM    4  C   UNL     1      42.738 -16.374   2.909  1.00  0.00     0.190 C 
HETATM    5  C   UNL     1      42.718 -17.172   1.595  1.00  0.00     0.048 C 
HETATM    6  C   UNL     1      41.708 -16.640   0.579  1.00  0.00     0.099 C 
HETATM    7  N   UNL     1      41.944 -15.206   0.367  1.00  0.00    -0.268 NA
HETATM    8  C   UNL     1      41.831 -14.385   1.577  1.00  0.00     0.099 C 
HETATM    9  C   UNL     1      42.854 -14.872   2.598  1.00  0.00     0.048 C 
BRANCH   7  10
HETATM   10  C   UNL     1      41.319 -14.677  -0.772  1.00  0.00     0.109 A 
HETATM   11  N   UNL     1      41.149 -13.346  -0.880  1.00  0.00    -0.224 NA
HETATM   12  C   UNL     1      40.479 -12.870  -1.959  1.00  0.00     0.102 A 
HETATM   13  N   UNL     1      39.973 -13.659  -2.916  1.00  0.00    -0.348 N 
HETATM   14  C   UNL     1      40.256 -11.393  -2.056  1.00  0.00     0.091 C 
HETATM   15  C   UNL     1      40.126 -14.989  -2.840  1.00  0.00     0.009 A 
HETATM   16  H   UNL     1      39.461 -13.241  -3.691  1.00  0.00     0.167 HD
HETATM   17  C   UNL     1      39.538 -15.851  -3.909  1.00  0.00     0.068 C 
HETATM   18  C   UNL     1      40.810 -15.527  -1.748  1.00  0.00     0.069 A 
ENDBRANCH   7  10
ENDBRANCH   1   4
BRANCH   1  19
HETATM   19  C   UNL     1      41.847 -17.975   4.665  1.00  0.00     0.277 C 
BRANCH  19  20
HETATM   20  C   UNL     1      43.206 -17.966   5.263  1.00  0.00     0.016 A 
HETATM   21  C   UNL     1      44.294 -18.882   5.084  1.00  0.00     0.099 A 
HETATM   22  N   UNL     1      45.306 -18.565   5.903  1.00  0.00    -0.174 NA
HETATM   23  N   UNL     1      44.959 -17.409   6.474  1.00  0.00    -0.288 N 
HETATM   24  H   UNL     1      45.630 -16.950   7.089  1.00  0.00     0.188 HD
HETATM   25  C   UNL     1      43.692 -17.027   6.157  1.00  0.00     0.120 A 
BRANCH  21  26
HETATM   26  C   UNL     1      44.416 -20.064   4.231  1.00  0.00     0.034 A 
HETATM   27  C   UNL     1      44.572 -21.349   4.760  1.00  0.00     0.129 A 
HETATM   28  F   UNL     1      44.666 -21.538   6.083  1.00  0.00    -0.205 F 
HETATM   29  C   UNL     1      44.624 -22.473   3.936  1.00  0.00     0.043 A 
HETATM   30  C   UNL     1      44.511 -22.325   2.555  1.00  0.00     0.003 A 
HETATM   31  C   UNL     1      44.350 -21.054   2.006  1.00  0.00     0.001 A 
HETATM   32  C   UNL     1      44.300 -19.933   2.838  1.00  0.00     0.017 A 
ENDBRANCH  21  26
ENDBRANCH  19  20
ENDBRANCH   1  19
TORSDOF 5
ENDMDL
MODEL 3
REMARK VINA RESULT:      -8.8      2.826      8.245
REMARK  5 active torsions:
REMARK  status: ('A' for Active; 'I' for Inactive)
REMARK    1  A    between atoms: C_8  and  N_9 
REMARK    2  A    between atoms: C_12  and  N_13 
REMARK    3  A    between atoms: N_13  and  C_15 
REMARK    4  A    between atoms: C_15  and  C_16 
REMARK    5  A    between atoms: C_17  and  C_18 
ROOT
HETATM    1  N   UNL     1      41.913 -15.720   5.427  1.00  0.00    -0.067 N 
HETATM    2  H   UNL     1      41.924 -16.183   4.511  1.00  0.00     0.280 HD
HETATM    3  C   UNL     1      40.866 -16.432   6.257  1.00  0.00     0.270 C 
ENDROOT
BRANCH   1   4
HETATM    4  C   UNL     1      41.676 -14.208   5.238  1.00  0.00     0.190 C 
HETATM    5  C   UNL     1      42.916 -13.524   4.638  1.00  0.00     0.048 C 
HETATM    6  C   UNL     1      43.074 -13.766   3.137  1.00  0.00     0.099 C 
HETATM    7  N   UNL     1      41.831 -13.386   2.453  1.00  0.00    -0.268 NA
HETATM    8  C   UNL     1      40.642 -14.119   2.897  1.00  0.00     0.099 C 
HETATM    9  C   UNL     1      40.439 -13.868   4.389  1.00  0.00     0.048 C 
BRANCH   7  10
HETATM   10  C   UNL     1      41.955 -13.239   1.063  1.00  0.00     0.109 A 
HETATM   11  N   UNL     1      42.470 -12.103   0.558  1.00  0.00    -0.224 NA
HETATM   12  C   UNL     1      42.510 -11.961  -0.792  1.00  0.00     0.102 A 
HETATM   13  N   UNL     1      42.056 -12.892  -1.641  1.00  0.00    -0.348 N 
HETATM   14  C   UNL     1      43.047 -10.681  -1.350  1.00  0.00     0.091 C 
HETATM   15  C   UNL     1      41.538 -14.036  -1.171  1.00  0.00     0.009 A 
HETATM   16  H   UNL     1      42.096 -12.716  -2.644  1.00  0.00     0.167 HD
HETATM   17  C   UNL     1      41.020 -15.051  -2.136  1.00  0.00     0.068 C 
HETATM   18  C   UNL     1      41.476 -14.228   0.211  1.00  0.00     0.069 A 
ENDBRANCH   7  10
ENDBRANCH   1   4
BRANCH   1  19
HETATM   19  C   UNL     1      43.303 -15.985   6.037  1.00  0.00     0.277 C 
BRANCH  19  20
HETATM   20  C   UNL     1      43.455 -17.337   6.632  1.00  0.00     0.016 A 
HETATM   21  C   UNL     1      43.580 -18.613   5.992  1.00  0.00     0.099 A 
HETATM   22  N   UNL     1      43.580 -19.592   6.907  1.00  0.00    -0.174 NA
HETATM   23  N   UNL     1      43.610 -18.979   8.092  1.00  0.00    -0.288 N 
HETATM   24  H   UNL     1      43.686 -19.549   8.933  1.00  0.00     0.188 HD
HETATM   25  C   UNL     1      43.495 -17.626   7.985  1.00  0.00     0.120 A 
BRANCH  21  26
HETATM   26  C   UNL     1      43.646 -18.968   4.574  1.00  0.00     0.034 A 
HETATM   27  C   UNL     1      44.576 -19.888   4.081  1.00  0.00     0.129 A 
HETATM   28  F   UNL     1      45.483 -20.447   4.893  1.00  0.00    -0.205 F 
HETATM   29  C   UNL     1      44.585 -20.263   2.738  1.00  0.00     0.043 A 
HETATM   30  C   UNL     1      43.648 -19.721   1.861  1.00  0.00     0.003 A 
HETATM   31  C   UNL     1      42.708 -18.806   2.331  1.00  0.00     0.001 A 
HETATM   32  C   UNL     1      42.706 -18.434   3.679  1.00  0.00     0.017 A 
ENDBRANCH  21  26
ENDBRANCH  19  20
ENDBRANCH   1  19
TORSDOF 5
ENDMDL
MODEL 4
REMARK VINA RESULT:      -8.8      0.888      1.258
REMARK  5 active torsions:
REMARK  status: ('A' for Active; 'I' for Inactive)
REMARK    1  A    between atoms: C_8  and  N_9 
REMARK    2  A    between atoms: C_12  and  N_13 
REMARK    3  A    between atoms: N_13  and  C_15 
REMARK    4  A    between atoms: C_15  and  C_16 
REMARK    5  A    between atoms: C_17  and  C_18 
ROOT
HETATM    1  N   UNL     1      41.004 -14.139   1.393  1.00  0.00    -0.067 N 
HETATM    2  H   UNL     1      42.024 -14.139   1.278  1.00  0.00     0.280 HD
HETATM    3  C   UNL     1      40.734 -13.758   2.834  1.00  0.00     0.270 C 
ENDROOT
BRANCH   1   4
HETATM    4  C   UNL     1      40.437 -15.508   0.965  1.00  0.00     0.190 C 
HETATM    5  C   UNL     1      41.459 -16.291   0.125  1.00  0.00     0.048 C 
HETATM    6  C   UNL     1      42.570 -16.927   0.961  1.00  0.00     0.099 C 
HETATM    7  N   UNL     1      41.969 -17.740   2.026  1.00  0.00    -0.268 NA
HETATM    8  C   UNL     1      41.095 -16.998   2.940  1.00  0.00     0.099 C 
HETATM    9  C   UNL     1      39.954 -16.381   2.136  1.00  0.00     0.048 C 
BRANCH   7  10
HETATM   10  C   UNL     1      42.856 -18.635   2.645  1.00  0.00     0.109 A 
HETATM   11  N   UNL     1      43.430 -18.299   3.814  1.00  0.00    -0.224 NA
HETATM   12  C   UNL     1      44.337 -19.153   4.352  1.00  0.00     0.102 A 
HETATM   13  N   UNL     1      44.693 -20.307   3.772  1.00  0.00    -0.348 N 
HETATM   14  C   UNL     1      45.004 -18.759   5.632  1.00  0.00     0.091 C 
HETATM   15  C   UNL     1      44.139 -20.672   2.607  1.00  0.00     0.009 A 
HETATM   16  H   UNL     1      45.396 -20.895   4.217  1.00  0.00     0.167 HD
HETATM   17  C   UNL     1      44.564 -21.954   1.968  1.00  0.00     0.068 C 
HETATM   18  C   UNL     1      43.198 -19.826   2.014  1.00  0.00     0.069 A 
ENDBRANCH   7  10
ENDBRANCH   1   4
BRANCH   1  19
HETATM   19  C   UNL     1      40.487 -13.018   0.472  1.00  0.00     0.277 C 
BRANCH  19  20
HETATM   20  C   UNL     1      41.322 -12.792  -0.734  1.00  0.00     0.016 A 
HETATM   21  C   UNL     1      41.160 -13.285  -2.070  1.00  0.00     0.099 A 
HETATM   22  N   UNL     1      42.208 -12.931  -2.826  1.00  0.00    -0.174 NA
HETATM   23  N   UNL     1      42.943 -12.116  -2.065  1.00  0.00    -0.288 N 
HETATM   24  H   UNL     1      43.761 -11.672  -2.478  1.00  0.00     0.188 HD
HETATM   25  C   UNL     1      42.479 -12.032  -0.788  1.00  0.00     0.120 A 
BRANCH  21  26
HETATM   26  C   UNL     1      40.107 -14.111  -2.661  1.00  0.00     0.034 A 
HETATM   27  C   UNL     1      38.783 -13.672  -2.756  1.00  0.00     0.129 A 
HETATM   28  F   UNL     1      38.419 -12.484  -2.256  1.00  0.00    -0.205 F 
HETATM   29  C   UNL     1      37.804 -14.446  -3.378  1.00  0.00     0.043 A 
HETATM   30  C   UNL     1      38.141 -15.680  -3.928  1.00  0.00     0.003 A 
HETATM   31  C   UNL     1      39.456 -16.136  -3.851  1.00  0.00     0.001 A 
HETATM   32  C   UNL     1      40.432 -15.356  -3.224  1.00  0.00     0.017 A 
ENDBRANCH  21  26
ENDBRANCH  19  20
ENDBRANCH   1  19
TORSDOF 5
ENDMDL
MODEL 5
REMARK VINA RESULT:      -8.7      3.560      6.205
REMARK  5 active torsions:
REMARK  status: ('A' for Active; 'I' for Inactive)
REMARK    1  A    between atoms: C_8  and  N_9 
REMARK    2  A    between atoms: C_12  and  N_13 
REMARK    3  A    between atoms: N_13  and  C_15 
REMARK    4  A    between atoms: C_15  and  C_16 
REMARK    5  A    between atoms: C_17  and  C_18 
ROOT
HETATM    1  N   UNL     1      40.444 -14.725   2.199  1.00  0.00    -0.067 N 
HETATM    2  H   UNL     1      40.526 -15.304   3.043  1.00  0.00     0.280 HD
HETATM    3  C   UNL     1      39.009 -14.845   1.731  1.00  0.00     0.270 C 
ENDROOT
BRANCH   1   4
HETATM    4  C   UNL     1      41.503 -15.163   1.167  1.00  0.00     0.190 C 
HETATM    5  C   UNL     1      42.918 -15.103   1.768  1.00  0.00     0.048 C 
HETATM    6  C   UNL     1      43.229 -16.274   2.700  1.00  0.00     0.099 C 
HETATM    7  N   UNL     1      42.965 -17.536   1.997  1.00  0.00    -0.268 NA
HETATM    8  C   UNL     1      41.584 -17.697   1.531  1.00  0.00     0.099 C 
HETATM    9  C   UNL     1      41.256 -16.558   0.568  1.00  0.00     0.048 C 
BRANCH   7  10
HETATM   10  C   UNL     1      43.522 -18.670   2.609  1.00  0.00     0.109 A 
HETATM   11  N   UNL     1      43.760 -19.772   1.875  1.00  0.00    -0.224 NA
HETATM   12  C   UNL     1      44.232 -20.875   2.509  1.00  0.00     0.102 A 
HETATM   13  N   UNL     1      44.464 -20.922   3.827  1.00  0.00    -0.348 N 
HETATM   14  C   UNL     1      44.459 -22.112   1.697  1.00  0.00     0.091 C 
HETATM   15  C   UNL     1      44.239 -19.840   4.587  1.00  0.00     0.009 A 
HETATM   16  H   UNL     1      44.799 -21.788   4.247  1.00  0.00     0.167 HD
HETATM   17  C   UNL     1      44.487 -19.920   6.058  1.00  0.00     0.068 C 
HETATM   18  C   UNL     1      43.754 -18.680   3.981  1.00  0.00     0.069 A 
ENDBRANCH   7  10
ENDBRANCH   1   4
BRANCH   1  19
HETATM   19  C   UNL     1      40.700 -13.280   2.667  1.00  0.00     0.277 C 
BRANCH  19  20
HETATM   20  C   UNL     1      40.072 -12.946   3.971  1.00  0.00     0.016 A 
HETATM   21  C   UNL     1      40.280 -13.525   5.265  1.00  0.00     0.099 A 
HETATM   22  N   UNL     1      39.421 -13.001   6.150  1.00  0.00    -0.174 NA
HETATM   23  N   UNL     1      38.790 -12.019   5.503  1.00  0.00    -0.288 N 
HETATM   24  H   UNL     1      38.135 -11.437   6.023  1.00  0.00     0.188 HD
HETATM   25  C   UNL     1      39.114 -11.969   4.181  1.00  0.00     0.120 A 
BRANCH  21  26
HETATM   26  C   UNL     1      41.197 -14.576   5.705  1.00  0.00     0.034 A 
HETATM   27  C   UNL     1      42.571 -14.355   5.837  1.00  0.00     0.129 A 
HETATM   28  F   UNL     1      43.109 -13.171   5.513  1.00  0.00    -0.205 F 
HETATM   29  C   UNL     1      43.425 -15.348   6.317  1.00  0.00     0.043 A 
HETATM   30  C   UNL     1      42.907 -16.589   6.684  1.00  0.00     0.003 A 
HETATM   31  C   UNL     1      41.539 -16.830   6.566  1.00  0.00     0.001 A 
HETATM   32  C   UNL     1      40.691 -15.830   6.082  1.00  0.00     0.017 A 
ENDBRANCH  21  26
ENDBRANCH  19  20
ENDBRANCH   1  19
TORSDOF 5
ENDMDL
MODEL 6
REMARK VINA RESULT:      -8.5      2.340      8.617
REMARK  5 active torsions:
REMARK  status: ('A' for Active; 'I' for Inactive)
REMARK    1  A    between atoms: C_8  and  N_9 
REMARK    2  A    between atoms: C_12  and  N_13 
REMARK    3  A    between atoms: N_13  and  C_15 
REMARK    4  A    between atoms: C_15  and  C_16 
REMARK    5  A    between atoms: C_17  and  C_18 
ROOT
HETATM    1  N   UNL     1      42.010 -16.889   3.179  1.00  0.00    -0.067 N 
HETATM    2  H   UNL     1      42.987 -16.598   3.055  1.00  0.00     0.280 HD
HETATM    3  C   UNL     1      41.670 -17.770   1.996  1.00  0.00     0.270 C 
ENDROOT
BRANCH   1   4
HETATM    4  C   UNL     1      41.116 -15.644   3.341  1.00  0.00     0.190 C 
HETATM    5  C   UNL     1      41.964 -14.372   3.505  1.00  0.00     0.048 C 
HETATM    6  C   UNL     1      42.561 -13.868   2.190  1.00  0.00     0.099 C 
HETATM    7  N   UNL     1      41.486 -13.709   1.202  1.00  0.00    -0.268 NA
HETATM    8  C   UNL     1      40.741 -14.937   0.909  1.00  0.00     0.099 C 
HETATM    9  C   UNL     1      40.104 -15.445   2.200  1.00  0.00     0.048 C 
BRANCH   7  10
HETATM   10  C   UNL     1      41.838 -12.945   0.079  1.00  0.00     0.109 A 
HETATM   11  N   UNL     1      42.511 -11.792   0.244  1.00  0.00    -0.224 NA
HETATM   12  C   UNL     1      42.775 -11.039  -0.854  1.00  0.00     0.102 A 
HETATM   13  N   UNL     1      42.391 -11.385  -2.090  1.00  0.00    -0.348 N 
HETATM   14  C   UNL     1      43.489  -9.738  -0.663  1.00  0.00     0.091 C 
HETATM   15  C   UNL     1      41.720 -12.528  -2.290  1.00  0.00     0.009 A 
HETATM   16  H   UNL     1      42.601 -10.765  -2.871  1.00  0.00     0.167 HD
HETATM   17  C   UNL     1      41.285 -12.885  -3.674  1.00  0.00     0.068 C 
HETATM   18  C   UNL     1      41.426 -13.337  -1.190  1.00  0.00     0.069 A 
ENDBRANCH   7  10
ENDBRANCH   1   4
BRANCH   1  19
HETATM   19  C   UNL     1      41.998 -17.744   4.461  1.00  0.00     0.277 C 
BRANCH  19  20
HETATM   20  C   UNL     1      43.281 -17.735   5.207  1.00  0.00     0.016 A 
HETATM   21  C   UNL     1      44.294 -18.745   5.305  1.00  0.00     0.099 A 
HETATM   22  N   UNL     1      45.239 -18.371   6.179  1.00  0.00    -0.174 NA
HETATM   23  N   UNL     1      44.941 -17.114   6.516  1.00  0.00    -0.288 N 
HETATM   24  H   UNL     1      45.582 -16.609   7.126  1.00  0.00     0.188 HD
HETATM   25  C   UNL     1      43.754 -16.698   5.994  1.00  0.00     0.120 A 
BRANCH  21  26
HETATM   26  C   UNL     1      44.396 -20.058   4.670  1.00  0.00     0.034 A 
HETATM   27  C   UNL     1      44.520 -20.206   3.285  1.00  0.00     0.129 A 
HETATM   28  F   UNL     1      44.496 -19.137   2.478  1.00  0.00    -0.205 F 
HETATM   29  C   UNL     1      44.679 -21.462   2.699  1.00  0.00     0.043 A 
HETATM   30  C   UNL     1      44.727 -22.600   3.502  1.00  0.00     0.003 A 
HETATM   31  C   UNL     1      44.612 -22.476   4.885  1.00  0.00     0.001 A 
HETATM   32  C   UNL     1      44.451 -21.214   5.465  1.00  0.00     0.017 A 
ENDBRANCH  21  26
ENDBRANCH  19  20
ENDBRANCH   1  19
TORSDOF 5
ENDMDL
MODEL 7
REMARK VINA RESULT:      -8.4      1.740      2.198
REMARK  5 active torsions:
REMARK  status: ('A' for Active; 'I' for Inactive)
REMARK    1  A    between atoms: C_8  and  N_9 
REMARK    2  A    between atoms: C_12  and  N_13 
REMARK    3  A    between atoms: N_13  and  C_15 
REMARK    4  A    between atoms: C_15  and  C_16 
REMARK    5  A    between atoms: C_17  and  C_18 
ROOT
HETATM    1  N   UNL     1      40.442 -13.982   1.129  1.00  0.00    -0.067 N 
HETATM    2  H   UNL     1      41.318 -14.444   0.858  1.00  0.00     0.280 HD
HETATM    3  C   UNL     1      40.797 -12.549   1.463  1.00  0.00     0.270 C 
ENDROOT
BRANCH   1   4
HETATM    4  C   UNL     1      39.775 -14.771   2.274  1.00  0.00     0.190 C 
HETATM    5  C   UNL     1      39.669 -16.265   1.927  1.00  0.00     0.048 C 
HETATM    6  C   UNL     1      40.992 -17.017   2.077  1.00  0.00     0.099 C 
HETATM    7  N   UNL     1      41.530 -16.784   3.423  1.00  0.00    -0.268 NA
HETATM    8  C   UNL     1      41.781 -15.376   3.744  1.00  0.00     0.099 C 
HETATM    9  C   UNL     1      40.468 -14.606   3.636  1.00  0.00     0.048 C 
BRANCH   7  10
HETATM   10  C   UNL     1      42.548 -17.672   3.803  1.00  0.00     0.109 A 
HETATM   11  N   UNL     1      43.248 -17.439   4.928  1.00  0.00    -0.224 NA
HETATM   12  C   UNL     1      44.273 -18.275   5.231  1.00  0.00     0.102 A 
HETATM   13  N   UNL     1      44.625 -19.314   4.462  1.00  0.00    -0.348 N 
HETATM   14  C   UNL     1      45.076 -17.990   6.462  1.00  0.00     0.091 C 
HETATM   15  C   UNL     1      43.947 -19.576   3.336  1.00  0.00     0.009 A 
HETATM   16  H   UNL     1      45.418 -19.893   4.735  1.00  0.00     0.167 HD
HETATM   17  C   UNL     1      44.368 -20.728   2.484  1.00  0.00     0.068 C 
HETATM   18  C   UNL     1      42.883 -18.744   2.981  1.00  0.00     0.069 A 
ENDBRANCH   7  10
ENDBRANCH   1   4
BRANCH   1  19
HETATM   19  C   UNL     1      39.562 -14.000  -0.135  1.00  0.00     0.277 C 
BRANCH  19  20
HETATM   20  C   UNL     1      40.250 -14.518  -1.345  1.00  0.00     0.016 A 
HETATM   21  C   UNL     1      39.812 -14.546  -2.709  1.00  0.00     0.099 A 
HETATM   22  N   UNL     1      40.698 -15.209  -3.466  1.00  0.00    -0.174 NA
HETATM   23  N   UNL     1      41.736 -15.464  -2.667  1.00  0.00    -0.288 N 
HETATM   24  H   UNL     1      42.562 -15.906  -3.069  1.00  0.00     0.188 HD
HETATM   25  C   UNL     1      41.503 -15.107  -1.374  1.00  0.00     0.120 A 
BRANCH  21  26
HETATM   26  C   UNL     1      38.590 -14.037  -3.330  1.00  0.00     0.034 A 
HETATM   27  C   UNL     1      37.578 -14.887  -3.787  1.00  0.00     0.129 A 
HETATM   28  F   UNL     1      37.719 -16.217  -3.717  1.00  0.00    -0.205 F 
HETATM   29  C   UNL     1      36.392 -14.384  -4.320  1.00  0.00     0.043 A 
HETATM   30  C   UNL     1      36.195 -13.006  -4.395  1.00  0.00     0.003 A 
HETATM   31  C   UNL     1      37.187 -12.140  -3.940  1.00  0.00     0.001 A 
HETATM   32  C   UNL     1      38.375 -12.651  -3.409  1.00  0.00     0.017 A 
ENDBRANCH  21  26
ENDBRANCH  19  20
ENDBRANCH   1  19
TORSDOF 5
ENDMDL
MODEL 8
REMARK VINA RESULT:      -8.2      1.404      1.647
REMARK  5 active torsions:
REMARK  status: ('A' for Active; 'I' for Inactive)
REMARK    1  A    between atoms: C_8  and  N_9 
REMARK    2  A    between atoms: C_12  and  N_13 
REMARK    3  A    between atoms: N_13  and  C_15 
REMARK    4  A    between atoms: C_15  and  C_16 
REMARK    5  A    between atoms: C_17  and  C_18 
ROOT
HETATM    1  N   UNL     1      41.045 -13.884   2.033  1.00  0.00    -0.067 N 
HETATM    2  H   UNL     1      41.587 -14.167   2.858  1.00  0.00     0.280 HD
HETATM    3  C   UNL     1      39.891 -13.047   2.542  1.00  0.00     0.270 C 
ENDROOT
BRANCH   1   4
HETATM    4  C   UNL     1      40.637 -15.134   1.229  1.00  0.00     0.190 C 
HETATM    5  C   UNL     1      41.833 -15.705   0.449  1.00  0.00     0.048 C 
HETATM    6  C   UNL     1      42.808 -16.491   1.325  1.00  0.00     0.099 C 
HETATM    7  N   UNL     1      42.069 -17.524   2.064  1.00  0.00    -0.268 NA
HETATM    8  C   UNL     1      41.007 -17.008   2.934  1.00  0.00     0.099 C 
HETATM    9  C   UNL     1      39.999 -16.246   2.079  1.00  0.00     0.048 C 
BRANCH   7  10
HETATM   10  C   UNL     1      42.877 -18.519   2.635  1.00  0.00     0.109 A 
HETATM   11  N   UNL     1      43.451 -18.303   3.833  1.00  0.00    -0.224 NA
HETATM   12  C   UNL     1      44.283 -19.255   4.326  1.00  0.00     0.102 A 
HETATM   13  N   UNL     1      44.565 -20.392   3.677  1.00  0.00    -0.348 N 
HETATM   14  C   UNL     1      44.951 -18.995   5.640  1.00  0.00     0.091 C 
HETATM   15  C   UNL     1      44.008 -20.639   2.482  1.00  0.00     0.009 A 
HETATM   16  H   UNL     1      45.215 -21.058   4.092  1.00  0.00     0.167 HD
HETATM   17  C   UNL     1      44.351 -21.905   1.768  1.00  0.00     0.068 C 
HETATM   18  C   UNL     1      43.144 -19.690   1.933  1.00  0.00     0.069 A 
ENDBRANCH   7  10
ENDBRANCH   1   4
BRANCH   1  19
HETATM   19  C   UNL     1      41.991 -12.987   1.211  1.00  0.00     0.277 C 
BRANCH  19  20
HETATM   20  C   UNL     1      41.301 -11.909   0.460  1.00  0.00     0.016 A 
HETATM   21  C   UNL     1      40.680 -11.941  -0.832  1.00  0.00     0.099 A 
HETATM   22  N   UNL     1      40.276 -10.713  -1.183  1.00  0.00    -0.174 NA
HETATM   23  N   UNL     1      40.481  -9.945  -0.111  1.00  0.00    -0.288 N 
HETATM   24  H   UNL     1      40.172  -8.975  -0.141  1.00  0.00     0.188 HD
HETATM   25  C   UNL     1      41.132 -10.603   0.889  1.00  0.00     0.120 A 
BRANCH  21  26
HETATM   26  C   UNL     1      40.493 -13.045  -1.773  1.00  0.00     0.034 A 
HETATM   27  C   UNL     1      41.563 -13.619  -2.467  1.00  0.00     0.129 A 
HETATM   28  F   UNL     1      42.805 -13.137  -2.329  1.00  0.00    -0.205 F 
HETATM   29  C   UNL     1      41.377 -14.711  -3.314  1.00  0.00     0.043 A 
HETATM   30  C   UNL     1      40.105 -15.256  -3.473  1.00  0.00     0.003 A 
HETATM   31  C   UNL     1      39.025 -14.704  -2.787  1.00  0.00     0.001 A 
HETATM   32  C   UNL     1      39.218 -13.608  -1.942  1.00  0.00     0.017 A 
ENDBRANCH  21  26
ENDBRANCH  19  20
ENDBRANCH   1  19
TORSDOF 5
ENDMDL
MODEL 9
REMARK VINA RESULT:      -8.0      2.697      8.366
REMARK  5 active torsions:
REMARK  status: ('A' for Active; 'I' for Inactive)
REMARK    1  A    between atoms: C_8  and  N_9 
REMARK    2  A    between atoms: C_12  and  N_13 
REMARK    3  A    between atoms: N_13  and  C_15 
REMARK    4  A    between atoms: C_15  and  C_16 
REMARK    5  A    between atoms: C_17  and  C_18 
ROOT
HETATM    1  N   UNL     1      42.637 -15.760   5.066  1.00  0.00    -0.067 N 
HETATM    2  H   UNL     1      42.594 -15.858   6.087  1.00  0.00     0.280 HD
HETATM    3  C   UNL     1      43.308 -14.432   4.789  1.00  0.00     0.270 C 
ENDROOT
BRANCH   1   4
HETATM    4  C   UNL     1      41.222 -15.910   4.473  1.00  0.00     0.190 C 
HETATM    5  C   UNL     1      40.642 -14.542   4.073  1.00  0.00     0.048 C 
HETATM    6  C   UNL     1      41.218 -14.000   2.764  1.00  0.00     0.099 C 
HETATM    7  N   UNL     1      41.061 -15.012   1.711  1.00  0.00    -0.268 NA
HETATM    8  C   UNL     1      41.722 -16.291   1.991  1.00  0.00     0.099 C 
HETATM    9  C   UNL     1      41.141 -16.873   3.277  1.00  0.00     0.048 C 
BRANCH   7  10
HETATM   10  C   UNL     1      41.234 -14.525   0.407  1.00  0.00     0.109 A 
HETATM   11  N   UNL     1      40.864 -15.284  -0.641  1.00  0.00    -0.224 NA
HETATM   12  C   UNL     1      41.110 -14.816  -1.891  1.00  0.00     0.102 A 
HETATM   13  N   UNL     1      41.709 -13.642  -2.130  1.00  0.00    -0.348 N 
HETATM   14  C   UNL     1      40.734 -15.679  -3.054  1.00  0.00     0.091 C 
HETATM   15  C   UNL     1      42.088 -12.860  -1.109  1.00  0.00     0.009 A 
HETATM   16  H   UNL     1      41.884 -13.356  -3.093  1.00  0.00     0.167 HD
HETATM   17  C   UNL     1      42.770 -11.563  -1.399  1.00  0.00     0.068 C 
HETATM   18  C   UNL     1      41.855 -13.298   0.197  1.00  0.00     0.069 A 
ENDBRANCH   7  10
ENDBRANCH   1   4
BRANCH   1  19
HETATM   19  C   UNL     1      43.557 -16.898   4.584  1.00  0.00     0.277 C 
BRANCH  19  20
HETATM   20  C   UNL     1      43.771 -17.970   5.588  1.00  0.00     0.016 A 
HETATM   21  C   UNL     1      43.980 -19.376   5.401  1.00  0.00     0.099 A 
HETATM   22  N   UNL     1      44.014 -20.001   6.585  1.00  0.00    -0.174 NA
HETATM   23  N   UNL     1      43.985 -19.034   7.505  1.00  0.00    -0.288 N 
HETATM   24  H   UNL     1      44.075 -19.294   8.486  1.00  0.00     0.188 HD
HETATM   25  C   UNL     1      43.798 -17.800   6.962  1.00  0.00     0.120 A 
BRANCH  21  26
HETATM   26  C   UNL     1      44.095 -20.169   4.177  1.00  0.00     0.034 A 
HETATM   27  C   UNL     1      44.680 -21.438   4.166  1.00  0.00     0.129 A 
HETATM   28  F   UNL     1      45.207 -21.958   5.283  1.00  0.00    -0.205 F 
HETATM   29  C   UNL     1      44.726 -22.208   3.004  1.00  0.00     0.043 A 
HETATM   30  C   UNL     1      44.174 -21.714   1.824  1.00  0.00     0.003 A 
HETATM   31  C   UNL     1      43.581 -20.453   1.812  1.00  0.00     0.001 A 
HETATM   32  C   UNL     1      43.540 -19.687   2.981  1.00  0.00     0.017 A 
ENDBRANCH  21  26
ENDBRANCH  19  20
ENDBRANCH   1  19
TORSDOF 5
ENDMDL
MODEL 10
REMARK VINA RESULT:      -8.0      1.947      3.627
REMARK  5 active torsions:
REMARK  status: ('A' for Active; 'I' for Inactive)
REMARK    1  A    between atoms: C_8  and  N_9 
REMARK    2  A    between atoms: C_12  and  N_13 
REMARK    3  A    between atoms: N_13  and  C_15 
REMARK    4  A    between atoms: C_15  and  C_16 
REMARK    5  A    between atoms: C_17  and  C_18 
ROOT
HETATM    1  N   UNL     1      40.915 -13.667   1.258  1.00  0.00    -0.067 N 
HETATM    2  H   UNL     1      41.743 -14.226   1.018  1.00  0.00     0.280 HD
HETATM    3  C   UNL     1      41.424 -12.312   1.700  1.00  0.00     0.270 C 
ENDROOT
BRANCH   1   4
HETATM    4  C   UNL     1      40.071 -14.419   2.307  1.00  0.00     0.190 C 
HETATM    5  C   UNL     1      39.866 -15.888   1.901  1.00  0.00     0.048 C 
HETATM    6  C   UNL     1      41.095 -16.762   2.152  1.00  0.00     0.099 C 
HETATM    7  N   UNL     1      41.518 -16.614   3.550  1.00  0.00    -0.268 NA
HETATM    8  C   UNL     1      41.861 -15.243   3.941  1.00  0.00     0.099 C 
HETATM    9  C   UNL     1      40.639 -14.353   3.734  1.00  0.00     0.048 C 
BRANCH   7  10
HETATM   10  C   UNL     1      42.410 -17.601   3.996  1.00  0.00     0.109 A 
HETATM   11  N   UNL     1      43.000 -18.416   3.102  1.00  0.00    -0.224 NA
HETATM   12  C   UNL     1      43.802 -19.407   3.569  1.00  0.00     0.102 A 
HETATM   13  N   UNL     1      44.027 -19.616   4.873  1.00  0.00    -0.348 N 
HETATM   14  C   UNL     1      44.425 -20.336   2.576  1.00  0.00     0.091 C 
HETATM   15  C   UNL     1      43.455 -18.821   5.789  1.00  0.00     0.009 A 
HETATM   16  H   UNL     1      44.623 -20.390   5.160  1.00  0.00     0.167 HD
HETATM   17  C   UNL     1      43.706 -19.084   7.238  1.00  0.00     0.068 C 
HETATM   18  C   UNL     1      42.622 -17.786   5.358  1.00  0.00     0.069 A 
ENDBRANCH   7  10
ENDBRANCH   1   4
BRANCH   1  19
HETATM   19  C   UNL     1      40.135 -13.505  -0.060  1.00  0.00     0.277 C 
BRANCH  19  20
HETATM   20  C   UNL     1      40.820 -14.083  -1.244  1.00  0.00     0.016 A 
HETATM   21  C   UNL     1      41.619 -13.443  -2.247  1.00  0.00     0.099 A 
HETATM   22  N   UNL     1      41.951 -14.319  -3.205  1.00  0.00    -0.174 NA
HETATM   23  N   UNL     1      41.522 -15.507  -2.772  1.00  0.00    -0.288 N 
HETATM   24  H   UNL     1      41.738 -16.333  -3.327  1.00  0.00     0.188 HD
HETATM   25  C   UNL     1      40.801 -15.416  -1.620  1.00  0.00     0.120 A 
BRANCH  21  26
HETATM   26  C   UNL     1      42.042 -12.049  -2.383  1.00  0.00     0.034 A 
HETATM   27  C   UNL     1      41.438 -11.174  -3.291  1.00  0.00     0.129 A 
HETATM   28  F   UNL     1      40.471 -11.603  -4.114  1.00  0.00    -0.205 F 
HETATM   29  C   UNL     1      41.810  -9.833  -3.366  1.00  0.00     0.043 A 
HETATM   30  C   UNL     1      42.799  -9.340  -2.516  1.00  0.00     0.003 A 
HETATM   31  C   UNL     1      43.411 -10.192  -1.600  1.00  0.00     0.001 A 
HETATM   32  C   UNL     1      43.034 -11.536  -1.532  1.00  0.00     0.017 A 
ENDBRANCH  21  26
ENDBRANCH  19  20
ENDBRANCH   1  19
TORSDOF 5
ENDMDL
