MODEL 1
REMARK VINA RESULT:      -8.3      0.000      0.000
REMARK  5 active torsions:
REMARK  status: ('A' for Active; 'I' for Inactive)
REMARK    1  A    between atoms: C_2  and  N_3 
REMARK    2  A    between atoms: C_2  and  C_21 
REMARK       I    between atoms: N_3  and  C_5 
REMARK       I    between atoms: C_5  and  N_6 
REMARK    3  A    between atoms: N_6  and  C_7 
REMARK    4  A    between atoms: C_7  and  C_8 
REMARK    5  A    between atoms: C_10  and  C_11 
ROOT
HETATM    1  N   UNL     1      44.474 -14.224   7.880  1.00  0.00    -0.218 N 
HETATM    2  H   UNL     1      44.797 -14.799   8.643  1.00  0.00     0.178 HD
HETATM    3  C   UNL     1      43.743 -14.859   6.935  1.00  0.00     0.670 C 
HETATM    4  N   UNL     1      43.431 -14.240   5.771  1.00  0.00    -0.221 N 
HETATM    5  N   UNL     1      43.327 -16.125   7.168  1.00  0.00    -0.231 N 
HETATM    6  C   UNL     1      43.428 -16.849   8.430  1.00  0.00     0.165 C 
HETATM    7  H   UNL     1      43.972 -13.421   5.533  1.00  0.00     0.178 HD
HETATM    8  H   UNL     1      43.091 -16.658   6.329  1.00  0.00     0.177 HD
ENDROOT
BRANCH   4   9
HETATM    9  C   UNL     1      42.416 -14.690   4.806  1.00  0.00     0.199 C 
BRANCH   9  10
HETATM   10  C   UNL     1      42.967 -15.734   3.909  1.00  0.00     0.077 A 
HETATM   11  N   UNL     1      42.896 -17.073   4.246  1.00  0.00    -0.225 NA
HETATM   12  C   UNL     1      43.498 -17.689   3.240  1.00  0.00     0.179 A 
HETATM   13  O   UNL     1      43.901 -16.847   2.238  1.00  0.00    -0.301 OA
HETATM   14  C   UNL     1      43.561 -15.604   2.677  1.00  0.00     0.173 A 
BRANCH  12  15
HETATM   15  C   UNL     1      43.812 -19.105   3.081  1.00  0.00     0.017 A 
HETATM   16  C   UNL     1      43.347 -19.796   1.951  1.00  0.00     0.016 A 
HETATM   17  C   UNL     1      43.619 -21.155   1.782  1.00  0.00     0.001 A 
HETATM   18  C   UNL     1      44.369 -21.837   2.737  1.00  0.00     0.000 A 
HETATM   19  C   UNL     1      44.844 -21.164   3.862  1.00  0.00     0.001 A 
HETATM   20  C   UNL     1      44.564 -19.806   4.035  1.00  0.00     0.016 A 
ENDBRANCH  12  15
ENDBRANCH   9  10
ENDBRANCH   4   9
BRANCH   1  21
HETATM   21  C   UNL     1      44.884 -12.806   7.946  1.00  0.00     0.135 C 
HETATM   22  C   UNL     1      46.393 -12.614   7.809  1.00  0.00     0.038 C 
BRANCH  21  23
HETATM   23  C   UNL     1      44.312 -12.108   9.157  1.00  0.00     0.005 A 
HETATM   24  S   UNL     1      42.994 -11.008   9.066  1.00  0.00    -0.104 SA
HETATM   25  C   UNL     1      43.030 -10.700  10.743  1.00  0.00     0.050 A 
HETATM   26  C   UNL     1      44.026 -11.406  11.375  1.00  0.00     0.008 A 
HETATM   27  C   UNL     1      44.768 -12.211  10.461  1.00  0.00     0.017 A 
ENDBRANCH  21  23
ENDBRANCH   1  21
TORSDOF 5
ENDMDL
MODEL 2
REMARK VINA RESULT:      -8.2      3.480      5.715
REMARK  5 active torsions:
REMARK  status: ('A' for Active; 'I' for Inactive)
REMARK    1  A    between atoms: C_2  and  N_3 
REMARK    2  A    between atoms: C_2  and  C_21 
REMARK       I    between atoms: N_3  and  C_5 
REMARK       I    between atoms: C_5  and  N_6 
REMARK    3  A    between atoms: N_6  and  C_7 
REMARK    4  A    between atoms: C_7  and  C_8 
REMARK    5  A    between atoms: C_10  and  C_11 
ROOT
HETATM    1  N   UNL     1      41.697 -13.642   3.902  1.00  0.00    -0.218 N 
HETATM    2  H   UNL     1      40.896 -13.028   3.878  1.00  0.00     0.178 HD
HETATM    3  C   UNL     1      42.050 -14.099   5.126  1.00  0.00     0.670 C 
HETATM    4  N   UNL     1      43.218 -14.761   5.305  1.00  0.00    -0.221 N 
HETATM    5  N   UNL     1      41.217 -13.885   6.171  1.00  0.00    -0.231 N 
HETATM    6  C   UNL     1      39.861 -13.356   6.101  1.00  0.00     0.165 C 
HETATM    7  H   UNL     1      43.911 -14.664   4.577  1.00  0.00     0.178 HD
HETATM    8  H   UNL     1      41.664 -13.937   7.088  1.00  0.00     0.177 HD
ENDROOT
BRANCH   4   9
HETATM    9  C   UNL     1      43.580 -15.554   6.490  1.00  0.00     0.199 C 
BRANCH   9  10
HETATM   10  C   UNL     1      44.093 -16.888   6.095  1.00  0.00     0.077 A 
HETATM   11  N   UNL     1      43.705 -17.477   4.906  1.00  0.00    -0.225 NA
HETATM   12  C   UNL     1      44.331 -18.644   4.906  1.00  0.00     0.179 A 
HETATM   13  O   UNL     1      45.153 -18.829   5.986  1.00  0.00    -0.301 OA
HETATM   14  C   UNL     1      44.991 -17.706   6.737  1.00  0.00     0.173 A 
BRANCH  12  15
HETATM   15  C   UNL     1      44.235 -19.742   3.952  1.00  0.00     0.017 A 
HETATM   16  C   UNL     1      44.756 -21.001   4.288  1.00  0.00     0.016 A 
HETATM   17  C   UNL     1      44.691 -22.065   3.386  1.00  0.00     0.001 A 
HETATM   18  C   UNL     1      44.096 -21.885   2.140  1.00  0.00     0.000 A 
HETATM   19  C   UNL     1      43.568 -20.643   1.793  1.00  0.00     0.001 A 
HETATM   20  C   UNL     1      43.640 -19.576   2.692  1.00  0.00     0.016 A 
ENDBRANCH  12  15
ENDBRANCH   9  10
ENDBRANCH   4   9
BRANCH   1  21
HETATM   21  C   UNL     1      42.328 -13.901   2.591  1.00  0.00     0.135 C 
HETATM   22  C   UNL     1      42.172 -12.738   1.614  1.00  0.00     0.038 C 
BRANCH  21  23
HETATM   23  C   UNL     1      41.890 -15.222   2.005  1.00  0.00     0.005 A 
HETATM   24  S   UNL     1      40.327 -15.889   2.264  1.00  0.00    -0.104 SA
HETATM   25  C   UNL     1      40.680 -17.283   1.347  1.00  0.00     0.050 A 
HETATM   26  C   UNL     1      41.963 -17.262   0.853  1.00  0.00     0.008 A 
HETATM   27  C   UNL     1      42.661 -16.080   1.236  1.00  0.00     0.017 A 
ENDBRANCH  21  23
ENDBRANCH   1  21
TORSDOF 5
ENDMDL
MODEL 3
REMARK VINA RESULT:      -8.1      2.527      3.741
REMARK  5 active torsions:
REMARK  status: ('A' for Active; 'I' for Inactive)
REMARK    1  A    between atoms: C_2  and  N_3 
REMARK    2  A    between atoms: C_2  and  C_21 
REMARK       I    between atoms: N_3  and  C_5 
REMARK       I    between atoms: C_5  and  N_6 
REMARK    3  A    between atoms: N_6  and  C_7 
REMARK    4  A    between atoms: C_7  and  C_8 
REMARK    5  A    between atoms: C_10  and  C_11 
ROOT
HETATM    1  N   UNL     1      42.843 -14.050   6.476  1.00  0.00    -0.218 N 
HETATM    2  H   UNL     1      42.184 -13.529   7.036  1.00  0.00     0.178 HD
HETATM    3  C   UNL     1      42.531 -14.171   5.164  1.00  0.00     0.670 C 
HETATM    4  N   UNL     1      43.229 -15.013   4.364  1.00  0.00    -0.221 N 
HETATM    5  N   UNL     1      41.511 -13.438   4.662  1.00  0.00    -0.231 N 
HETATM    6  C   UNL     1      40.796 -12.369   5.348  1.00  0.00     0.165 C 
HETATM    7  H   UNL     1      43.787 -15.717   4.823  1.00  0.00     0.178 HD
HETATM    8  H   UNL     1      41.110 -13.803   3.797  1.00  0.00     0.177 HD
ENDROOT
BRANCH   4   9
HETATM    9  C   UNL     1      43.195 -15.021   2.893  1.00  0.00     0.199 C 
BRANCH   9  10
HETATM   10  C   UNL     1      43.355 -16.398   2.369  1.00  0.00     0.077 A 
HETATM   11  N   UNL     1      43.582 -17.463   3.222  1.00  0.00    -0.225 NA
HETATM   12  C   UNL     1      43.694 -18.505   2.412  1.00  0.00     0.179 A 
HETATM   13  O   UNL     1      43.490 -18.202   1.092  1.00  0.00    -0.301 OA
HETATM   14  C   UNL     1      43.279 -16.858   1.077  1.00  0.00     0.173 A 
BRANCH  12  15
HETATM   15  C   UNL     1      44.031 -19.888   2.730  1.00  0.00     0.017 A 
HETATM   16  C   UNL     1      43.817 -20.891   1.772  1.00  0.00     0.016 A 
HETATM   17  C   UNL     1      44.116 -22.225   2.056  1.00  0.00     0.001 A 
HETATM   18  C   UNL     1      44.642 -22.570   3.299  1.00  0.00     0.000 A 
HETATM   19  C   UNL     1      44.867 -21.585   4.258  1.00  0.00     0.001 A 
HETATM   20  C   UNL     1      44.559 -20.251   3.977  1.00  0.00     0.016 A 
ENDBRANCH  12  15
ENDBRANCH   9  10
ENDBRANCH   4   9
BRANCH   1  21
HETATM   21  C   UNL     1      44.004 -14.589   7.213  1.00  0.00     0.135 C 
HETATM   22  C   UNL     1      45.317 -13.906   6.838  1.00  0.00     0.038 C 
BRANCH  21  23
HETATM   23  C   UNL     1      44.081 -16.095   7.124  1.00  0.00     0.005 A 
HETATM   24  S   UNL     1      42.823 -17.129   7.677  1.00  0.00    -0.104 SA
HETATM   25  C   UNL     1      43.687 -18.538   7.258  1.00  0.00     0.050 A 
HETATM   26  C   UNL     1      44.916 -18.246   6.715  1.00  0.00     0.008 A 
HETATM   27  C   UNL     1      45.145 -16.841   6.644  1.00  0.00     0.017 A 
ENDBRANCH  21  23
ENDBRANCH   1  21
TORSDOF 5
ENDMDL
MODEL 4
REMARK VINA RESULT:      -7.8      2.453      4.961
REMARK  5 active torsions:
REMARK  status: ('A' for Active; 'I' for Inactive)
REMARK    1  A    between atoms: C_2  and  N_3 
REMARK    2  A    between atoms: C_2  and  C_21 
REMARK       I    between atoms: N_3  and  C_5 
REMARK       I    between atoms: C_5  and  N_6 
REMARK    3  A    between atoms: N_6  and  C_7 
REMARK    4  A    between atoms: C_7  and  C_8 
REMARK    5  A    between atoms: C_10  and  C_11 
ROOT
HETATM    1  N   UNL     1      42.899 -13.666   6.068  1.00  0.00    -0.218 N 
HETATM    2  H   UNL     1      43.338 -12.758   6.107  1.00  0.00     0.178 HD
HETATM    3  C   UNL     1      43.415 -14.604   6.898  1.00  0.00     0.670 C 
HETATM    4  N   UNL     1      43.043 -15.902   6.788  1.00  0.00    -0.221 N 
HETATM    5  N   UNL     1      44.310 -14.225   7.839  1.00  0.00    -0.231 N 
HETATM    6  C   UNL     1      44.665 -12.857   8.193  1.00  0.00     0.165 C 
HETATM    7  H   UNL     1      42.594 -16.174   5.925  1.00  0.00     0.178 HD
HETATM    8  H   UNL     1      44.902 -14.979   8.191  1.00  0.00     0.177 HD
ENDROOT
BRANCH   4   9
HETATM    9  C   UNL     1      43.290 -16.951   7.789  1.00  0.00     0.199 C 
BRANCH   9  10
HETATM   10  C   UNL     1      43.596 -18.245   7.134  1.00  0.00     0.077 A 
HETATM   11  N   UNL     1      43.713 -18.337   5.759  1.00  0.00    -0.225 NA
HETATM   12  C   UNL     1      43.961 -19.620   5.543  1.00  0.00     0.179 A 
HETATM   13  O   UNL     1      44.078 -20.360   6.689  1.00  0.00    -0.301 OA
HETATM   14  C   UNL     1      43.841 -19.474   7.696  1.00  0.00     0.173 A 
BRANCH  12  15
HETATM   15  C   UNL     1      44.087 -20.334   4.278  1.00  0.00     0.017 A 
HETATM   16  C   UNL     1      43.709 -19.702   3.083  1.00  0.00     0.016 A 
HETATM   17  C   UNL     1      43.805 -20.369   1.861  1.00  0.00     0.001 A 
HETATM   18  C   UNL     1      44.288 -21.675   1.817  1.00  0.00     0.000 A 
HETATM   19  C   UNL     1      44.673 -22.315   2.994  1.00  0.00     0.001 A 
HETATM   20  C   UNL     1      44.569 -21.650   4.218  1.00  0.00     0.016 A 
ENDBRANCH  12  15
ENDBRANCH   9  10
ENDBRANCH   4   9
BRANCH   1  21
HETATM   21  C   UNL     1      41.791 -13.786   5.098  1.00  0.00     0.135 C 
HETATM   22  C   UNL     1      40.442 -14.052   5.763  1.00  0.00     0.038 C 
BRANCH  21  23
HETATM   23  C   UNL     1      42.107 -14.772   3.999  1.00  0.00     0.005 A 
HETATM   24  S   UNL     1      40.998 -15.978   3.477  1.00  0.00    -0.104 SA
HETATM   25  C   UNL     1      42.094 -16.606   2.332  1.00  0.00     0.050 A 
HETATM   26  C   UNL     1      43.291 -15.928   2.339  1.00  0.00     0.008 A 
HETATM   27  C   UNL     1      43.300 -14.878   3.302  1.00  0.00     0.017 A 
ENDBRANCH  21  23
ENDBRANCH   1  21
TORSDOF 5
ENDMDL
MODEL 5
REMARK VINA RESULT:      -7.7      3.491      4.762
REMARK  5 active torsions:
REMARK  status: ('A' for Active; 'I' for Inactive)
REMARK    1  A    between atoms: C_2  and  N_3 
REMARK    2  A    between atoms: C_2  and  C_21 
REMARK       I    between atoms: N_3  and  C_5 
REMARK       I    between atoms: C_5  and  N_6 
REMARK    3  A    between atoms: N_6  and  C_7 
REMARK    4  A    between atoms: C_7  and  C_8 
REMARK    5  A    between atoms: C_10  and  C_11 
ROOT
HETATM    1  N   UNL     1      40.132 -13.019   4.155  1.00  0.00    -0.218 N 
HETATM    2  H   UNL     1      40.404 -12.047   4.168  1.00  0.00     0.178 HD
HETATM    3  C   UNL     1      39.960 -13.565   2.928  1.00  0.00     0.670 C 
HETATM    4  N   UNL     1      39.403 -14.792   2.791  1.00  0.00    -0.221 N 
HETATM    5  N   UNL     1      40.352 -12.866   1.839  1.00  0.00    -0.231 N 
HETATM    6  C   UNL     1      41.122 -11.628   1.837  1.00  0.00     0.165 C 
HETATM    7  H   UNL     1      38.894 -15.152   3.586  1.00  0.00     0.178 HD
HETATM    8  H   UNL     1      39.907 -13.152   0.966  1.00  0.00     0.177 HD
ENDROOT
BRANCH   4   9
HETATM    9  C   UNL     1      39.430 -15.613   1.570  1.00  0.00     0.199 C 
BRANCH   9  10
HETATM   10  C   UNL     1      40.708 -16.355   1.461  1.00  0.00     0.077 A 
HETATM   11  N   UNL     1      41.028 -17.359   2.357  1.00  0.00    -0.225 NA
HETATM   12  C   UNL     1      42.227 -17.765   1.969  1.00  0.00     0.179 A 
HETATM   13  O   UNL     1      42.685 -17.138   0.841  1.00  0.00    -0.301 OA
HETATM   14  C   UNL     1      41.711 -16.239   0.529  1.00  0.00     0.173 A 
BRANCH  12  15
HETATM   15  C   UNL     1      43.115 -18.742   2.589  1.00  0.00     0.017 A 
HETATM   16  C   UNL     1      43.465 -19.906   1.887  1.00  0.00     0.016 A 
HETATM   17  C   UNL     1      44.301 -20.864   2.465  1.00  0.00     0.001 A 
HETATM   18  C   UNL     1      44.804 -20.665   3.748  1.00  0.00     0.000 A 
HETATM   19  C   UNL     1      44.472 -19.511   4.456  1.00  0.00     0.001 A 
HETATM   20  C   UNL     1      43.629 -18.556   3.881  1.00  0.00     0.016 A 
ENDBRANCH  12  15
ENDBRANCH   9  10
ENDBRANCH   4   9
BRANCH   1  21
HETATM   21  C   UNL     1      39.960 -13.640   5.485  1.00  0.00     0.135 C 
HETATM   22  C   UNL     1      39.619 -12.627   6.576  1.00  0.00     0.038 C 
BRANCH  21  23
HETATM   23  C   UNL     1      41.129 -14.523   5.851  1.00  0.00     0.005 A 
HETATM   24  S   UNL     1      42.757 -13.971   5.844  1.00  0.00    -0.104 SA
HETATM   25  C   UNL     1      43.363 -15.496   6.309  1.00  0.00     0.050 A 
HETATM   26  C   UNL     1      42.359 -16.423   6.461  1.00  0.00     0.008 A 
HETATM   27  C   UNL     1      41.075 -15.865   6.192  1.00  0.00     0.017 A 
ENDBRANCH  21  23
ENDBRANCH   1  21
TORSDOF 5
ENDMDL
MODEL 6
REMARK VINA RESULT:      -7.6      5.700      8.925
REMARK  5 active torsions:
REMARK  status: ('A' for Active; 'I' for Inactive)
REMARK    1  A    between atoms: C_2  and  N_3 
REMARK    2  A    between atoms: C_2  and  C_21 
REMARK       I    between atoms: N_3  and  C_5 
REMARK       I    between atoms: C_5  and  N_6 
REMARK    3  A    between atoms: N_6  and  C_7 
REMARK    4  A    between atoms: C_7  and  C_8 
REMARK    5  A    between atoms: C_10  and  C_11 
ROOT
HETATM    1  N   UNL     1      40.433 -13.865  -1.319  1.00  0.00    -0.218 N 
HETATM    2  H   UNL     1      40.834 -12.988  -1.618  1.00  0.00     0.178 HD
HETATM    3  C   UNL     1      40.326 -14.035   0.020  1.00  0.00     0.670 C 
HETATM    4  N   UNL     1      39.995 -15.242   0.538  1.00  0.00    -0.221 N 
HETATM    5  N   UNL     1      40.555 -12.980   0.835  1.00  0.00    -0.231 N 
HETATM    6  C   UNL     1      40.739 -11.593   0.423  1.00  0.00     0.165 C 
HETATM    7  H   UNL     1      40.094 -16.040  -0.072  1.00  0.00     0.178 HD
HETATM    8  H   UNL     1      40.792 -13.228   1.796  1.00  0.00     0.177 HD
ENDROOT
BRANCH   4   9
HETATM    9  C   UNL     1      39.561 -15.490   1.921  1.00  0.00     0.199 C 
BRANCH   9  10
HETATM   10  C   UNL     1      40.611 -16.208   2.683  1.00  0.00     0.077 A 
HETATM   11  N   UNL     1      41.283 -17.282   2.130  1.00  0.00    -0.225 NA
HETATM   12  C   UNL     1      42.108 -17.673   3.089  1.00  0.00     0.179 A 
HETATM   13  O   UNL     1      42.066 -16.885   4.209  1.00  0.00    -0.301 OA
HETATM   14  C   UNL     1      41.106 -15.958   3.940  1.00  0.00     0.173 A 
BRANCH  12  15
HETATM   15  C   UNL     1      43.006 -18.821   3.122  1.00  0.00     0.017 A 
HETATM   16  C   UNL     1      43.819 -19.035   4.247  1.00  0.00     0.016 A 
HETATM   17  C   UNL     1      44.699 -20.118   4.297  1.00  0.00     0.001 A 
HETATM   18  C   UNL     1      44.770 -21.006   3.226  1.00  0.00     0.000 A 
HETATM   19  C   UNL     1      43.965 -20.812   2.105  1.00  0.00     0.001 A 
HETATM   20  C   UNL     1      43.091 -19.724   2.051  1.00  0.00     0.016 A 
ENDBRANCH  12  15
ENDBRANCH   9  10
ENDBRANCH   4   9
BRANCH   1  21
HETATM   21  C   UNL     1      40.062 -14.790  -2.410  1.00  0.00     0.135 C 
HETATM   22  C   UNL     1      41.198 -15.028  -3.402  1.00  0.00     0.038 C 
BRANCH  21  23
HETATM   23  C   UNL     1      38.773 -14.383  -3.082  1.00  0.00     0.005 A 
HETATM   24  S   UNL     1      38.204 -12.761  -3.109  1.00  0.00    -0.104 SA
HETATM   25  C   UNL     1      36.793 -13.184  -3.969  1.00  0.00     0.050 A 
HETATM   26  C   UNL     1      36.735 -14.532  -4.230  1.00  0.00     0.008 A 
HETATM   27  C   UNL     1      37.870 -15.223  -3.715  1.00  0.00     0.017 A 
ENDBRANCH  21  23
ENDBRANCH   1  21
TORSDOF 5
ENDMDL
MODEL 7
REMARK VINA RESULT:      -7.6      1.431      2.440
REMARK  5 active torsions:
REMARK  status: ('A' for Active; 'I' for Inactive)
REMARK    1  A    between atoms: C_2  and  N_3 
REMARK    2  A    between atoms: C_2  and  C_21 
REMARK       I    between atoms: N_3  and  C_5 
REMARK       I    between atoms: C_5  and  N_6 
REMARK    3  A    between atoms: N_6  and  C_7 
REMARK    4  A    between atoms: C_7  and  C_8 
REMARK    5  A    between atoms: C_10  and  C_11 
ROOT
HETATM    1  N   UNL     1      42.720 -13.455   6.592  1.00  0.00    -0.218 N 
HETATM    2  H   UNL     1      42.165 -13.028   7.319  1.00  0.00     0.178 HD
HETATM    3  C   UNL     1      42.072 -13.704   5.430  1.00  0.00     0.670 C 
HETATM    4  N   UNL     1      42.653 -14.454   4.462  1.00  0.00    -0.221 N 
HETATM    5  N   UNL     1      40.832 -13.194   5.248  1.00  0.00    -0.231 N 
HETATM    6  C   UNL     1      40.158 -12.231   6.110  1.00  0.00     0.165 C 
HETATM    7  H   UNL     1      43.441 -15.021   4.740  1.00  0.00     0.178 HD
HETATM    8  H   UNL     1      40.274 -13.674   4.539  1.00  0.00     0.177 HD
ENDROOT
BRANCH   4   9
HETATM    9  C   UNL     1      42.199 -14.552   3.067  1.00  0.00     0.199 C 
BRANCH   9  10
HETATM   10  C   UNL     1      42.540 -15.876   2.493  1.00  0.00     0.077 A 
HETATM   11  N   UNL     1      42.877 -16.941   3.309  1.00  0.00    -0.225 NA
HETATM   12  C   UNL     1      43.135 -17.925   2.462  1.00  0.00     0.179 A 
HETATM   13  O   UNL     1      42.926 -17.594   1.150  1.00  0.00    -0.301 OA
HETATM   14  C   UNL     1      42.551 -16.286   1.182  1.00  0.00     0.173 A 
BRANCH  12  15
HETATM   15  C   UNL     1      43.632 -19.269   2.734  1.00  0.00     0.017 A 
HETATM   16  C   UNL     1      44.281 -19.536   3.950  1.00  0.00     0.016 A 
HETATM   17  C   UNL     1      44.781 -20.810   4.229  1.00  0.00     0.001 A 
HETATM   18  C   UNL     1      44.629 -21.835   3.298  1.00  0.00     0.000 A 
HETATM   19  C   UNL     1      43.982 -21.588   2.088  1.00  0.00     0.001 A 
HETATM   20  C   UNL     1      43.490 -20.311   1.806  1.00  0.00     0.016 A 
ENDBRANCH  12  15
ENDBRANCH   9  10
ENDBRANCH   4   9
BRANCH   1  21
HETATM   21  C   UNL     1      44.123 -13.736   6.957  1.00  0.00     0.135 C 
HETATM   22  C   UNL     1      44.357 -15.193   7.351  1.00  0.00     0.038 C 
BRANCH  21  23
HETATM   23  C   UNL     1      44.647 -12.760   7.983  1.00  0.00     0.005 A 
HETATM   24  S   UNL     1      43.622 -11.725   8.897  1.00  0.00    -0.104 SA
HETATM   25  C   UNL     1      44.937 -11.006   9.710  1.00  0.00     0.050 A 
HETATM   26  C   UNL     1      46.142 -11.525   9.299  1.00  0.00     0.008 A 
HETATM   27  C   UNL     1      45.975 -12.529   8.302  1.00  0.00     0.017 A 
ENDBRANCH  21  23
ENDBRANCH   1  21
TORSDOF 5
ENDMDL
MODEL 8
REMARK VINA RESULT:      -7.5      3.380      5.687
REMARK  5 active torsions:
REMARK  status: ('A' for Active; 'I' for Inactive)
REMARK    1  A    between atoms: C_2  and  N_3 
REMARK    2  A    between atoms: C_2  and  C_21 
REMARK       I    between atoms: N_3  and  C_5 
REMARK       I    between atoms: C_5  and  N_6 
REMARK    3  A    between atoms: N_6  and  C_7 
REMARK    4  A    between atoms: C_7  and  C_8 
REMARK    5  A    between atoms: C_10  and  C_11 
ROOT
HETATM    1  N   UNL     1      41.268 -13.164   4.007  1.00  0.00    -0.218 N 
HETATM    2  H   UNL     1      40.801 -12.271   4.056  1.00  0.00     0.178 HD
HETATM    3  C   UNL     1      41.869 -13.575   5.148  1.00  0.00     0.670 C 
HETATM    4  N   UNL     1      42.693 -14.651   5.146  1.00  0.00    -0.221 N 
HETATM    5  N   UNL     1      41.637 -12.894   6.294  1.00  0.00    -0.231 N 
HETATM    6  C   UNL     1      40.648 -11.842   6.488  1.00  0.00     0.165 C 
HETATM    7  H   UNL     1      43.039 -14.956   4.247  1.00  0.00     0.178 HD
HETATM    8  H   UNL     1      42.347 -13.022   7.017  1.00  0.00     0.177 HD
ENDROOT
BRANCH   4   9
HETATM    9  C   UNL     1      43.164 -15.371   6.338  1.00  0.00     0.199 C 
BRANCH   9  10
HETATM   10  C   UNL     1      43.788 -16.663   5.962  1.00  0.00     0.077 A 
HETATM   11  N   UNL     1      43.418 -17.322   4.804  1.00  0.00    -0.225 NA
HETATM   12  C   UNL     1      44.151 -18.425   4.815  1.00  0.00     0.179 A 
HETATM   13  O   UNL     1      45.022 -18.499   5.869  1.00  0.00    -0.301 OA
HETATM   14  C   UNL     1      44.779 -17.373   6.595  1.00  0.00     0.173 A 
BRANCH  12  15
HETATM   15  C   UNL     1      44.128 -19.556   3.895  1.00  0.00     0.017 A 
HETATM   16  C   UNL     1      43.497 -19.424   2.648  1.00  0.00     0.016 A 
HETATM   17  C   UNL     1      43.447 -20.496   1.755  1.00  0.00     0.001 A 
HETATM   18  C   UNL     1      44.037 -21.712   2.095  1.00  0.00     0.000 A 
HETATM   19  C   UNL     1      44.673 -21.857   3.326  1.00  0.00     0.001 A 
HETATM   20  C   UNL     1      44.716 -20.787   4.223  1.00  0.00     0.016 A 
ENDBRANCH  12  15
ENDBRANCH   9  10
ENDBRANCH   4   9
BRANCH   1  21
HETATM   21  C   UNL     1      41.212 -13.829   2.689  1.00  0.00     0.135 C 
HETATM   22  C   UNL     1      42.353 -13.415   1.763  1.00  0.00     0.038 C 
BRANCH  21  23
HETATM   23  C   UNL     1      39.854 -13.692   2.044  1.00  0.00     0.005 A 
HETATM   24  S   UNL     1      39.050 -12.183   1.870  1.00  0.00    -0.104 SA
HETATM   25  C   UNL     1      37.688 -12.900   1.135  1.00  0.00     0.050 A 
HETATM   26  C   UNL     1      37.822 -14.264   1.025  1.00  0.00     0.008 A 
HETATM   27  C   UNL     1      39.065 -14.720   1.554  1.00  0.00     0.017 A 
ENDBRANCH  21  23
ENDBRANCH   1  21
TORSDOF 5
ENDMDL
MODEL 9
REMARK VINA RESULT:      -7.5      3.657      9.159
REMARK  5 active torsions:
REMARK  status: ('A' for Active; 'I' for Inactive)
REMARK    1  A    between atoms: C_2  and  N_3 
REMARK    2  A    between atoms: C_2  and  C_21 
REMARK       I    between atoms: N_3  and  C_5 
REMARK       I    between atoms: C_5  and  N_6 
REMARK    3  A    between atoms: N_6  and  C_7 
REMARK    4  A    between atoms: C_7  and  C_8 
REMARK    5  A    between atoms: C_10  and  C_11 
ROOT
HETATM    1  N   UNL     1      41.875 -15.362   6.240  1.00  0.00    -0.218 N 
HETATM    2  H   UNL     1      41.361 -16.184   6.519  1.00  0.00     0.178 HD
HETATM    3  C   UNL     1      43.039 -15.147   6.897  1.00  0.00     0.670 C 
HETATM    4  N   UNL     1      43.708 -13.977   6.752  1.00  0.00    -0.221 N 
HETATM    5  N   UNL     1      43.526 -16.118   7.702  1.00  0.00    -0.231 N 
HETATM    6  C   UNL     1      43.021 -17.481   7.816  1.00  0.00     0.165 C 
HETATM    7  H   UNL     1      43.188 -13.202   6.366  1.00  0.00     0.178 HD
HETATM    8  H   UNL     1      44.188 -15.793   8.409  1.00  0.00     0.177 HD
ENDROOT
BRANCH   4   9
HETATM    9  C   UNL     1      45.099 -13.730   7.160  1.00  0.00     0.199 C 
BRANCH   9  10
HETATM   10  C   UNL     1      45.173 -12.620   8.139  1.00  0.00     0.077 A 
HETATM   11  N   UNL     1      44.099 -12.318   8.956  1.00  0.00    -0.225 NA
HETATM   12  C   UNL     1      44.515 -11.279   9.663  1.00  0.00     0.179 A 
HETATM   13  O   UNL     1      45.812 -10.921   9.408  1.00  0.00    -0.301 OA
HETATM   14  C   UNL     1      46.220 -11.780   8.434  1.00  0.00     0.173 A 
BRANCH  12  15
HETATM   15  C   UNL     1      43.782 -10.465  10.625  1.00  0.00     0.017 A 
HETATM   16  C   UNL     1      42.662  -9.730  10.202  1.00  0.00     0.016 A 
HETATM   17  C   UNL     1      41.952  -8.930  11.100  1.00  0.00     0.001 A 
HETATM   18  C   UNL     1      42.347  -8.863  12.434  1.00  0.00     0.000 A 
HETATM   19  C   UNL     1      43.452  -9.591  12.871  1.00  0.00     0.001 A 
HETATM   20  C   UNL     1      44.168 -10.385  11.971  1.00  0.00     0.016 A 
ENDBRANCH  12  15
ENDBRANCH   9  10
ENDBRANCH   4   9
BRANCH   1  21
HETATM   21  C   UNL     1      41.238 -14.552   5.181  1.00  0.00     0.135 C 
HETATM   22  C   UNL     1      39.985 -13.822   5.660  1.00  0.00     0.038 C 
BRANCH  21  23
HETATM   23  C   UNL     1      41.004 -15.352   3.922  1.00  0.00     0.005 A 
HETATM   24  S   UNL     1      39.927 -14.849   2.680  1.00  0.00    -0.104 SA
HETATM   25  C   UNL     1      40.229 -16.240   1.741  1.00  0.00     0.050 A 
HETATM   26  C   UNL     1      41.124 -17.087   2.350  1.00  0.00     0.008 A 
HETATM   27  C   UNL     1      41.565 -16.580   3.607  1.00  0.00     0.017 A 
ENDBRANCH  21  23
ENDBRANCH   1  21
TORSDOF 5
ENDMDL
MODEL 10
REMARK VINA RESULT:      -7.3      4.421      6.675
REMARK  5 active torsions:
REMARK  status: ('A' for Active; 'I' for Inactive)
REMARK    1  A    between atoms: C_2  and  N_3 
REMARK    2  A    between atoms: C_2  and  C_21 
REMARK       I    between atoms: N_3  and  C_5 
REMARK       I    between atoms: C_5  and  N_6 
REMARK    3  A    between atoms: N_6  and  C_7 
REMARK    4  A    between atoms: C_7  and  C_8 
REMARK    5  A    between atoms: C_10  and  C_11 
ROOT
HETATM    1  N   UNL     1      42.036 -12.102   1.590  1.00  0.00    -0.218 N 
HETATM    2  H   UNL     1      41.805 -11.139   1.786  1.00  0.00     0.178 HD
HETATM    3  C   UNL     1      42.355 -12.859   2.666  1.00  0.00     0.670 C 
HETATM    4  N   UNL     1      42.876 -14.100   2.507  1.00  0.00    -0.221 N 
HETATM    5  N   UNL     1      42.146 -12.359   3.905  1.00  0.00    -0.231 N 
HETATM    6  C   UNL     1      41.434 -11.130   4.233  1.00  0.00     0.165 C 
HETATM    7  H   UNL     1      43.254 -14.320   1.597  1.00  0.00     0.178 HD
HETATM    8  H   UNL     1      42.697 -12.803   4.642  1.00  0.00     0.177 HD
ENDROOT
BRANCH   4   9
HETATM    9  C   UNL     1      42.986 -15.123   3.557  1.00  0.00     0.199 C 
BRANCH   9  10
HETATM   10  C   UNL     1      43.369 -16.434   2.979  1.00  0.00     0.077 A 
HETATM   11  N   UNL     1      43.419 -17.571   3.764  1.00  0.00    -0.225 NA
HETATM   12  C   UNL     1      43.814 -18.520   2.929  1.00  0.00     0.179 A 
HETATM   13  O   UNL     1      43.963 -18.092   1.637  1.00  0.00    -0.301 OA
HETATM   14  C   UNL     1      43.681 -16.761   1.682  1.00  0.00     0.173 A 
BRANCH  12  15
HETATM   15  C   UNL     1      44.136 -19.916   3.204  1.00  0.00     0.017 A 
HETATM   16  C   UNL     1      44.576 -20.287   4.485  1.00  0.00     0.016 A 
HETATM   17  C   UNL     1      44.906 -21.613   4.770  1.00  0.00     0.001 A 
HETATM   18  C   UNL     1      44.790 -22.587   3.781  1.00  0.00     0.000 A 
HETATM   19  C   UNL     1      44.348 -22.236   2.506  1.00  0.00     0.001 A 
HETATM   20  C   UNL     1      44.026 -20.907   2.218  1.00  0.00     0.016 A 
ENDBRANCH  12  15
ENDBRANCH   9  10
ENDBRANCH   4   9
BRANCH   1  21
HETATM   21  C   UNL     1      41.996 -12.479   0.162  1.00  0.00     0.135 C 
HETATM   22  C   UNL     1      42.672 -11.453  -0.744  1.00  0.00     0.038 C 
BRANCH  21  23
HETATM   23  C   UNL     1      40.599 -12.830  -0.290  1.00  0.00     0.005 A 
HETATM   24  S   UNL     1      39.681 -11.837  -1.351  1.00  0.00    -0.104 SA
HETATM   25  C   UNL     1      38.337 -12.885  -1.302  1.00  0.00     0.050 A 
HETATM   26  C   UNL     1      38.561 -13.971  -0.490  1.00  0.00     0.008 A 
HETATM   27  C   UNL     1      39.860 -13.937   0.097  1.00  0.00     0.017 A 
ENDBRANCH  21  23
ENDBRANCH   1  21
TORSDOF 5
ENDMDL
