MODEL 1
REMARK VINA RESULT:      -8.5      0.000      0.000
REMARK  8 active torsions:
REMARK  status: ('A' for Active; 'I' for Inactive)
REMARK    1  A    between atoms: C_3  and  O_4 
REMARK    2  A    between atoms: C_11  and  C_12 
REMARK    3  A    between atoms: C_12  and  C_13 
REMARK    4  A    between atoms: C_13  and  S_14 
REMARK    5  A    between atoms: S_14  and  C_15 
REMARK    6  A    between atoms: N_16  and  C_17 
REMARK    7  A    between atoms: C_17  and  C_18 
REMARK    8  A    between atoms: C_24  and  C_25 
ROOT
HETATM    1  C   UNL     1      43.858 -16.894   6.093  1.00  0.00     0.192 A 
HETATM    2  N   UNL     1      43.478 -17.907   5.252  1.00  0.00    -0.303 N 
HETATM    3  C   UNL     1      44.500 -18.838   5.309  1.00  0.00     0.166 A 
HETATM    4  N   UNL     1      45.412 -18.396   6.159  1.00  0.00    -0.128 NA
HETATM    5  N   UNL     1      45.018 -17.174   6.634  1.00  0.00    -0.122 NA
ENDROOT
BRANCH   1   6
HETATM    6  S   UNL     1      42.937 -15.461   6.384  1.00  0.00    -0.082 SA
BRANCH   6   7
HETATM    7  C   UNL     1      43.447 -14.468   4.950  1.00  0.00     0.166 C 
BRANCH   7   8
HETATM    8  C   UNL     1      42.410 -13.425   4.575  1.00  0.00     0.169 C 
HETATM    9  O   UNL     1      42.290 -12.343   5.147  1.00  0.00    -0.291 OA
BRANCH   8  10
HETATM   10  C   UNL     1      41.468 -13.752   3.457  1.00  0.00     0.011 A 
HETATM   11  C   UNL     1      40.247 -14.402   3.676  1.00  0.00     0.017 A 
HETATM   12  C   UNL     1      39.392 -14.715   2.613  1.00  0.00     0.031 A 
HETATM   13  C   UNL     1      39.795 -14.350   1.326  1.00  0.00     0.045 A 
HETATM   14  N   UNL     1      39.169 -14.529   0.116  1.00  0.00    -0.336 N 
HETATM   15  C   UNL     1      40.994 -13.689   1.065  1.00  0.00     0.002 A 
HETATM   16  C   UNL     1      39.920 -14.002  -0.898  1.00  0.00     0.147 A 
HETATM   17  H   UNL     1      38.278 -14.981  -0.021  1.00  0.00     0.168 HD
HETATM   18  C   UNL     1      41.070 -13.467  -0.350  1.00  0.00     0.001 A 
HETATM   19  C   UNL     1      42.179 -12.780  -1.063  1.00  0.00     0.054 C 
HETATM   20  C   UNL     1      41.840 -13.383   2.151  1.00  0.00     0.029 A 
BRANCH  16  21
HETATM   21  O   UNL     1      39.465 -14.079  -2.139  1.00  0.00    -0.346 OA
HETATM   22  H   UNL     1      39.070 -14.961  -2.253  1.00  0.00     0.219 HD
ENDBRANCH  16  21
ENDBRANCH   8  10
ENDBRANCH   7   8
ENDBRANCH   6   7
ENDBRANCH   1   6
BRANCH   2  23
HETATM   23  C   UNL     1      42.193 -18.055   4.588  1.00  0.00     0.171 C 
BRANCH  23  24
HETATM   24  C   UNL     1      42.186 -17.639   3.135  1.00  0.00    -0.040 A 
HETATM   25  C   UNL     1      41.123 -17.913   2.260  1.00  0.00     0.009 A 
HETATM   26  C   UNL     1      41.184 -17.527   0.919  1.00  0.00     0.001 A 
HETATM   27  C   UNL     1      42.315 -16.879   0.427  1.00  0.00     0.000 A 
HETATM   28  C   UNL     1      43.387 -16.620   1.274  1.00  0.00     0.001 A 
HETATM   29  C   UNL     1      43.326 -17.001   2.616  1.00  0.00     0.009 A 
ENDBRANCH  23  24
ENDBRANCH   2  23
BRANCH   3  30
HETATM   30  C   UNL     1      44.563 -20.129   4.636  1.00  0.00     0.029 A 
HETATM   31  C   UNL     1      44.601 -21.341   5.316  1.00  0.00     0.131 A 
HETATM   32  N   UNL     1      44.653 -22.555   4.713  1.00  0.00    -0.272 NA
HETATM   33  C   UNL     1      44.626 -22.566   3.364  1.00  0.00     0.116 A 
HETATM   34  C   UNL     1      44.556 -21.421   2.590  1.00  0.00     0.020 A 
HETATM   35  C   UNL     1      44.523 -20.188   3.239  1.00  0.00     0.018 A 
ENDBRANCH   3  30
TORSDOF 8
ENDMDL
MODEL 2
REMARK VINA RESULT:      -8.3      1.637      2.294
REMARK  8 active torsions:
REMARK  status: ('A' for Active; 'I' for Inactive)
REMARK    1  A    between atoms: C_3  and  O_4 
REMARK    2  A    between atoms: C_11  and  C_12 
REMARK    3  A    between atoms: C_12  and  C_13 
REMARK    4  A    between atoms: C_13  and  S_14 
REMARK    5  A    between atoms: S_14  and  C_15 
REMARK    6  A    between atoms: N_16  and  C_17 
REMARK    7  A    between atoms: C_17  and  C_18 
REMARK    8  A    between atoms: C_24  and  C_25 
ROOT
HETATM    1  C   UNL     1      42.931 -14.516   5.991  1.00  0.00     0.192 A 
HETATM    2  N   UNL     1      42.723 -15.801   5.563  1.00  0.00    -0.303 N 
HETATM    3  C   UNL     1      43.751 -16.545   6.114  1.00  0.00     0.166 A 
HETATM    4  N   UNL     1      44.500 -15.735   6.844  1.00  0.00    -0.128 NA
HETATM    5  N   UNL     1      43.997 -14.465   6.751  1.00  0.00    -0.122 NA
ENDROOT
BRANCH   1   6
HETATM    6  S   UNL     1      41.931 -13.169   5.576  1.00  0.00    -0.082 SA
BRANCH   6   7
HETATM    7  C   UNL     1      42.492 -12.879   3.872  1.00  0.00     0.166 C 
BRANCH   7   8
HETATM    8  C   UNL     1      41.438 -12.186   3.029  1.00  0.00     0.169 C 
HETATM    9  O   UNL     1      40.986 -11.069   3.281  1.00  0.00    -0.291 OA
BRANCH   8  10
HETATM   10  C   UNL     1      40.904 -12.922   1.838  1.00  0.00     0.011 A 
HETATM   11  C   UNL     1      39.739 -13.697   1.901  1.00  0.00     0.017 A 
HETATM   12  C   UNL     1      39.271 -14.392   0.779  1.00  0.00     0.031 A 
HETATM   13  C   UNL     1      40.003 -14.281  -0.406  1.00  0.00     0.045 A 
HETATM   14  N   UNL     1      39.784 -14.845  -1.640  1.00  0.00    -0.336 N 
HETATM   15  C   UNL     1      41.158 -13.509  -0.515  1.00  0.00     0.002 A 
HETATM   16  C   UNL     1      40.750 -14.456  -2.525  1.00  0.00     0.147 A 
HETATM   17  H   UNL     1      39.020 -15.459  -1.876  1.00  0.00     0.168 HD
HETATM   18  C   UNL     1      41.630 -13.621  -1.864  1.00  0.00     0.001 A 
HETATM   19  C   UNL     1      42.833 -12.947  -2.423  1.00  0.00     0.054 C 
HETATM   20  C   UNL     1      41.611 -12.817   0.627  1.00  0.00     0.029 A 
BRANCH  16  21
HETATM   21  O   UNL     1      40.693 -14.900  -3.772  1.00  0.00    -0.346 OA
HETATM   22  H   UNL     1      40.326 -14.186  -4.322  1.00  0.00     0.219 HD
ENDBRANCH  16  21
ENDBRANCH   8  10
ENDBRANCH   7   8
ENDBRANCH   6   7
ENDBRANCH   1   6
BRANCH   2  23
HETATM   23  C   UNL     1      41.567 -16.305   4.840  1.00  0.00     0.171 C 
BRANCH  23  24
HETATM   24  C   UNL     1      41.806 -16.549   3.367  1.00  0.00    -0.040 A 
HETATM   25  C   UNL     1      42.927 -16.063   2.677  1.00  0.00     0.009 A 
HETATM   26  C   UNL     1      43.081 -16.297   1.309  1.00  0.00     0.001 A 
HETATM   27  C   UNL     1      42.110 -17.004   0.606  1.00  0.00     0.000 A 
HETATM   28  C   UNL     1      40.980 -17.475   1.268  1.00  0.00     0.001 A 
HETATM   29  C   UNL     1      40.827 -17.245   2.637  1.00  0.00     0.009 A 
ENDBRANCH  23  24
ENDBRANCH   2  23
BRANCH   3  30
HETATM   30  C   UNL     1      43.962 -17.983   6.008  1.00  0.00     0.029 A 
HETATM   31  C   UNL     1      43.588 -18.882   7.000  1.00  0.00     0.131 A 
HETATM   32  N   UNL     1      43.766 -20.225   6.923  1.00  0.00    -0.272 NA
HETATM   33  C   UNL     1      44.310 -20.701   5.783  1.00  0.00     0.116 A 
HETATM   34  C   UNL     1      44.688 -19.899   4.721  1.00  0.00     0.020 A 
HETATM   35  C   UNL     1      44.509 -18.522   4.839  1.00  0.00     0.018 A 
ENDBRANCH   3  30
TORSDOF 8
ENDMDL
MODEL 3
REMARK VINA RESULT:      -8.1      0.957      1.579
REMARK  8 active torsions:
REMARK  status: ('A' for Active; 'I' for Inactive)
REMARK    1  A    between atoms: C_3  and  O_4 
REMARK    2  A    between atoms: C_11  and  C_12 
REMARK    3  A    between atoms: C_12  and  C_13 
REMARK    4  A    between atoms: C_13  and  S_14 
REMARK    5  A    between atoms: S_14  and  C_15 
REMARK    6  A    between atoms: N_16  and  C_17 
REMARK    7  A    between atoms: C_17  and  C_18 
REMARK    8  A    between atoms: C_24  and  C_25 
ROOT
HETATM    1  C   UNL     1      43.879 -17.006   6.150  1.00  0.00     0.192 A 
HETATM    2  N   UNL     1      43.476 -17.981   5.276  1.00  0.00    -0.303 N 
HETATM    3  C   UNL     1      44.518 -18.889   5.229  1.00  0.00     0.166 A 
HETATM    4  N   UNL     1      45.466 -18.472   6.053  1.00  0.00    -0.128 NA
HETATM    5  N   UNL     1      45.072 -17.286   6.613  1.00  0.00    -0.122 NA
ENDROOT
BRANCH   1   6
HETATM    6  S   UNL     1      42.945 -15.612   6.566  1.00  0.00    -0.082 SA
BRANCH   6   7
HETATM    7  C   UNL     1      42.966 -14.738   4.973  1.00  0.00     0.166 C 
BRANCH   7   8
HETATM    8  C   UNL     1      41.590 -14.234   4.575  1.00  0.00     0.169 C 
HETATM    9  O   UNL     1      40.645 -14.136   5.357  1.00  0.00    -0.291 OA
BRANCH   8  10
HETATM   10  C   UNL     1      41.374 -13.860   3.141  1.00  0.00     0.011 A 
HETATM   11  C   UNL     1      42.403 -13.350   2.340  1.00  0.00     0.017 A 
HETATM   12  C   UNL     1      42.172 -12.989   1.007  1.00  0.00     0.031 A 
HETATM   13  C   UNL     1      40.881 -13.160   0.502  1.00  0.00     0.045 A 
HETATM   14  N   UNL     1      40.374 -12.893  -0.747  1.00  0.00    -0.336 N 
HETATM   15  C   UNL     1      39.832 -13.679   1.260  1.00  0.00     0.002 A 
HETATM   16  C   UNL     1      39.050 -13.228  -0.811  1.00  0.00     0.147 A 
HETATM   17  H   UNL     1      40.895 -12.508  -1.520  1.00  0.00     0.168 HD
HETATM   18  C   UNL     1      38.670 -13.722   0.422  1.00  0.00     0.001 A 
HETATM   19  C   UNL     1      37.327 -14.219   0.824  1.00  0.00     0.054 C 
HETATM   20  C   UNL     1      40.088 -14.036   2.600  1.00  0.00     0.029 A 
BRANCH  16  21
HETATM   21  O   UNL     1      38.397 -13.044  -1.949  1.00  0.00    -0.346 OA
HETATM   22  H   UNL     1      38.935 -12.451  -2.503  1.00  0.00     0.219 HD
ENDBRANCH  16  21
ENDBRANCH   8  10
ENDBRANCH   7   8
ENDBRANCH   6   7
ENDBRANCH   1   6
BRANCH   2  23
HETATM   23  C   UNL     1      42.160 -18.126   4.674  1.00  0.00     0.171 C 
BRANCH  23  24
HETATM   24  C   UNL     1      42.068 -17.642   3.244  1.00  0.00    -0.040 A 
HETATM   25  C   UNL     1      40.871 -17.620   2.514  1.00  0.00     0.009 A 
HETATM   26  C   UNL     1      40.852 -17.186   1.186  1.00  0.00     0.001 A 
HETATM   27  C   UNL     1      42.031 -16.786   0.563  1.00  0.00     0.000 A 
HETATM   28  C   UNL     1      43.231 -16.823   1.264  1.00  0.00     0.001 A 
HETATM   29  C   UNL     1      43.252 -17.251   2.593  1.00  0.00     0.009 A 
ENDBRANCH  23  24
ENDBRANCH   2  23
BRANCH   3  30
HETATM   30  C   UNL     1      44.573 -20.141   4.485  1.00  0.00     0.029 A 
HETATM   31  C   UNL     1      44.618 -21.389   5.097  1.00  0.00     0.131 A 
HETATM   32  N   UNL     1      44.662 -22.568   4.427  1.00  0.00    -0.272 NA
HETATM   33  C   UNL     1      44.619 -22.504   3.080  1.00  0.00     0.116 A 
HETATM   34  C   UNL     1      44.541 -21.318   2.371  1.00  0.00     0.020 A 
HETATM   35  C   UNL     1      44.516 -20.123   3.087  1.00  0.00     0.018 A 
ENDBRANCH   3  30
TORSDOF 8
ENDMDL
MODEL 4
REMARK VINA RESULT:      -8.0      3.198      8.643
REMARK  8 active torsions:
REMARK  status: ('A' for Active; 'I' for Inactive)
REMARK    1  A    between atoms: C_3  and  O_4 
REMARK    2  A    between atoms: C_11  and  C_12 
REMARK    3  A    between atoms: C_12  and  C_13 
REMARK    4  A    between atoms: C_13  and  S_14 
REMARK    5  A    between atoms: S_14  and  C_15 
REMARK    6  A    between atoms: N_16  and  C_17 
REMARK    7  A    between atoms: C_17  and  C_18 
REMARK    8  A    between atoms: C_24  and  C_25 
ROOT
HETATM    1  C   UNL     1      40.992 -14.286   1.058  1.00  0.00     0.192 A 
HETATM    2  N   UNL     1      41.219 -13.746  -0.181  1.00  0.00    -0.303 N 
HETATM    3  C   UNL     1      41.328 -12.382   0.024  1.00  0.00     0.166 A 
HETATM    4  N   UNL     1      41.194 -12.149   1.319  1.00  0.00    -0.128 NA
HETATM    5  N   UNL     1      40.966 -13.336   1.961  1.00  0.00    -0.122 NA
ENDROOT
BRANCH   1   6
HETATM    6  S   UNL     1      40.766 -15.971   1.370  1.00  0.00    -0.082 SA
BRANCH   6   7
HETATM    7  C   UNL     1      42.473 -16.557   1.157  1.00  0.00     0.166 C 
BRANCH   7   8
HETATM    8  C   UNL     1      43.302 -16.382   2.416  1.00  0.00     0.169 C 
HETATM    9  O   UNL     1      43.698 -15.293   2.829  1.00  0.00    -0.291 OA
BRANCH   8  10
HETATM   10  C   UNL     1      43.676 -17.616   3.180  1.00  0.00     0.011 A 
HETATM   11  C   UNL     1      43.941 -17.590   4.555  1.00  0.00     0.017 A 
HETATM   12  C   UNL     1      44.308 -18.753   5.244  1.00  0.00     0.031 A 
HETATM   13  C   UNL     1      44.395 -19.941   4.513  1.00  0.00     0.045 A 
HETATM   14  N   UNL     1      44.729 -21.210   4.919  1.00  0.00    -0.336 N 
HETATM   15  C   UNL     1      44.126 -20.013   3.147  1.00  0.00     0.002 A 
HETATM   16  C   UNL     1      44.675 -22.082   3.869  1.00  0.00     0.147 A 
HETATM   17  H   UNL     1      44.978 -21.477   5.860  1.00  0.00     0.168 HD
HETATM   18  C   UNL     1      44.303 -21.376   2.740  1.00  0.00     0.001 A 
HETATM   19  C   UNL     1      44.106 -21.905   1.364  1.00  0.00     0.054 C 
HETATM   20  C   UNL     1      43.757 -18.830   2.474  1.00  0.00     0.029 A 
BRANCH  16  21
HETATM   21  O   UNL     1      44.962 -23.358   4.079  1.00  0.00    -0.346 OA
HETATM   22  H   UNL     1      45.849 -23.523   3.714  1.00  0.00     0.219 HD
ENDBRANCH  16  21
ENDBRANCH   8  10
ENDBRANCH   7   8
ENDBRANCH   6   7
ENDBRANCH   1   6
BRANCH   2  23
HETATM   23  C   UNL     1      41.477 -14.470  -1.415  1.00  0.00     0.171 C 
BRANCH  23  24
HETATM   24  C   UNL     1      40.244 -14.766  -2.238  1.00  0.00    -0.040 A 
HETATM   25  C   UNL     1      39.018 -14.108  -2.053  1.00  0.00     0.009 A 
HETATM   26  C   UNL     1      37.904 -14.442  -2.827  1.00  0.00     0.001 A 
HETATM   27  C   UNL     1      37.992 -15.451  -3.782  1.00  0.00     0.000 A 
HETATM   28  C   UNL     1      39.192 -16.130  -3.964  1.00  0.00     0.001 A 
HETATM   29  C   UNL     1      40.309 -15.793  -3.195  1.00  0.00     0.009 A 
ENDBRANCH  23  24
ENDBRANCH   2  23
BRANCH   3  30
HETATM   30  C   UNL     1      41.622 -11.356  -0.968  1.00  0.00     0.029 A 
HETATM   31  C   UNL     1      40.635 -10.653  -1.650  1.00  0.00     0.131 A 
HETATM   32  N   UNL     1      40.882  -9.688  -2.572  1.00  0.00    -0.272 NA
HETATM   33  C   UNL     1      42.177  -9.381  -2.798  1.00  0.00     0.116 A 
HETATM   34  C   UNL     1      43.235  -9.996  -2.152  1.00  0.00     0.020 A 
HETATM   35  C   UNL     1      42.948 -10.995  -1.224  1.00  0.00     0.018 A 
ENDBRANCH   3  30
TORSDOF 8
ENDMDL
MODEL 5
REMARK VINA RESULT:      -8.0      3.707      8.068
REMARK  8 active torsions:
REMARK  status: ('A' for Active; 'I' for Inactive)
REMARK    1  A    between atoms: C_3  and  O_4 
REMARK    2  A    between atoms: C_11  and  C_12 
REMARK    3  A    between atoms: C_12  and  C_13 
REMARK    4  A    between atoms: C_13  and  S_14 
REMARK    5  A    between atoms: S_14  and  C_15 
REMARK    6  A    between atoms: N_16  and  C_17 
REMARK    7  A    between atoms: C_17  and  C_18 
REMARK    8  A    between atoms: C_24  and  C_25 
ROOT
HETATM    1  C   UNL     1      41.110 -13.144   3.117  1.00  0.00     0.192 A 
HETATM    2  N   UNL     1      41.498 -12.851   4.398  1.00  0.00    -0.303 N 
HETATM    3  C   UNL     1      40.414 -12.216   4.977  1.00  0.00     0.166 A 
HETATM    4  N   UNL     1      39.440 -12.165   4.083  1.00  0.00    -0.128 NA
HETATM    5  N   UNL     1      39.883 -12.729   2.916  1.00  0.00    -0.122 NA
ENDROOT
BRANCH   1   6
HETATM    6  S   UNL     1      42.104 -13.936   1.945  1.00  0.00    -0.082 SA
BRANCH   6   7
HETATM    7  C   UNL     1      41.650 -15.665   2.273  1.00  0.00     0.166 C 
BRANCH   7   8
HETATM    8  C   UNL     1      42.611 -16.644   1.622  1.00  0.00     0.169 C 
HETATM    9  O   UNL     1      42.924 -16.608   0.433  1.00  0.00    -0.291 OA
BRANCH   8  10
HETATM   10  C   UNL     1      43.186 -17.729   2.481  1.00  0.00     0.011 A 
HETATM   11  C   UNL     1      43.588 -17.500   3.803  1.00  0.00     0.017 A 
HETATM   12  C   UNL     1      44.141 -18.525   4.580  1.00  0.00     0.031 A 
HETATM   13  C   UNL     1      44.273 -19.786   3.992  1.00  0.00     0.045 A 
HETATM   14  N   UNL     1      44.775 -20.956   4.508  1.00  0.00    -0.336 N 
HETATM   15  C   UNL     1      43.872 -20.060   2.686  1.00  0.00     0.002 A 
HETATM   16  C   UNL     1      44.702 -21.960   3.583  1.00  0.00     0.147 A 
HETATM   17  H   UNL     1      45.146 -21.075   5.438  1.00  0.00     0.168 HD
HETATM   18  C   UNL     1      44.145 -21.444   2.429  1.00  0.00     0.001 A 
HETATM   19  C   UNL     1      43.861 -22.164   1.159  1.00  0.00     0.054 C 
HETATM   20  C   UNL     1      43.317 -19.013   1.922  1.00  0.00     0.029 A 
BRANCH  16  21
HETATM   21  O   UNL     1      45.138 -23.167   3.912  1.00  0.00    -0.346 OA
HETATM   22  H   UNL     1      45.216 -23.684   3.091  1.00  0.00     0.219 HD
ENDBRANCH  16  21
ENDBRANCH   8  10
ENDBRANCH   7   8
ENDBRANCH   6   7
ENDBRANCH   1   6
BRANCH   2  23
HETATM   23  C   UNL     1      42.718 -13.284   5.061  1.00  0.00     0.171 C 
BRANCH  23  24
HETATM   24  C   UNL     1      42.592 -14.587   5.817  1.00  0.00    -0.040 A 
HETATM   25  C   UNL     1      41.421 -15.360   5.830  1.00  0.00     0.009 A 
HETATM   26  C   UNL     1      41.354 -16.544   6.569  1.00  0.00     0.001 A 
HETATM   27  C   UNL     1      42.450 -16.964   7.319  1.00  0.00     0.000 A 
HETATM   28  C   UNL     1      43.611 -16.199   7.336  1.00  0.00     0.001 A 
HETATM   29  C   UNL     1      43.681 -15.018   6.594  1.00  0.00     0.009 A 
ENDBRANCH  23  24
ENDBRANCH   2  23
BRANCH   3  30
HETATM   30  C   UNL     1      40.291 -11.745   6.350  1.00  0.00     0.029 A 
HETATM   31  C   UNL     1      41.024 -10.678   6.858  1.00  0.00     0.131 A 
HETATM   32  N   UNL     1      40.923 -10.216   8.130  1.00  0.00    -0.272 NA
HETATM   33  C   UNL     1      40.017 -10.822   8.926  1.00  0.00     0.116 A 
HETATM   34  C   UNL     1      39.213 -11.870   8.513  1.00  0.00     0.020 A 
HETATM   35  C   UNL     1      39.354 -12.333   7.207  1.00  0.00     0.018 A 
ENDBRANCH   3  30
TORSDOF 8
ENDMDL
MODEL 6
REMARK VINA RESULT:      -7.9      2.982      7.726
REMARK  8 active torsions:
REMARK  status: ('A' for Active; 'I' for Inactive)
REMARK    1  A    between atoms: C_3  and  O_4 
REMARK    2  A    between atoms: C_11  and  C_12 
REMARK    3  A    between atoms: C_12  and  C_13 
REMARK    4  A    between atoms: C_13  and  S_14 
REMARK    5  A    between atoms: S_14  and  C_15 
REMARK    6  A    between atoms: N_16  and  C_17 
REMARK    7  A    between atoms: C_17  and  C_18 
REMARK    8  A    between atoms: C_24  and  C_25 
ROOT
HETATM    1  C   UNL     1      42.513 -15.802   2.077  1.00  0.00     0.192 A 
HETATM    2  N   UNL     1      41.323 -15.308   2.543  1.00  0.00    -0.303 N 
HETATM    3  C   UNL     1      41.661 -14.250   3.369  1.00  0.00     0.166 A 
HETATM    4  N   UNL     1      42.977 -14.125   3.361  1.00  0.00    -0.128 NA
HETATM    5  N   UNL     1      43.509 -15.106   2.568  1.00  0.00    -0.122 NA
ENDROOT
BRANCH   1   6
HETATM    6  S   UNL     1      42.666 -17.151   1.007  1.00  0.00    -0.082 SA
BRANCH   6   7
HETATM    7  C   UNL     1      44.188 -17.897   1.662  1.00  0.00     0.166 C 
BRANCH   7   8
HETATM    8  C   UNL     1      43.930 -19.234   2.332  1.00  0.00     0.169 C 
HETATM    9  O   UNL     1      43.669 -20.268   1.719  1.00  0.00    -0.291 OA
BRANCH   8  10
HETATM   10  C   UNL     1      43.975 -19.282   3.829  1.00  0.00     0.011 A 
HETATM   11  C   UNL     1      44.308 -20.449   4.528  1.00  0.00     0.017 A 
HETATM   12  C   UNL     1      44.324 -20.475   5.928  1.00  0.00     0.031 A 
HETATM   13  C   UNL     1      44.002 -19.295   6.603  1.00  0.00     0.045 A 
HETATM   14  N   UNL     1      43.935 -19.034   7.951  1.00  0.00    -0.336 N 
HETATM   15  C   UNL     1      43.680 -18.109   5.947  1.00  0.00     0.002 A 
HETATM   16  C   UNL     1      43.591 -17.730   8.172  1.00  0.00     0.147 A 
HETATM   17  H   UNL     1      44.117 -19.700   8.686  1.00  0.00     0.168 HD
HETATM   18  C   UNL     1      43.420 -17.115   6.947  1.00  0.00     0.001 A 
HETATM   19  C   UNL     1      43.052 -15.697   6.688  1.00  0.00     0.054 C 
HETATM   20  C   UNL     1      43.670 -18.105   4.536  1.00  0.00     0.029 A 
BRANCH  16  21
HETATM   21  O   UNL     1      43.486 -17.298   9.420  1.00  0.00    -0.346 OA
HETATM   22  H   UNL     1      43.459 -16.325   9.392  1.00  0.00     0.219 HD
ENDBRANCH  16  21
ENDBRANCH   8  10
ENDBRANCH   7   8
ENDBRANCH   6   7
ENDBRANCH   1   6
BRANCH   2  23
HETATM   23  C   UNL     1      39.989 -15.694   2.114  1.00  0.00     0.171 C 
BRANCH  23  24
HETATM   24  C   UNL     1      39.382 -14.791   1.064  1.00  0.00    -0.040 A 
HETATM   25  C   UNL     1      40.040 -14.443  -0.126  1.00  0.00     0.009 A 
HETATM   26  C   UNL     1      39.441 -13.582  -1.048  1.00  0.00     0.001 A 
HETATM   27  C   UNL     1      38.184 -13.043  -0.788  1.00  0.00     0.000 A 
HETATM   28  C   UNL     1      37.526 -13.359   0.397  1.00  0.00     0.001 A 
HETATM   29  C   UNL     1      38.122 -14.223   1.318  1.00  0.00     0.009 A 
ENDBRANCH  23  24
ENDBRANCH   2  23
BRANCH   3  30
HETATM   30  C   UNL     1      40.756 -13.352   4.075  1.00  0.00     0.029 A 
HETATM   31  C   UNL     1      40.372 -12.112   3.576  1.00  0.00     0.131 A 
HETATM   32  N   UNL     1      39.526 -11.261   4.209  1.00  0.00    -0.272 NA
HETATM   33  C   UNL     1      39.006 -11.682   5.381  1.00  0.00     0.116 A 
HETATM   34  C   UNL     1      39.295 -12.909   5.952  1.00  0.00     0.020 A 
HETATM   35  C   UNL     1      40.181 -13.752   5.285  1.00  0.00     0.018 A 
ENDBRANCH   3  30
TORSDOF 8
ENDMDL
MODEL 7
REMARK VINA RESULT:      -7.7      3.037      8.428
REMARK  8 active torsions:
REMARK  status: ('A' for Active; 'I' for Inactive)
REMARK    1  A    between atoms: C_3  and  O_4 
REMARK    2  A    between atoms: C_11  and  C_12 
REMARK    3  A    between atoms: C_12  and  C_13 
REMARK    4  A    between atoms: C_13  and  S_14 
REMARK    5  A    between atoms: S_14  and  C_15 
REMARK    6  A    between atoms: N_16  and  C_17 
REMARK    7  A    between atoms: C_17  and  C_18 
REMARK    8  A    between atoms: C_24  and  C_25 
ROOT
HETATM    1  C   UNL     1      40.454 -15.283   0.660  1.00  0.00     0.192 A 
HETATM    2  N   UNL     1      39.860 -14.381   1.502  1.00  0.00    -0.303 N 
HETATM    3  C   UNL     1      39.591 -13.270   0.724  1.00  0.00     0.166 A 
HETATM    4  N   UNL     1      39.988 -13.526  -0.512  1.00  0.00    -0.128 NA
HETATM    5  N   UNL     1      40.543 -14.777  -0.546  1.00  0.00    -0.122 NA
ENDROOT
BRANCH   1   6
HETATM    6  S   UNL     1      41.007 -16.852   1.131  1.00  0.00    -0.082 SA
BRANCH   6   7
HETATM    7  C   UNL     1      42.801 -16.607   0.977  1.00  0.00     0.166 C 
BRANCH   7   8
HETATM    8  C   UNL     1      43.470 -16.392   2.322  1.00  0.00     0.169 C 
HETATM    9  O   UNL     1      43.770 -15.285   2.768  1.00  0.00    -0.291 OA
BRANCH   8  10
HETATM   10  C   UNL     1      43.803 -17.605   3.136  1.00  0.00     0.011 A 
HETATM   11  C   UNL     1      44.038 -17.537   4.515  1.00  0.00     0.017 A 
HETATM   12  C   UNL     1      44.367 -18.682   5.251  1.00  0.00     0.031 A 
HETATM   13  C   UNL     1      44.447 -19.895   4.564  1.00  0.00     0.045 A 
HETATM   14  N   UNL     1      44.747 -21.156   5.021  1.00  0.00    -0.336 N 
HETATM   15  C   UNL     1      44.206 -20.010   3.196  1.00  0.00     0.002 A 
HETATM   16  C   UNL     1      44.699 -22.063   4.000  1.00  0.00     0.147 A 
HETATM   17  H   UNL     1      44.970 -21.395   5.975  1.00  0.00     0.168 HD
HETATM   18  C   UNL     1      44.366 -21.390   2.840  1.00  0.00     0.001 A 
HETATM   19  C   UNL     1      44.189 -21.962   1.479  1.00  0.00     0.054 C 
HETATM   20  C   UNL     1      43.876 -18.844   2.474  1.00  0.00     0.029 A 
BRANCH  16  21
HETATM   21  O   UNL     1      44.956 -23.336   4.260  1.00  0.00    -0.346 OA
HETATM   22  H   UNL     1      45.923 -23.450   4.242  1.00  0.00     0.219 HD
ENDBRANCH  16  21
ENDBRANCH   8  10
ENDBRANCH   7   8
ENDBRANCH   6   7
ENDBRANCH   1   6
BRANCH   2  23
HETATM   23  C   UNL     1      39.434 -14.615   2.873  1.00  0.00     0.171 C 
BRANCH  23  24
HETATM   24  C   UNL     1      40.522 -14.429   3.907  1.00  0.00    -0.040 A 
HETATM   25  C   UNL     1      40.826 -15.387   4.886  1.00  0.00     0.009 A 
HETATM   26  C   UNL     1      41.825 -15.148   5.834  1.00  0.00     0.001 A 
HETATM   27  C   UNL     1      42.520 -13.942   5.829  1.00  0.00     0.000 A 
HETATM   28  C   UNL     1      42.217 -12.971   4.880  1.00  0.00     0.001 A 
HETATM   29  C   UNL     1      41.222 -13.210   3.929  1.00  0.00     0.009 A 
ENDBRANCH  23  24
ENDBRANCH   2  23
BRANCH   3  30
HETATM   30  C   UNL     1      38.915 -12.044   1.129  1.00  0.00     0.029 A 
HETATM   31  C   UNL     1      37.531 -11.916   1.167  1.00  0.00     0.131 A 
HETATM   32  N   UNL     1      36.877 -10.789   1.547  1.00  0.00    -0.272 NA
HETATM   33  C   UNL     1      37.639  -9.750   1.947  1.00  0.00     0.116 A 
HETATM   34  C   UNL     1      39.023  -9.782   1.980  1.00  0.00     0.020 A 
HETATM   35  C   UNL     1      39.664 -10.947   1.566  1.00  0.00     0.018 A 
ENDBRANCH   3  30
TORSDOF 8
ENDMDL
MODEL 8
REMARK VINA RESULT:      -7.7      2.859      7.302
REMARK  8 active torsions:
REMARK  status: ('A' for Active; 'I' for Inactive)
REMARK    1  A    between atoms: C_3  and  O_4 
REMARK    2  A    between atoms: C_11  and  C_12 
REMARK    3  A    between atoms: C_12  and  C_13 
REMARK    4  A    between atoms: C_13  and  S_14 
REMARK    5  A    between atoms: S_14  and  C_15 
REMARK    6  A    between atoms: N_16  and  C_17 
REMARK    7  A    between atoms: C_17  and  C_18 
REMARK    8  A    between atoms: C_24  and  C_25 
ROOT
HETATM    1  C   UNL     1      41.079 -12.935   4.823  1.00  0.00     0.192 A 
HETATM    2  N   UNL     1      40.908 -13.185   3.487  1.00  0.00    -0.303 N 
HETATM    3  C   UNL     1      39.659 -12.678   3.173  1.00  0.00     0.166 A 
HETATM    4  N   UNL     1      39.146 -12.141   4.267  1.00  0.00    -0.128 NA
HETATM    5  N   UNL     1      40.026 -12.318   5.301  1.00  0.00    -0.122 NA
ENDROOT
BRANCH   1   6
HETATM    6  S   UNL     1      42.479 -13.379   5.734  1.00  0.00    -0.082 SA
BRANCH   6   7
HETATM    7  C   UNL     1      42.150 -15.151   5.965  1.00  0.00     0.166 C 
BRANCH   7   8
HETATM    8  C   UNL     1      43.318 -15.873   6.611  1.00  0.00     0.169 C 
HETATM    9  O   UNL     1      44.015 -15.388   7.501  1.00  0.00    -0.291 OA
BRANCH   8  10
HETATM   10  C   UNL     1      43.648 -17.247   6.113  1.00  0.00     0.011 A 
HETATM   11  C   UNL     1      43.874 -18.321   6.983  1.00  0.00     0.017 A 
HETATM   12  C   UNL     1      44.200 -19.592   6.495  1.00  0.00     0.031 A 
HETATM   13  C   UNL     1      44.288 -19.753   5.109  1.00  0.00     0.045 A 
HETATM   14  N   UNL     1      44.588 -20.867   4.363  1.00  0.00    -0.336 N 
HETATM   15  C   UNL     1      44.057 -18.715   4.209  1.00  0.00     0.002 A 
HETATM   16  C   UNL     1      44.549 -20.577   3.028  1.00  0.00     0.147 A 
HETATM   17  H   UNL     1      44.805 -21.780   4.734  1.00  0.00     0.168 HD
HETATM   18  C   UNL     1      44.222 -19.242   2.886  1.00  0.00     0.001 A 
HETATM   19  C   UNL     1      44.056 -18.480   1.620  1.00  0.00     0.054 C 
HETATM   20  C   UNL     1      43.728 -17.443   4.723  1.00  0.00     0.029 A 
BRANCH  16  21
HETATM   21  O   UNL     1      44.808 -21.539   2.155  1.00  0.00    -0.346 OA
HETATM   22  H   UNL     1      44.778 -22.386   2.635  1.00  0.00     0.219 HD
ENDBRANCH  16  21
ENDBRANCH   8  10
ENDBRANCH   7   8
ENDBRANCH   6   7
ENDBRANCH   1   6
BRANCH   2  23
HETATM   23  C   UNL     1      41.901 -13.703   2.560  1.00  0.00     0.171 C 
BRANCH  23  24
HETATM   24  C   UNL     1      41.557 -15.047   1.958  1.00  0.00    -0.040 A 
HETATM   25  C   UNL     1      41.731 -15.349   0.599  1.00  0.00     0.009 A 
HETATM   26  C   UNL     1      41.369 -16.600   0.093  1.00  0.00     0.001 A 
HETATM   27  C   UNL     1      40.812 -17.560   0.933  1.00  0.00     0.000 A 
HETATM   28  C   UNL     1      40.612 -17.271   2.279  1.00  0.00     0.001 A 
HETATM   29  C   UNL     1      40.977 -16.022   2.787  1.00  0.00     0.009 A 
ENDBRANCH  23  24
ENDBRANCH   2  23
BRANCH   3  30
HETATM   30  C   UNL     1      39.018 -12.644   1.865  1.00  0.00     0.029 A 
HETATM   31  C   UNL     1      39.081 -11.545   1.015  1.00  0.00     0.131 A 
HETATM   32  N   UNL     1      38.500 -11.490  -0.210  1.00  0.00    -0.272 NA
HETATM   33  C   UNL     1      37.856 -12.600  -0.627  1.00  0.00     0.116 A 
HETATM   34  C   UNL     1      37.760 -13.759   0.124  1.00  0.00     0.020 A 
HETATM   35  C   UNL     1      38.352 -13.777   1.385  1.00  0.00     0.018 A 
ENDBRANCH   3  30
TORSDOF 8
ENDMDL
MODEL 9
REMARK VINA RESULT:      -7.7      2.353      5.038
REMARK  8 active torsions:
REMARK  status: ('A' for Active; 'I' for Inactive)
REMARK    1  A    between atoms: C_3  and  O_4 
REMARK    2  A    between atoms: C_11  and  C_12 
REMARK    3  A    between atoms: C_12  and  C_13 
REMARK    4  A    between atoms: C_13  and  S_14 
REMARK    5  A    between atoms: S_14  and  C_15 
REMARK    6  A    between atoms: N_16  and  C_17 
REMARK    7  A    between atoms: C_17  and  C_18 
REMARK    8  A    between atoms: C_24  and  C_25 
ROOT
HETATM    1  C   UNL     1      41.607 -16.913   2.356  1.00  0.00     0.192 A 
HETATM    2  N   UNL     1      42.628 -17.264   3.200  1.00  0.00    -0.303 N 
HETATM    3  C   UNL     1      42.082 -17.240   4.471  1.00  0.00     0.166 A 
HETATM    4  N   UNL     1      40.804 -16.916   4.364  1.00  0.00    -0.128 NA
HETATM    5  N   UNL     1      40.514 -16.695   3.044  1.00  0.00    -0.122 NA
ENDROOT
BRANCH   1   6
HETATM    6  S   UNL     1      41.755 -16.776   0.639  1.00  0.00    -0.082 SA
BRANCH   6   7
HETATM    7  C   UNL     1      40.862 -15.216   0.375  1.00  0.00     0.166 C 
BRANCH   7   8
HETATM    8  C   UNL     1      41.715 -14.003   0.699  1.00  0.00     0.169 C 
HETATM    9  O   UNL     1      42.249 -13.295  -0.154  1.00  0.00    -0.291 OA
BRANCH   8  10
HETATM   10  C   UNL     1      41.934 -13.671   2.143  1.00  0.00     0.011 A 
HETATM   11  C   UNL     1      43.150 -13.923   2.790  1.00  0.00     0.017 A 
HETATM   12  C   UNL     1      43.325 -13.623   4.146  1.00  0.00     0.031 A 
HETATM   13  C   UNL     1      42.246 -13.057   4.831  1.00  0.00     0.045 A 
HETATM   14  N   UNL     1      42.133 -12.669   6.144  1.00  0.00    -0.336 N 
HETATM   15  C   UNL     1      41.024 -12.776   4.221  1.00  0.00     0.002 A 
HETATM   16  C   UNL     1      40.893 -12.148   6.388  1.00  0.00     0.147 A 
HETATM   17  H   UNL     1      42.857 -12.747   6.842  1.00  0.00     0.168 HD
HETATM   18  C   UNL     1      40.166 -12.197   5.213  1.00  0.00     0.001 A 
HETATM   19  C   UNL     1      38.770 -11.734   4.992  1.00  0.00     0.054 C 
HETATM   20  C   UNL     1      40.871 -13.087   2.854  1.00  0.00     0.029 A 
BRANCH  16  21
HETATM   21  O   UNL     1      40.609 -11.714   7.606  1.00  0.00    -0.346 OA
HETATM   22  H   UNL     1      41.068 -10.865   7.730  1.00  0.00     0.219 HD
ENDBRANCH  16  21
ENDBRANCH   8  10
ENDBRANCH   7   8
ENDBRANCH   6   7
ENDBRANCH   1   6
BRANCH   2  23
HETATM   23  C   UNL     1      43.950 -17.739   2.823  1.00  0.00     0.171 C 
BRANCH  23  24
HETATM   24  C   UNL     1      44.069 -19.243   2.721  1.00  0.00    -0.040 A 
HETATM   25  C   UNL     1      43.380 -20.008   1.767  1.00  0.00     0.009 A 
HETATM   26  C   UNL     1      43.509 -21.398   1.737  1.00  0.00     0.001 A 
HETATM   27  C   UNL     1      44.312 -22.047   2.671  1.00  0.00     0.000 A 
HETATM   28  C   UNL     1      44.985 -21.308   3.639  1.00  0.00     0.001 A 
HETATM   29  C   UNL     1      44.861 -19.917   3.667  1.00  0.00     0.009 A 
ENDBRANCH  23  24
ENDBRANCH   2  23
BRANCH   3  30
HETATM   30  C   UNL     1      42.737 -17.586   5.726  1.00  0.00     0.029 A 
HETATM   31  C   UNL     1      43.084 -16.645   6.688  1.00  0.00     0.131 A 
HETATM   32  N   UNL     1      43.687 -16.941   7.867  1.00  0.00    -0.272 NA
HETATM   33  C   UNL     1      43.923 -18.246   8.117  1.00  0.00     0.116 A 
HETATM   34  C   UNL     1      43.589 -19.267   7.244  1.00  0.00     0.020 A 
HETATM   35  C   UNL     1      42.987 -18.927   6.034  1.00  0.00     0.018 A 
ENDBRANCH   3  30
TORSDOF 8
ENDMDL
MODEL 10
REMARK VINA RESULT:      -7.7      2.275      3.922
REMARK  8 active torsions:
REMARK  status: ('A' for Active; 'I' for Inactive)
REMARK    1  A    between atoms: C_3  and  O_4 
REMARK    2  A    between atoms: C_11  and  C_12 
REMARK    3  A    between atoms: C_12  and  C_13 
REMARK    4  A    between atoms: C_13  and  S_14 
REMARK    5  A    between atoms: S_14  and  C_15 
REMARK    6  A    between atoms: N_16  and  C_17 
REMARK    7  A    between atoms: C_17  and  C_18 
REMARK    8  A    between atoms: C_24  and  C_25 
ROOT
HETATM    1  C   UNL     1      42.634 -16.037   3.315  1.00  0.00     0.192 A 
HETATM    2  N   UNL     1      42.567 -17.373   3.614  1.00  0.00    -0.303 N 
HETATM    3  C   UNL     1      43.476 -17.986   2.770  1.00  0.00     0.166 A 
HETATM    4  N   UNL     1      44.056 -17.048   2.039  1.00  0.00    -0.128 NA
HETATM    5  N   UNL     1      43.517 -15.834   2.368  1.00  0.00    -0.122 NA
ENDROOT
BRANCH   1   6
HETATM    6  S   UNL     1      41.684 -14.811   4.079  1.00  0.00    -0.082 SA
BRANCH   6   7
HETATM    7  C   UNL     1      41.982 -13.431   2.934  1.00  0.00     0.166 C 
BRANCH   7   8
HETATM    8  C   UNL     1      40.813 -13.203   1.992  1.00  0.00     0.169 C 
HETATM    9  O   UNL     1      39.673 -12.938   2.369  1.00  0.00    -0.291 OA
BRANCH   8  10
HETATM   10  C   UNL     1      41.069 -13.336   0.522  1.00  0.00     0.011 A 
HETATM   11  C   UNL     1      40.786 -14.514  -0.181  1.00  0.00     0.017 A 
HETATM   12  C   UNL     1      41.051 -14.621  -1.552  1.00  0.00     0.031 A 
HETATM   13  C   UNL     1      41.603 -13.510  -2.195  1.00  0.00     0.045 A 
HETATM   14  N   UNL     1      41.963 -13.335  -3.509  1.00  0.00    -0.336 N 
HETATM   15  C   UNL     1      41.886 -12.315  -1.537  1.00  0.00     0.002 A 
HETATM   16  C   UNL     1      42.456 -12.076  -3.710  1.00  0.00     0.147 A 
HETATM   17  H   UNL     1      41.878 -14.028  -4.238  1.00  0.00     0.168 HD
HETATM   18  C   UNL     1      42.427 -11.404  -2.503  1.00  0.00     0.001 A 
HETATM   19  C   UNL     1      42.855 -10.005  -2.234  1.00  0.00     0.054 C 
HETATM   20  C   UNL     1      41.610 -12.229  -0.156  1.00  0.00     0.029 A 
BRANCH  16  21
HETATM   21  O   UNL     1      42.847 -11.727  -4.926  1.00  0.00    -0.346 OA
HETATM   22  H   UNL     1      43.644 -12.245  -5.137  1.00  0.00     0.219 HD
ENDBRANCH  16  21
ENDBRANCH   8  10
ENDBRANCH   7   8
ENDBRANCH   6   7
ENDBRANCH   1   6
BRANCH   2  23
HETATM   23  C   UNL     1      41.835 -17.988   4.709  1.00  0.00     0.171 C 
BRANCH  23  24
HETATM   24  C   UNL     1      42.608 -18.082   6.005  1.00  0.00    -0.040 A 
HETATM   25  C   UNL     1      43.307 -19.231   6.403  1.00  0.00     0.009 A 
HETATM   26  C   UNL     1      43.983 -19.269   7.626  1.00  0.00     0.001 A 
HETATM   27  C   UNL     1      43.954 -18.167   8.476  1.00  0.00     0.000 A 
HETATM   28  C   UNL     1      43.247 -17.027   8.108  1.00  0.00     0.001 A 
HETATM   29  C   UNL     1      42.576 -16.985   6.884  1.00  0.00     0.009 A 
ENDBRANCH  23  24
ENDBRANCH   2  23
BRANCH   3  30
HETATM   30  C   UNL     1      43.827 -19.399   2.720  1.00  0.00     0.029 A 
HETATM   31  C   UNL     1      44.705 -19.997   3.617  1.00  0.00     0.131 A 
HETATM   32  N   UNL     1      45.042 -21.311   3.597  1.00  0.00    -0.272 NA
HETATM   33  C   UNL     1      44.446 -22.077   2.659  1.00  0.00     0.116 A 
HETATM   34  C   UNL     1      43.534 -21.591   1.739  1.00  0.00     0.020 A 
HETATM   35  C   UNL     1      43.223 -20.234   1.775  1.00  0.00     0.018 A 
ENDBRANCH   3  30
TORSDOF 8
ENDMDL
