MODEL 1
REMARK VINA RESULT:      -8.0      0.000      0.000
REMARK  6 active torsions:
REMARK  status: ('A' for Active; 'I' for Inactive)
REMARK    1  A    between atoms: C_2  and  C_3 
REMARK    2  A    between atoms: C_3  and  O_4 
REMARK    3  A    between atoms: O_4  and  C_5 
REMARK    4  A    between atoms: C_6  and  O_7 
REMARK    5  A    between atoms: C_10  and  C_11 
REMARK    6  A    between atoms: C_25  and  O_26 
ROOT
HETATM    1  C   UNL     1      40.521 -16.006   2.515  1.00  0.00     0.269 C 
HETATM    2  N   UNL     1      40.216 -15.367   3.850  1.00  0.00    -0.061 N 
HETATM    3  H   UNL     1      39.551 -15.978   4.335  1.00  0.00     0.278 HD
HETATM    4  H   UNL     1      39.741 -14.473   3.684  1.00  0.00     0.278 HD
HETATM    5  C   UNL     1      41.413 -15.152   4.745  1.00  0.00     0.238 C 
HETATM    6  C   UNL     1      42.082 -16.492   5.099  1.00  0.00     0.069 C 
HETATM    7  C   UNL     1      42.249 -17.324   3.874  1.00  0.00    -0.019 A 
HETATM    8  C   UNL     1      41.537 -17.076   2.715  1.00  0.00     0.052 A 
HETATM    9  N   UNL     1      41.919 -18.001   1.777  1.00  0.00    -0.356 N 
HETATM   10  H   UNL     1      41.591 -18.067   0.820  1.00  0.00     0.166 HD
HETATM   11  C   UNL     1      42.843 -18.864   2.328  1.00  0.00     0.043 A 
HETATM   12  C   UNL     1      43.061 -18.464   3.647  1.00  0.00     0.002 A 
HETATM   13  C   UNL     1      43.495 -19.964   1.762  1.00  0.00     0.033 A 
HETATM   14  C   UNL     1      44.377 -20.691   2.574  1.00  0.00     0.039 A 
HETATM   15  C   UNL     1      44.603 -20.327   3.900  1.00  0.00     0.069 A 
HETATM   16  C   UNL     1      43.957 -19.207   4.438  1.00  0.00     0.051 A 
ENDROOT
BRANCH   1  17
HETATM   17  C   UNL     1      40.861 -14.955   1.477  1.00  0.00    -0.019 A 
HETATM   18  C   UNL     1      40.462 -15.171   0.149  1.00  0.00     0.049 A 
HETATM   19  C   UNL     1      40.718 -14.214  -0.835  1.00  0.00     0.102 A 
HETATM   20  C   UNL     1      41.349 -13.004  -0.527  1.00  0.00     0.102 A 
HETATM   21  C   UNL     1      41.742 -12.779   0.793  1.00  0.00     0.040 A 
HETATM   22  C   UNL     1      41.499 -13.742   1.786  1.00  0.00     0.012 A 
BRANCH  19  23
HETATM   23  O   UNL     1      40.243 -14.458  -2.098  1.00  0.00    -0.353 OA
HETATM   24  C   UNL     1      40.953 -15.543  -2.696  1.00  0.00     0.210 C 
ENDBRANCH  19  23
BRANCH  20  25
HETATM   25  O   UNL     1      41.524 -12.134  -1.567  1.00  0.00    -0.348 OA
BRANCH  25  26
HETATM   26  C   UNL     1      42.851 -11.933  -2.056  1.00  0.00     0.175 C 
BRANCH  26  27
HETATM   27  C   UNL     1      43.073 -10.430  -2.201  1.00  0.00     0.022 C 
HETATM   28  C   UNL     1      43.590  -9.806  -0.917  1.00  0.00     0.007 C 
ENDBRANCH  26  27
ENDBRANCH  25  26
ENDBRANCH  20  25
ENDBRANCH   1  17
BRANCH  15  29
HETATM   29  O   UNL     1      45.430 -20.973   4.780  1.00  0.00    -0.356 OA
HETATM   30  C   UNL     1      45.066 -22.297   5.155  1.00  0.00     0.210 C 
ENDBRANCH  15  29
TORSDOF 6
ENDMDL
MODEL 2
REMARK VINA RESULT:      -7.9      3.252      7.750
REMARK  6 active torsions:
REMARK  status: ('A' for Active; 'I' for Inactive)
REMARK    1  A    between atoms: C_2  and  C_3 
REMARK    2  A    between atoms: C_3  and  O_4 
REMARK    3  A    between atoms: O_4  and  C_5 
REMARK    4  A    between atoms: C_6  and  O_7 
REMARK    5  A    between atoms: C_10  and  C_11 
REMARK    6  A    between atoms: C_25  and  O_26 
ROOT
HETATM    1  C   UNL     1      42.087 -17.292   3.818  1.00  0.00     0.269 C 
HETATM    2  N   UNL     1      43.012 -18.416   3.408  1.00  0.00    -0.061 N 
HETATM    3  H   UNL     1      42.424 -19.200   3.108  1.00  0.00     0.278 HD
HETATM    4  H   UNL     1      43.534 -18.727   4.235  1.00  0.00     0.278 HD
HETATM    5  C   UNL     1      43.973 -18.080   2.293  1.00  0.00     0.238 C 
HETATM    6  C   UNL     1      43.213 -17.714   1.005  1.00  0.00     0.069 C 
HETATM    7  C   UNL     1      42.113 -16.756   1.311  1.00  0.00    -0.019 A 
HETATM    8  C   UNL     1      41.629 -16.578   2.594  1.00  0.00     0.052 A 
HETATM    9  N   UNL     1      40.637 -15.632   2.545  1.00  0.00    -0.356 N 
HETATM   10  H   UNL     1      40.104 -15.269   3.328  1.00  0.00     0.166 HD
HETATM   11  C   UNL     1      40.451 -15.224   1.241  1.00  0.00     0.043 A 
HETATM   12  C   UNL     1      41.362 -15.921   0.445  1.00  0.00     0.002 A 
HETATM   13  C   UNL     1      39.548 -14.298   0.709  1.00  0.00     0.033 A 
HETATM   14  C   UNL     1      39.559 -14.095  -0.678  1.00  0.00     0.039 A 
HETATM   15  C   UNL     1      40.444 -14.789  -1.502  1.00  0.00     0.069 A 
HETATM   16  C   UNL     1      41.357 -15.694  -0.943  1.00  0.00     0.051 A 
ENDROOT
BRANCH   1  17
HETATM   17  C   UNL     1      42.724 -16.431   4.889  1.00  0.00    -0.019 A 
HETATM   18  C   UNL     1      42.841 -16.954   6.186  1.00  0.00     0.049 A 
HETATM   19  C   UNL     1      43.454 -16.214   7.199  1.00  0.00     0.102 A 
HETATM   20  C   UNL     1      43.997 -14.948   6.948  1.00  0.00     0.102 A 
HETATM   21  C   UNL     1      43.891 -14.425   5.659  1.00  0.00     0.040 A 
HETATM   22  C   UNL     1      43.264 -15.159   4.639  1.00  0.00     0.012 A 
BRANCH  19  23
HETATM   23  O   UNL     1      43.595 -16.808   8.426  1.00  0.00    -0.353 OA
HETATM   24  C   UNL     1      43.946 -18.184   8.276  1.00  0.00     0.210 C 
ENDBRANCH  19  23
BRANCH  20  25
HETATM   25  O   UNL     1      44.595 -14.328   8.010  1.00  0.00    -0.348 OA
BRANCH  25  26
HETATM   26  C   UNL     1      44.550 -12.902   8.066  1.00  0.00     0.175 C 
BRANCH  26  27
HETATM   27  C   UNL     1      45.839 -12.419   8.725  1.00  0.00     0.022 C 
HETATM   28  C   UNL     1      45.621 -11.158   9.542  1.00  0.00     0.007 C 
ENDBRANCH  26  27
ENDBRANCH  25  26
ENDBRANCH  20  25
ENDBRANCH   1  17
BRANCH  15  29
HETATM   29  O   UNL     1      40.529 -14.678  -2.864  1.00  0.00    -0.356 OA
HETATM   30  C   UNL     1      39.481 -15.267  -3.626  1.00  0.00     0.210 C 
ENDBRANCH  15  29
TORSDOF 6
ENDMDL
MODEL 3
REMARK VINA RESULT:      -7.9      2.419      8.138
REMARK  6 active torsions:
REMARK  status: ('A' for Active; 'I' for Inactive)
REMARK    1  A    between atoms: C_2  and  C_3 
REMARK    2  A    between atoms: C_3  and  O_4 
REMARK    3  A    between atoms: O_4  and  C_5 
REMARK    4  A    between atoms: C_6  and  O_7 
REMARK    5  A    between atoms: C_10  and  C_11 
REMARK    6  A    between atoms: C_25  and  O_26 
ROOT
HETATM    1  C   UNL     1      42.144 -14.797   2.082  1.00  0.00     0.269 C 
HETATM    2  N   UNL     1      41.273 -14.190   3.158  1.00  0.00    -0.061 N 
HETATM    3  H   UNL     1      41.392 -13.173   3.109  1.00  0.00     0.278 HD
HETATM    4  H   UNL     1      41.624 -14.493   4.073  1.00  0.00     0.278 HD
HETATM    5  C   UNL     1      39.801 -14.508   3.045  1.00  0.00     0.238 C 
HETATM    6  C   UNL     1      39.222 -13.966   1.725  1.00  0.00     0.069 C 
HETATM    7  C   UNL     1      40.117 -14.320   0.587  1.00  0.00    -0.019 A 
HETATM    8  C   UNL     1      41.432 -14.701   0.777  1.00  0.00     0.052 A 
HETATM    9  N   UNL     1      41.979 -14.967  -0.452  1.00  0.00    -0.356 N 
HETATM   10  H   UNL     1      42.921 -15.289  -0.641  1.00  0.00     0.166 HD
HETATM   11  C   UNL     1      41.043 -14.727  -1.436  1.00  0.00     0.043 A 
HETATM   12  C   UNL     1      39.867 -14.312  -0.809  1.00  0.00     0.002 A 
HETATM   13  C   UNL     1      41.149 -14.841  -2.826  1.00  0.00     0.033 A 
HETATM   14  C   UNL     1      40.030 -14.500  -3.598  1.00  0.00     0.039 A 
HETATM   15  C   UNL     1      38.847 -14.066  -3.003  1.00  0.00     0.069 A 
HETATM   16  C   UNL     1      38.756 -13.983  -1.607  1.00  0.00     0.051 A 
ENDROOT
BRANCH   1  17
HETATM   17  C   UNL     1      42.612 -16.181   2.482  1.00  0.00    -0.019 A 
HETATM   18  C   UNL     1      43.235 -16.342   3.730  1.00  0.00     0.049 A 
HETATM   19  C   UNL     1      43.649 -17.604   4.160  1.00  0.00     0.102 A 
HETATM   20  C   UNL     1      43.430 -18.747   3.381  1.00  0.00     0.102 A 
HETATM   21  C   UNL     1      42.806 -18.595   2.143  1.00  0.00     0.040 A 
HETATM   22  C   UNL     1      42.397 -17.327   1.698  1.00  0.00     0.012 A 
BRANCH  19  23
HETATM   23  O   UNL     1      44.191 -17.703   5.416  1.00  0.00    -0.353 OA
HETATM   24  C   UNL     1      43.823 -16.573   6.207  1.00  0.00     0.210 C 
ENDBRANCH  19  23
BRANCH  20  25
HETATM   25  O   UNL     1      43.856 -19.931   3.916  1.00  0.00    -0.348 OA
BRANCH  25  26
HETATM   26  C   UNL     1      44.936 -20.608   3.270  1.00  0.00     0.175 C 
BRANCH  26  27
HETATM   27  C   UNL     1      44.432 -21.981   2.835  1.00  0.00     0.022 C 
HETATM   28  C   UNL     1      44.035 -22.002   1.370  1.00  0.00     0.007 C 
ENDBRANCH  26  27
ENDBRANCH  25  26
ENDBRANCH  20  25
ENDBRANCH   1  17
BRANCH  15  29
HETATM   29  O   UNL     1      37.705 -13.697  -3.662  1.00  0.00    -0.356 OA
HETATM   30  C   UNL     1      36.869 -14.745  -4.140  1.00  0.00     0.210 C 
ENDBRANCH  15  29
TORSDOF 6
ENDMDL
MODEL 4
REMARK VINA RESULT:      -7.5      2.340      3.909
REMARK  6 active torsions:
REMARK  status: ('A' for Active; 'I' for Inactive)
REMARK    1  A    between atoms: C_2  and  C_3 
REMARK    2  A    between atoms: C_3  and  O_4 
REMARK    3  A    between atoms: O_4  and  C_5 
REMARK    4  A    between atoms: C_6  and  O_7 
REMARK    5  A    between atoms: C_10  and  C_11 
REMARK    6  A    between atoms: C_25  and  O_26 
ROOT
HETATM    1  C   UNL     1      43.263 -16.087   1.942  1.00  0.00     0.269 C 
HETATM    2  N   UNL     1      43.747 -17.161   0.995  1.00  0.00    -0.061 N 
HETATM    3  H   UNL     1      44.772 -17.165   1.038  1.00  0.00     0.278 HD
HETATM    4  H   UNL     1      43.485 -16.897   0.040  1.00  0.00     0.278 HD
HETATM    5  C   UNL     1      43.247 -18.554   1.297  1.00  0.00     0.238 C 
HETATM    6  C   UNL     1      43.721 -19.018   2.687  1.00  0.00     0.069 C 
HETATM    7  C   UNL     1      43.491 -17.944   3.694  1.00  0.00    -0.019 A 
HETATM    8  C   UNL     1      43.277 -16.628   3.330  1.00  0.00     0.052 A 
HETATM    9  N   UNL     1      43.092 -15.896   4.475  1.00  0.00    -0.356 N 
HETATM   10  H   UNL     1      42.892 -14.904   4.536  1.00  0.00     0.166 HD
HETATM   11  C   UNL     1      43.219 -16.718   5.575  1.00  0.00     0.043 A 
HETATM   12  C   UNL     1      43.478 -18.009   5.110  1.00  0.00     0.002 A 
HETATM   13  C   UNL     1      43.129 -16.417   6.938  1.00  0.00     0.033 A 
HETATM   14  C   UNL     1      43.332 -17.460   7.853  1.00  0.00     0.039 A 
HETATM   15  C   UNL     1      43.610 -18.756   7.422  1.00  0.00     0.069 A 
HETATM   16  C   UNL     1      43.671 -19.038   6.051  1.00  0.00     0.051 A 
ENDROOT
BRANCH   1  17
HETATM   17  C   UNL     1      41.946 -15.505   1.471  1.00  0.00    -0.019 A 
HETATM   18  C   UNL     1      41.907 -14.857   0.227  1.00  0.00     0.049 A 
HETATM   19  C   UNL     1      40.709 -14.338  -0.267  1.00  0.00     0.102 A 
HETATM   20  C   UNL     1      39.509 -14.473   0.441  1.00  0.00     0.102 A 
HETATM   21  C   UNL     1      39.539 -15.122   1.676  1.00  0.00     0.040 A 
HETATM   22  C   UNL     1      40.743 -15.636   2.185  1.00  0.00     0.012 A 
BRANCH  19  23
HETATM   23  O   UNL     1      40.726 -13.776  -1.518  1.00  0.00    -0.353 OA
HETATM   24  C   UNL     1      41.091 -14.750  -2.497  1.00  0.00     0.210 C 
ENDBRANCH  19  23
BRANCH  20  25
HETATM   25  O   UNL     1      38.396 -13.948  -0.153  1.00  0.00    -0.348 OA
BRANCH  25  26
HETATM   26  C   UNL     1      37.224 -13.783   0.647  1.00  0.00     0.175 C 
BRANCH  26  27
HETATM   27  C   UNL     1      36.830 -12.310   0.600  1.00  0.00     0.022 C 
HETATM   28  C   UNL     1      37.659 -11.470   1.556  1.00  0.00     0.007 C 
ENDBRANCH  26  27
ENDBRANCH  25  26
ENDBRANCH  20  25
ENDBRANCH   1  17
BRANCH  15  29
HETATM   29  O   UNL     1      43.837 -19.839   8.227  1.00  0.00    -0.356 OA
HETATM   30  C   UNL     1      43.559 -21.122   7.676  1.00  0.00     0.210 C 
ENDBRANCH  15  29
TORSDOF 6
ENDMDL
MODEL 5
REMARK VINA RESULT:      -7.4      1.808      2.040
REMARK  6 active torsions:
REMARK  status: ('A' for Active; 'I' for Inactive)
REMARK    1  A    between atoms: C_2  and  C_3 
REMARK    2  A    between atoms: C_3  and  O_4 
REMARK    3  A    between atoms: O_4  and  C_5 
REMARK    4  A    between atoms: C_6  and  O_7 
REMARK    5  A    between atoms: C_10  and  C_11 
REMARK    6  A    between atoms: C_25  and  O_26 
ROOT
HETATM    1  C   UNL     1      40.478 -15.847   3.541  1.00  0.00     0.269 C 
HETATM    2  N   UNL     1      40.159 -15.522   4.983  1.00  0.00    -0.061 N 
HETATM    3  H   UNL     1      39.496 -16.230   5.315  1.00  0.00     0.278 HD
HETATM    4  H   UNL     1      39.679 -14.617   5.015  1.00  0.00     0.278 HD
HETATM    5  C   UNL     1      41.349 -15.504   5.913  1.00  0.00     0.238 C 
HETATM    6  C   UNL     1      42.026 -16.886   5.966  1.00  0.00     0.069 C 
HETATM    7  C   UNL     1      42.207 -17.423   4.588  1.00  0.00    -0.019 A 
HETATM    8  C   UNL     1      41.501 -16.929   3.507  1.00  0.00     0.052 A 
HETATM    9  N   UNL     1      41.896 -17.619   2.390  1.00  0.00    -0.356 N 
HETATM   10  H   UNL     1      41.575 -17.473   1.440  1.00  0.00     0.166 HD
HETATM   11  C   UNL     1      42.823 -18.578   2.743  1.00  0.00     0.043 A 
HETATM   12  C   UNL     1      43.029 -18.480   4.120  1.00  0.00     0.002 A 
HETATM   13  C   UNL     1      43.487 -19.521   1.952  1.00  0.00     0.033 A 
HETATM   14  C   UNL     1      44.369 -20.405   2.589  1.00  0.00     0.039 A 
HETATM   15  C   UNL     1      44.584 -20.344   3.965  1.00  0.00     0.069 A 
HETATM   16  C   UNL     1      43.926 -19.374   4.733  1.00  0.00     0.051 A 
ENDROOT
BRANCH   1  17
HETATM   17  C   UNL     1      40.817 -14.589   2.766  1.00  0.00    -0.019 A 
HETATM   18  C   UNL     1      39.767 -13.841   2.212  1.00  0.00     0.049 A 
HETATM   19  C   UNL     1      40.025 -12.655   1.523  1.00  0.00     0.102 A 
HETATM   20  C   UNL     1      41.328 -12.160   1.388  1.00  0.00     0.102 A 
HETATM   21  C   UNL     1      42.376 -12.896   1.942  1.00  0.00     0.040 A 
HETATM   22  C   UNL     1      42.125 -14.096   2.627  1.00  0.00     0.012 A 
BRANCH  19  23
HETATM   23  O   UNL     1      38.950 -11.938   1.064  1.00  0.00    -0.353 OA
HETATM   24  C   UNL     1      38.131 -11.516   2.154  1.00  0.00     0.210 C 
ENDBRANCH  19  23
BRANCH  20  25
HETATM   25  O   UNL     1      41.456 -10.978   0.714  1.00  0.00    -0.348 OA
BRANCH  25  26
HETATM   26  C   UNL     1      42.196 -10.980  -0.508  1.00  0.00     0.175 C 
BRANCH  26  27
HETATM   27  C   UNL     1      43.168  -9.804  -0.467  1.00  0.00     0.022 C 
HETATM   28  C   UNL     1      43.338  -9.160  -1.831  1.00  0.00     0.007 C 
ENDBRANCH  26  27
ENDBRANCH  25  26
ENDBRANCH  20  25
ENDBRANCH   1  17
BRANCH  15  29
HETATM   29  O   UNL     1      45.410 -21.163   4.686  1.00  0.00    -0.356 OA
HETATM   30  C   UNL     1      44.907 -22.452   5.022  1.00  0.00     0.210 C 
ENDBRANCH  15  29
TORSDOF 6
ENDMDL
MODEL 6
REMARK VINA RESULT:      -7.4      2.920      8.364
REMARK  6 active torsions:
REMARK  status: ('A' for Active; 'I' for Inactive)
REMARK    1  A    between atoms: C_2  and  C_3 
REMARK    2  A    between atoms: C_3  and  O_4 
REMARK    3  A    between atoms: O_4  and  C_5 
REMARK    4  A    between atoms: C_6  and  O_7 
REMARK    5  A    between atoms: C_10  and  C_11 
REMARK    6  A    between atoms: C_25  and  O_26 
ROOT
HETATM    1  C   UNL     1      40.558 -16.650   2.121  1.00  0.00     0.269 C 
HETATM    2  N   UNL     1      40.654 -16.307   0.652  1.00  0.00    -0.061 N 
HETATM    3  H   UNL     1      39.697 -16.174   0.307  1.00  0.00     0.278 HD
HETATM    4  H   UNL     1      41.046 -17.113   0.154  1.00  0.00     0.278 HD
HETATM    5  C   UNL     1      41.457 -15.068   0.334  1.00  0.00     0.238 C 
HETATM    6  C   UNL     1      40.825 -13.823   0.983  1.00  0.00     0.069 C 
HETATM    7  C   UNL     1      40.480 -14.103   2.405  1.00  0.00    -0.019 A 
HETATM    8  C   UNL     1      40.375 -15.391   2.896  1.00  0.00     0.052 A 
HETATM    9  N   UNL     1      40.057 -15.313   4.228  1.00  0.00    -0.356 N 
HETATM   10  H   UNL     1      39.933 -16.088   4.870  1.00  0.00     0.166 HD
HETATM   11  C   UNL     1      39.921 -13.990   4.594  1.00  0.00     0.043 A 
HETATM   12  C   UNL     1      40.174 -13.211   3.464  1.00  0.00     0.002 A 
HETATM   13  C   UNL     1      39.590 -13.428   5.831  1.00  0.00     0.033 A 
HETATM   14  C   UNL     1      39.493 -12.032   5.912  1.00  0.00     0.039 A 
HETATM   15  C   UNL     1      39.723 -11.227   4.797  1.00  0.00     0.069 A 
HETATM   16  C   UNL     1      40.077 -11.811   3.574  1.00  0.00     0.051 A 
ENDROOT
BRANCH   1  17
HETATM   17  C   UNL     1      41.716 -17.529   2.548  1.00  0.00    -0.019 A 
HETATM   18  C   UNL     1      42.155 -17.458   3.879  1.00  0.00     0.049 A 
HETATM   19  C   UNL     1      43.193 -18.275   4.330  1.00  0.00     0.102 A 
HETATM   20  C   UNL     1      43.804 -19.209   3.485  1.00  0.00     0.102 A 
HETATM   21  C   UNL     1      43.368 -19.289   2.162  1.00  0.00     0.040 A 
HETATM   22  C   UNL     1      42.333 -18.462   1.698  1.00  0.00     0.012 A 
BRANCH  19  23
HETATM   23  O   UNL     1      43.529 -18.203   5.658  1.00  0.00    -0.353 OA
HETATM   24  C   UNL     1      43.257 -16.899   6.170  1.00  0.00     0.210 C 
ENDBRANCH  19  23
BRANCH  20  25
HETATM   25  O   UNL     1      44.792 -19.971   4.044  1.00  0.00    -0.348 OA
BRANCH  25  26
HETATM   26  C   UNL     1      44.752 -21.383   3.828  1.00  0.00     0.175 C 
BRANCH  26  27
HETATM   27  C   UNL     1      45.031 -22.067   5.163  1.00  0.00     0.022 C 
HETATM   28  C   UNL     1      44.135 -21.540   6.270  1.00  0.00     0.007 C 
ENDBRANCH  26  27
ENDBRANCH  25  26
ENDBRANCH  20  25
ENDBRANCH   1  17
BRANCH  15  29
HETATM   29  O   UNL     1      39.642  -9.861   4.763  1.00  0.00    -0.356 OA
HETATM   30  C   UNL     1      39.120  -9.217   5.921  1.00  0.00     0.210 C 
ENDBRANCH  15  29
TORSDOF 6
ENDMDL
MODEL 7
REMARK VINA RESULT:      -7.3      1.232      1.479
REMARK  6 active torsions:
REMARK  status: ('A' for Active; 'I' for Inactive)
REMARK    1  A    between atoms: C_2  and  C_3 
REMARK    2  A    between atoms: C_3  and  O_4 
REMARK    3  A    between atoms: O_4  and  C_5 
REMARK    4  A    between atoms: C_6  and  O_7 
REMARK    5  A    between atoms: C_10  and  C_11 
REMARK    6  A    between atoms: C_25  and  O_26 
ROOT
HETATM    1  C   UNL     1      40.419 -15.987   2.651  1.00  0.00     0.269 C 
HETATM    2  N   UNL     1      40.042 -15.440   4.009  1.00  0.00    -0.061 N 
HETATM    3  H   UNL     1      39.375 -16.097   4.428  1.00  0.00     0.278 HD
HETATM    4  H   UNL     1      39.549 -14.550   3.877  1.00  0.00     0.278 HD
HETATM    5  C   UNL     1      41.195 -15.251   4.966  1.00  0.00     0.238 C 
HETATM    6  C   UNL     1      41.886 -16.593   5.266  1.00  0.00     0.069 C 
HETATM    7  C   UNL     1      42.125 -17.343   4.001  1.00  0.00    -0.019 A 
HETATM    8  C   UNL     1      41.455 -17.042   2.830  1.00  0.00     0.052 A 
HETATM    9  N   UNL     1      41.901 -17.897   1.854  1.00  0.00    -0.356 N 
HETATM   10  H   UNL     1      41.615 -17.912   0.882  1.00  0.00     0.166 HD
HETATM   11  C   UNL     1      42.824 -18.769   2.391  1.00  0.00     0.043 A 
HETATM   12  C   UNL     1      42.977 -18.446   3.741  1.00  0.00     0.002 A 
HETATM   13  C   UNL     1      43.530 -19.816   1.788  1.00  0.00     0.033 A 
HETATM   14  C   UNL     1      44.397 -20.569   2.591  1.00  0.00     0.039 A 
HETATM   15  C   UNL     1      44.559 -20.283   3.946  1.00  0.00     0.069 A 
HETATM   16  C   UNL     1      43.860 -19.214   4.522  1.00  0.00     0.051 A 
ENDROOT
BRANCH   1  17
HETATM   17  C   UNL     1      40.772 -14.866   1.695  1.00  0.00    -0.019 A 
HETATM   18  C   UNL     1      40.053 -14.759   0.495  1.00  0.00     0.049 A 
HETATM   19  C   UNL     1      40.315 -13.720  -0.400  1.00  0.00     0.102 A 
HETATM   20  C   UNL     1      41.275 -12.741  -0.119  1.00  0.00     0.102 A 
HETATM   21  C   UNL     1      41.989 -12.838   1.076  1.00  0.00     0.040 A 
HETATM   22  C   UNL     1      41.739 -13.887   1.976  1.00  0.00     0.012 A 
BRANCH  19  23
HETATM   23  O   UNL     1      39.532 -13.634  -1.523  1.00  0.00    -0.353 OA
HETATM   24  C   UNL     1      38.151 -13.727  -1.175  1.00  0.00     0.210 C 
ENDBRANCH  19  23
BRANCH  20  25
HETATM   25  O   UNL     1      41.428 -11.759  -1.058  1.00  0.00    -0.348 OA
BRANCH  25  26
HETATM   26  C   UNL     1      41.241 -10.404  -0.647  1.00  0.00     0.175 C 
BRANCH  26  27
HETATM   27  C   UNL     1      39.778 -10.234  -0.248  1.00  0.00     0.022 C 
HETATM   28  C   UNL     1      39.633  -9.701   1.167  1.00  0.00     0.007 C 
ENDBRANCH  26  27
ENDBRANCH  25  26
ENDBRANCH  20  25
ENDBRANCH   1  17
BRANCH  15  29
HETATM   29  O   UNL     1      45.366 -20.960   4.819  1.00  0.00    -0.356 OA
HETATM   30  C   UNL     1      44.988 -22.293   5.146  1.00  0.00     0.210 C 
ENDBRANCH  15  29
TORSDOF 6
ENDMDL
MODEL 8
REMARK VINA RESULT:      -7.3      2.285      7.997
REMARK  6 active torsions:
REMARK  status: ('A' for Active; 'I' for Inactive)
REMARK    1  A    between atoms: C_2  and  C_3 
REMARK    2  A    between atoms: C_3  and  O_4 
REMARK    3  A    between atoms: O_4  and  C_5 
REMARK    4  A    between atoms: C_6  and  O_7 
REMARK    5  A    between atoms: C_10  and  C_11 
REMARK    6  A    between atoms: C_25  and  O_26 
ROOT
HETATM    1  C   UNL     1      42.907 -15.224   5.191  1.00  0.00     0.269 C 
HETATM    2  N   UNL     1      41.991 -15.087   6.385  1.00  0.00    -0.061 N 
HETATM    3  H   UNL     1      42.010 -14.103   6.673  1.00  0.00     0.278 HD
HETATM    4  H   UNL     1      42.378 -15.637   7.160  1.00  0.00     0.278 HD
HETATM    5  C   UNL     1      40.556 -15.488   6.141  1.00  0.00     0.238 C 
HETATM    6  C   UNL     1      39.915 -14.603   5.056  1.00  0.00     0.069 C 
HETATM    7  C   UNL     1      40.830 -14.480   3.886  1.00  0.00    -0.019 A 
HETATM    8  C   UNL     1      42.177 -14.776   3.973  1.00  0.00     0.052 A 
HETATM    9  N   UNL     1      42.737 -14.573   2.737  1.00  0.00    -0.356 N 
HETATM   10  H   UNL     1      43.704 -14.725   2.475  1.00  0.00     0.166 HD
HETATM   11  C   UNL     1      41.773 -14.115   1.863  1.00  0.00     0.043 A 
HETATM   12  C   UNL     1      40.568 -14.040   2.564  1.00  0.00     0.002 A 
HETATM   13  C   UNL     1      41.877 -13.759   0.515  1.00  0.00     0.033 A 
HETATM   14  C   UNL     1      40.724 -13.292  -0.131  1.00  0.00     0.039 A 
HETATM   15  C   UNL     1      39.509 -13.190   0.546  1.00  0.00     0.069 A 
HETATM   16  C   UNL     1      39.423 -13.575   1.890  1.00  0.00     0.051 A 
ENDROOT
BRANCH   1  17
HETATM   17  C   UNL     1      43.511 -16.612   5.130  1.00  0.00    -0.019 A 
HETATM   18  C   UNL     1      43.398 -17.339   3.934  1.00  0.00     0.049 A 
HETATM   19  C   UNL     1      43.972 -18.606   3.816  1.00  0.00     0.102 A 
HETATM   20  C   UNL     1      44.699 -19.177   4.866  1.00  0.00     0.102 A 
HETATM   21  C   UNL     1      44.821 -18.458   6.055  1.00  0.00     0.040 A 
HETATM   22  C   UNL     1      44.237 -17.187   6.186  1.00  0.00     0.012 A 
BRANCH  19  23
HETATM   23  O   UNL     1      43.882 -19.235   2.600  1.00  0.00    -0.353 OA
HETATM   24  C   UNL     1      43.708 -18.277   1.556  1.00  0.00     0.210 C 
ENDBRANCH  19  23
BRANCH  20  25
HETATM   25  O   UNL     1      45.236 -20.412   4.627  1.00  0.00    -0.348 OA
BRANCH  25  26
HETATM   26  C   UNL     1      44.695 -21.527   5.336  1.00  0.00     0.175 C 
BRANCH  26  27
HETATM   27  C   UNL     1      44.767 -22.744   4.419  1.00  0.00     0.022 C 
HETATM   28  C   UNL     1      44.469 -22.385   2.974  1.00  0.00     0.007 C 
ENDBRANCH  26  27
ENDBRANCH  25  26
ENDBRANCH  20  25
ENDBRANCH   1  17
BRANCH  15  29
HETATM   29  O   UNL     1      38.331 -12.736   0.017  1.00  0.00    -0.356 OA
HETATM   30  C   UNL     1      38.233 -12.699  -1.403  1.00  0.00     0.210 C 
ENDBRANCH  15  29
TORSDOF 6
ENDMDL
MODEL 9
REMARK VINA RESULT:      -7.2      2.175      3.626
REMARK  6 active torsions:
REMARK  status: ('A' for Active; 'I' for Inactive)
REMARK    1  A    between atoms: C_2  and  C_3 
REMARK    2  A    between atoms: C_3  and  O_4 
REMARK    3  A    between atoms: O_4  and  C_5 
REMARK    4  A    between atoms: C_6  and  O_7 
REMARK    5  A    between atoms: C_10  and  C_11 
REMARK    6  A    between atoms: C_25  and  O_26 
ROOT
HETATM    1  C   UNL     1      40.340 -14.901  -1.000  1.00  0.00     0.269 C 
HETATM    2  N   UNL     1      38.971 -14.556  -0.461  1.00  0.00    -0.061 N 
HETATM    3  H   UNL     1      38.376 -15.381  -0.587  1.00  0.00     0.278 HD
HETATM    4  H   UNL     1      38.574 -13.804  -1.034  1.00  0.00     0.278 HD
HETATM    5  C   UNL     1      38.939 -14.159   0.996  1.00  0.00     0.238 C 
HETATM    6  C   UNL     1      39.430 -15.312   1.891  1.00  0.00     0.069 C 
HETATM    7  C   UNL     1      40.686 -15.893   1.338  1.00  0.00    -0.019 A 
HETATM    8  C   UNL     1      41.079 -15.684   0.029  1.00  0.00     0.052 A 
HETATM    9  N   UNL     1      42.269 -16.337  -0.166  1.00  0.00    -0.356 N 
HETATM   10  H   UNL     1      42.821 -16.354  -1.016  1.00  0.00     0.166 HD
HETATM   11  C   UNL     1      42.630 -16.994   0.991  1.00  0.00     0.043 A 
HETATM   12  C   UNL     1      41.648 -16.737   1.949  1.00  0.00     0.002 A 
HETATM   13  C   UNL     1      43.745 -17.795   1.260  1.00  0.00     0.033 A 
HETATM   14  C   UNL     1      43.847 -18.369   2.535  1.00  0.00     0.039 A 
HETATM   15  C   UNL     1      42.873 -18.146   3.507  1.00  0.00     0.069 A 
HETATM   16  C   UNL     1      41.778 -17.320   3.223  1.00  0.00     0.051 A 
ENDROOT
BRANCH   1  17
HETATM   17  C   UNL     1      41.043 -13.665  -1.524  1.00  0.00    -0.019 A 
HETATM   18  C   UNL     1      41.602 -12.770  -0.598  1.00  0.00     0.049 A 
HETATM   19  C   UNL     1      42.293 -11.637  -1.032  1.00  0.00     0.102 A 
HETATM   20  C   UNL     1      42.477 -11.374  -2.395  1.00  0.00     0.102 A 
HETATM   21  C   UNL     1      41.929 -12.263  -3.320  1.00  0.00     0.040 A 
HETATM   22  C   UNL     1      41.222 -13.398  -2.891  1.00  0.00     0.012 A 
BRANCH  19  23
HETATM   23  O   UNL     1      42.871 -10.840  -0.078  1.00  0.00    -0.353 OA
HETATM   24  C   UNL     1      41.889 -10.007   0.537  1.00  0.00     0.210 C 
ENDBRANCH  19  23
BRANCH  20  25
HETATM   25  O   UNL     1      43.190 -10.249  -2.700  1.00  0.00    -0.348 OA
BRANCH  25  26
HETATM   26  C   UNL     1      42.465  -9.069  -3.047  1.00  0.00     0.175 C 
BRANCH  26  27
HETATM   27  C   UNL     1      42.507  -8.924  -4.566  1.00  0.00     0.022 C 
HETATM   28  C   UNL     1      41.135  -9.098  -5.191  1.00  0.00     0.007 C 
ENDBRANCH  26  27
ENDBRANCH  25  26
ENDBRANCH  20  25
ENDBRANCH   1  17
BRANCH  15  29
HETATM   29  O   UNL     1      42.868 -18.666   4.773  1.00  0.00    -0.356 OA
HETATM   30  C   UNL     1      44.078 -19.263   5.229  1.00  0.00     0.210 C 
ENDBRANCH  15  29
TORSDOF 6
ENDMDL
MODEL 10
REMARK VINA RESULT:      -6.9      2.745      8.108
REMARK  6 active torsions:
REMARK  status: ('A' for Active; 'I' for Inactive)
REMARK    1  A    between atoms: C_2  and  C_3 
REMARK    2  A    between atoms: C_3  and  O_4 
REMARK    3  A    between atoms: O_4  and  C_5 
REMARK    4  A    between atoms: C_6  and  O_7 
REMARK    5  A    between atoms: C_10  and  C_11 
REMARK    6  A    between atoms: C_25  and  O_26 
ROOT
HETATM    1  C   UNL     1      41.856 -13.442   0.983  1.00  0.00     0.269 C 
HETATM    2  N   UNL     1      41.056 -12.384   1.706  1.00  0.00    -0.061 N 
HETATM    3  H   UNL     1      41.161 -11.510   1.181  1.00  0.00     0.278 HD
HETATM    4  H   UNL     1      41.473 -12.234   2.631  1.00  0.00     0.278 HD
HETATM    5  C   UNL     1      39.583 -12.684   1.852  1.00  0.00     0.238 C 
HETATM    6  C   UNL     1      38.908 -12.806   0.474  1.00  0.00     0.069 C 
HETATM    7  C   UNL     1      39.726 -13.669  -0.424  1.00  0.00    -0.019 A 
HETATM    8  C   UNL     1      41.054 -13.949  -0.166  1.00  0.00     0.052 A 
HETATM    9  N   UNL     1      41.518 -14.769  -1.163  1.00  0.00    -0.356 N 
HETATM   10  H   UNL     1      42.448 -15.164  -1.242  1.00  0.00     0.166 HD
HETATM   11  C   UNL     1      40.513 -14.993  -2.080  1.00  0.00     0.043 A 
HETATM   12  C   UNL     1      39.379 -14.307  -1.643  1.00  0.00     0.002 A 
HETATM   13  C   UNL     1      40.523 -15.744  -3.260  1.00  0.00     0.033 A 
HETATM   14  C   UNL     1      39.350 -15.776  -4.027  1.00  0.00     0.039 A 
HETATM   15  C   UNL     1      38.207 -15.087  -3.625  1.00  0.00     0.069 A 
HETATM   16  C   UNL     1      38.212 -14.361  -2.427  1.00  0.00     0.051 A 
ENDROOT
BRANCH   1  17
HETATM   17  C   UNL     1      42.366 -14.491   1.950  1.00  0.00    -0.019 A 
HETATM   18  C   UNL     1      42.781 -14.080   3.226  1.00  0.00     0.049 A 
HETATM   19  C   UNL     1      43.221 -15.014   4.166  1.00  0.00     0.102 A 
HETATM   20  C   UNL     1      43.234 -16.384   3.880  1.00  0.00     0.102 A 
HETATM   21  C   UNL     1      42.816 -16.800   2.616  1.00  0.00     0.040 A 
HETATM   22  C   UNL     1      42.383 -15.866   1.661  1.00  0.00     0.012 A 
BRANCH  19  23
HETATM   23  O   UNL     1      43.550 -14.553   5.415  1.00  0.00    -0.353 OA
HETATM   24  C   UNL     1      42.826 -13.359   5.712  1.00  0.00     0.210 C 
ENDBRANCH  19  23
BRANCH  20  25
HETATM   25  O   UNL     1      43.662 -17.205   4.886  1.00  0.00    -0.348 OA
BRANCH  25  26
HETATM   26  C   UNL     1      43.248 -18.572   4.857  1.00  0.00     0.175 C 
BRANCH  26  27
HETATM   27  C   UNL     1      44.315 -19.398   5.571  1.00  0.00     0.022 C 
HETATM   28  C   UNL     1      44.848 -20.516   4.693  1.00  0.00     0.007 C 
ENDBRANCH  26  27
ENDBRANCH  25  26
ENDBRANCH  20  25
ENDBRANCH   1  17
BRANCH  15  29
HETATM   29  O   UNL     1      37.018 -15.041  -4.303  1.00  0.00    -0.356 OA
HETATM   30  C   UNL     1      36.388 -13.769  -4.413  1.00  0.00     0.210 C 
ENDBRANCH  15  29
TORSDOF 6
ENDMDL
