MODEL 1
REMARK VINA RESULT:      -9.4      0.000      0.000
REMARK  8 active torsions:
REMARK  status: ('A' for Active; 'I' for Inactive)
REMARK    1  A    between atoms: C_2  and  C_3 
REMARK    2  A    between atoms: C_3  and  C_4 
REMARK    3  A    between atoms: C_7  and  N_8 
REMARK       I    between atoms: N_8  and  C_9 
REMARK    4  A    between atoms: C_9  and  C_10 
REMARK    5  A    between atoms: C_13  and  N_14 
REMARK       I    between atoms: N_14  and  C_15 
REMARK    6  A    between atoms: C_15  and  C_16 
REMARK    7  A    between atoms: C_16  and  C_17 
REMARK    8  A    between atoms: C_19  and  N_20 
ROOT
HETATM    1  C   UNL     1      44.851 -12.622   8.479  1.00  0.00     0.032 A 
HETATM    2  C   UNL     1      45.823 -12.424   9.466  1.00  0.00     0.019 A 
HETATM    3  C   UNL     1      45.596 -11.514  10.510  1.00  0.00     0.030 A 
HETATM    4  C   UNL     1      44.408 -10.784  10.576  1.00  0.00     0.034 A 
HETATM    5  C   UNL     1      43.459 -10.949   9.561  1.00  0.00     0.030 A 
HETATM    6  C   UNL     1      43.679 -11.859   8.521  1.00  0.00     0.019 A 
ENDROOT
BRANCH   4   7
HETATM    7  N   UNL     1      44.089  -9.880  11.611  1.00  0.00    -0.327 N 
HETATM    8  C   UNL     1      43.299 -10.119  12.721  1.00  0.00     0.223 C 
HETATM    9  O   UNL     1      42.718 -11.165  12.988  1.00  0.00    -0.273 OA
HETATM   10  H   UNL     1      44.479  -8.950  11.513  1.00  0.00     0.169 HD
BRANCH   8  11
HETATM   11  C   UNL     1      43.154  -8.900  13.611  1.00  0.00     0.128 C 
BRANCH  11  12
HETATM   12  C   UNL     1      41.939  -8.084  13.194  1.00  0.00     0.158 C 
HETATM   13  S   UNL     1      41.693  -8.125  11.394  1.00  0.00    -0.077 SA
HETATM   14  C   UNL     1      39.984  -8.456  11.614  1.00  0.00     0.168 C 
HETATM   15  N   UNL     1      39.620  -8.703  12.831  1.00  0.00    -0.189 NA
HETATM   16  C   UNL     1      40.652  -8.666  13.738  1.00  0.00     0.260 C 
HETATM   17  O   UNL     1      40.541  -9.048  14.898  1.00  0.00    -0.270 OA
BRANCH  14  18
HETATM   18  N   UNL     1      39.131  -8.410  10.533  1.00  0.00    -0.360 N 
HETATM   19  C   UNL     1      39.266  -7.463   9.421  1.00  0.00     0.125 C 
HETATM   20  C   UNL     1      40.025  -8.136   8.275  1.00  0.00     0.020 C 
HETATM   21  C   UNL     1      39.335  -9.433   7.845  1.00  0.00     0.003 C 
HETATM   22  C   UNL     1      39.088 -10.353   9.041  1.00  0.00     0.020 C 
HETATM   23  C   UNL     1      38.367  -9.610  10.164  1.00  0.00     0.125 C 
ENDBRANCH  14  18
ENDBRANCH  11  12
ENDBRANCH   8  11
ENDBRANCH   4   7
BRANCH   1  24
HETATM   24  C   UNL     1      44.988 -13.630   7.382  1.00  0.00     0.256 C 
HETATM   25  N   UNL     1      44.120 -14.706   7.446  1.00  0.00    -0.323 N 
HETATM   26  H   UNL     1      43.500 -14.763   8.240  1.00  0.00     0.169 HD
HETATM   27  O   UNL     1      45.813 -13.411   6.502  1.00  0.00    -0.267 OA
BRANCH  25  28
HETATM   28  C   UNL     1      43.914 -15.697   6.462  1.00  0.00     0.035 A 
HETATM   29  C   UNL     1      44.374 -17.009   6.564  1.00  0.00     0.030 A 
HETATM   30  C   UNL     1      44.200 -17.911   5.506  1.00  0.00     0.010 A 
HETATM   31  C   UNL     1      43.537 -17.529   4.332  1.00  0.00    -0.054 A 
HETATM   32  C   UNL     1      43.059 -16.214   4.244  1.00  0.00     0.010 A 
HETATM   33  C   UNL     1      43.249 -15.309   5.293  1.00  0.00     0.030 A 
BRANCH  31  34
HETATM   34  C   UNL     1      43.384 -18.456   3.136  1.00  0.00     0.014 C 
HETATM   35  C   UNL     1      43.887 -17.735   1.878  1.00  0.00     0.015 C 
BRANCH  34  36
HETATM   36  C   UNL     1      44.073 -19.832   3.260  1.00  0.00     0.004 C 
HETATM   37  C   UNL     1      43.867 -20.722   2.041  1.00  0.00     0.006 C 
ENDBRANCH  34  36
ENDBRANCH  31  34
ENDBRANCH  25  28
ENDBRANCH   1  24
TORSDOF 8
ENDMDL
MODEL 2
REMARK VINA RESULT:      -9.0      2.891      5.102
REMARK  8 active torsions:
REMARK  status: ('A' for Active; 'I' for Inactive)
REMARK    1  A    between atoms: C_2  and  C_3 
REMARK    2  A    between atoms: C_3  and  C_4 
REMARK    3  A    between atoms: C_7  and  N_8 
REMARK       I    between atoms: N_8  and  C_9 
REMARK    4  A    between atoms: C_9  and  C_10 
REMARK    5  A    between atoms: C_13  and  N_14 
REMARK       I    between atoms: N_14  and  C_15 
REMARK    6  A    between atoms: C_15  and  C_16 
REMARK    7  A    between atoms: C_16  and  C_17 
REMARK    8  A    between atoms: C_19  and  N_20 
ROOT
HETATM    1  C   UNL     1      41.417 -14.349   4.573  1.00  0.00     0.032 A 
HETATM    2  C   UNL     1      40.039 -14.155   4.713  1.00  0.00     0.019 A 
HETATM    3  C   UNL     1      39.548 -13.037   5.402  1.00  0.00     0.030 A 
HETATM    4  C   UNL     1      40.422 -12.108   5.971  1.00  0.00     0.034 A 
HETATM    5  C   UNL     1      41.800 -12.330   5.870  1.00  0.00     0.030 A 
HETATM    6  C   UNL     1      42.293 -13.442   5.179  1.00  0.00     0.019 A 
ENDROOT
BRANCH   4   7
HETATM    7  N   UNL     1      40.008 -10.941   6.647  1.00  0.00    -0.327 N 
HETATM    8  C   UNL     1      39.330 -10.863   7.849  1.00  0.00     0.223 C 
HETATM    9  O   UNL     1      38.950 -11.808   8.532  1.00  0.00    -0.273 OA
HETATM   10  H   UNL     1      40.228 -10.067   6.183  1.00  0.00     0.169 HD
BRANCH   8  11
HETATM   11  C   UNL     1      39.025  -9.436   8.261  1.00  0.00     0.128 C 
BRANCH  11  12
HETATM   12  C   UNL     1      40.001  -8.976   9.334  1.00  0.00     0.158 C 
HETATM   13  S   UNL     1      39.788  -9.912  10.876  1.00  0.00    -0.077 SA
HETATM   14  C   UNL     1      41.522 -10.150  10.996  1.00  0.00     0.168 C 
HETATM   15  N   UNL     1      42.206  -9.774   9.964  1.00  0.00    -0.189 NA
HETATM   16  C   UNL     1      41.439  -9.256   8.948  1.00  0.00     0.260 C 
HETATM   17  O   UNL     1      41.879  -9.017   7.829  1.00  0.00    -0.270 OA
BRANCH  14  18
HETATM   18  N   UNL     1      42.065 -10.675  12.149  1.00  0.00    -0.360 N 
HETATM   19  C   UNL     1      43.458 -10.482  12.563  1.00  0.00     0.125 C 
HETATM   20  C   UNL     1      43.534  -9.313  13.546  1.00  0.00     0.020 C 
HETATM   21  C   UNL     1      42.606  -9.537  14.743  1.00  0.00     0.003 C 
HETATM   22  C   UNL     1      41.183  -9.864  14.286  1.00  0.00     0.020 C 
HETATM   23  C   UNL     1      41.181 -11.009  13.275  1.00  0.00     0.125 C 
ENDBRANCH  14  18
ENDBRANCH  11  12
ENDBRANCH   8  11
ENDBRANCH   4   7
BRANCH   1  24
HETATM   24  C   UNL     1      42.013 -15.473   3.785  1.00  0.00     0.256 C 
HETATM   25  N   UNL     1      42.903 -16.280   4.472  1.00  0.00    -0.323 N 
HETATM   26  H   UNL     1      43.123 -16.032   5.425  1.00  0.00     0.169 HD
HETATM   27  O   UNL     1      41.645 -15.619   2.625  1.00  0.00    -0.267 OA
BRANCH  25  28
HETATM   28  C   UNL     1      43.468 -17.497   4.033  1.00  0.00     0.035 A 
HETATM   29  C   UNL     1      43.765 -17.786   2.703  1.00  0.00     0.030 A 
HETATM   30  C   UNL     1      44.247 -19.051   2.337  1.00  0.00     0.010 A 
HETATM   31  C   UNL     1      44.468 -20.045   3.298  1.00  0.00    -0.054 A 
HETATM   32  C   UNL     1      44.186 -19.742   4.637  1.00  0.00     0.010 A 
HETATM   33  C   UNL     1      43.688 -18.486   4.999  1.00  0.00     0.030 A 
BRANCH  31  34
HETATM   34  C   UNL     1      44.929 -21.450   2.937  1.00  0.00     0.014 C 
HETATM   35  C   UNL     1      44.631 -22.391   4.112  1.00  0.00     0.015 C 
BRANCH  34  36
HETATM   36  C   UNL     1      44.339 -22.036   1.637  1.00  0.00     0.004 C 
HETATM   37  C   UNL     1      42.823 -21.917   1.554  1.00  0.00     0.006 C 
ENDBRANCH  34  36
ENDBRANCH  31  34
ENDBRANCH  25  28
ENDBRANCH   1  24
TORSDOF 8
ENDMDL
MODEL 3
REMARK VINA RESULT:      -8.7      4.281     10.762
REMARK  8 active torsions:
REMARK  status: ('A' for Active; 'I' for Inactive)
REMARK    1  A    between atoms: C_2  and  C_3 
REMARK    2  A    between atoms: C_3  and  C_4 
REMARK    3  A    between atoms: C_7  and  N_8 
REMARK       I    between atoms: N_8  and  C_9 
REMARK    4  A    between atoms: C_9  and  C_10 
REMARK    5  A    between atoms: C_13  and  N_14 
REMARK       I    between atoms: N_14  and  C_15 
REMARK    6  A    between atoms: C_15  and  C_16 
REMARK    7  A    between atoms: C_16  and  C_17 
REMARK    8  A    between atoms: C_19  and  N_20 
ROOT
HETATM    1  C   UNL     1      41.393 -10.868   5.935  1.00  0.00     0.032 A 
HETATM    2  C   UNL     1      40.921 -10.215   4.792  1.00  0.00     0.019 A 
HETATM    3  C   UNL     1      40.728 -10.928   3.599  1.00  0.00     0.030 A 
HETATM    4  C   UNL     1      41.014 -12.293   3.528  1.00  0.00     0.034 A 
HETATM    5  C   UNL     1      41.531 -12.932   4.660  1.00  0.00     0.030 A 
HETATM    6  C   UNL     1      41.720 -12.226   5.853  1.00  0.00     0.019 A 
ENDROOT
BRANCH   4   7
HETATM    7  N   UNL     1      40.812 -13.086   2.379  1.00  0.00    -0.327 N 
HETATM    8  C   UNL     1      41.576 -13.104   1.226  1.00  0.00     0.223 C 
HETATM    9  O   UNL     1      42.560 -12.409   0.996  1.00  0.00    -0.273 OA
HETATM   10  H   UNL     1      40.007 -13.700   2.409  1.00  0.00     0.169 HD
BRANCH   8  11
HETATM   11  C   UNL     1      41.044 -14.066   0.183  1.00  0.00     0.128 C 
BRANCH  11  12
HETATM   12  C   UNL     1      40.953 -15.472   0.760  1.00  0.00     0.158 C 
HETATM   13  S   UNL     1      42.448 -15.907   1.696  1.00  0.00    -0.077 SA
HETATM   14  C   UNL     1      41.468 -16.521   3.016  1.00  0.00     0.168 C 
HETATM   15  N   UNL     1      40.199 -16.290   2.917  1.00  0.00    -0.189 NA
HETATM   16  C   UNL     1      39.847 -15.591   1.787  1.00  0.00     0.260 C 
HETATM   17  O   UNL     1      38.728 -15.123   1.608  1.00  0.00    -0.270 OA
BRANCH  14  18
HETATM   18  N   UNL     1      42.061 -17.223   4.042  1.00  0.00    -0.360 N 
HETATM   19  C   UNL     1      43.454 -17.042   4.464  1.00  0.00     0.125 C 
HETATM   20  C   UNL     1      43.500 -16.072   5.646  1.00  0.00     0.020 C 
HETATM   21  C   UNL     1      42.613 -16.560   6.794  1.00  0.00     0.003 C 
HETATM   22  C   UNL     1      41.196 -16.866   6.306  1.00  0.00     0.020 C 
HETATM   23  C   UNL     1      41.222 -17.804   5.100  1.00  0.00     0.125 C 
ENDBRANCH  14  18
ENDBRANCH  11  12
ENDBRANCH   8  11
ENDBRANCH   4   7
BRANCH   1  24
HETATM   24  C   UNL     1      41.548 -10.193   7.262  1.00  0.00     0.256 C 
HETATM   25  N   UNL     1      41.511 -11.027   8.366  1.00  0.00    -0.323 N 
HETATM   26  H   UNL     1      41.336 -12.008   8.208  1.00  0.00     0.169 HD
HETATM   27  O   UNL     1      41.735  -8.982   7.270  1.00  0.00    -0.267 OA
BRANCH  25  28
HETATM   28  C   UNL     1      41.805 -10.686   9.704  1.00  0.00     0.035 A 
HETATM   29  C   UNL     1      40.840 -10.399  10.668  1.00  0.00     0.030 A 
HETATM   30  C   UNL     1      41.216  -9.988  11.955  1.00  0.00     0.010 A 
HETATM   31  C   UNL     1      42.565  -9.880  12.313  1.00  0.00    -0.054 A 
HETATM   32  C   UNL     1      43.531 -10.190  11.345  1.00  0.00     0.010 A 
HETATM   33  C   UNL     1      43.155 -10.583  10.057  1.00  0.00     0.030 A 
BRANCH  31  34
HETATM   34  C   UNL     1      43.015  -9.376  13.676  1.00  0.00     0.014 C 
HETATM   35  C   UNL     1      42.770  -7.863  13.755  1.00  0.00     0.015 C 
BRANCH  34  36
HETATM   36  C   UNL     1      42.375 -10.073  14.895  1.00  0.00     0.004 C 
HETATM   37  C   UNL     1      41.974  -9.106  16.001  1.00  0.00     0.006 C 
ENDBRANCH  34  36
ENDBRANCH  31  34
ENDBRANCH  25  28
ENDBRANCH   1  24
TORSDOF 8
ENDMDL
MODEL 4
REMARK VINA RESULT:      -8.5      4.387     10.970
REMARK  8 active torsions:
REMARK  status: ('A' for Active; 'I' for Inactive)
REMARK    1  A    between atoms: C_2  and  C_3 
REMARK    2  A    between atoms: C_3  and  C_4 
REMARK    3  A    between atoms: C_7  and  N_8 
REMARK       I    between atoms: N_8  and  C_9 
REMARK    4  A    between atoms: C_9  and  C_10 
REMARK    5  A    between atoms: C_13  and  N_14 
REMARK       I    between atoms: N_14  and  C_15 
REMARK    6  A    between atoms: C_15  and  C_16 
REMARK    7  A    between atoms: C_16  and  C_17 
REMARK    8  A    between atoms: C_19  and  N_20 
ROOT
HETATM    1  C   UNL     1      41.445 -11.032   6.040  1.00  0.00     0.032 A 
HETATM    2  C   UNL     1      41.638 -12.413   5.932  1.00  0.00     0.019 A 
HETATM    3  C   UNL     1      41.408 -13.066   4.712  1.00  0.00     0.030 A 
HETATM    4  C   UNL     1      40.971 -12.355   3.592  1.00  0.00     0.034 A 
HETATM    5  C   UNL     1      40.734 -10.982   3.717  1.00  0.00     0.030 A 
HETATM    6  C   UNL     1      40.967 -10.326   4.931  1.00  0.00     0.019 A 
ENDROOT
BRANCH   4   7
HETATM    7  N   UNL     1      40.753 -12.930   2.323  1.00  0.00    -0.327 N 
HETATM    8  C   UNL     1      41.604 -12.907   1.232  1.00  0.00     0.223 C 
HETATM    9  O   UNL     1      42.699 -12.358   1.177  1.00  0.00    -0.273 OA
HETATM   10  H   UNL     1      39.864 -13.401   2.204  1.00  0.00     0.169 HD
BRANCH   8  11
HETATM   11  C   UNL     1      41.025 -13.608   0.020  1.00  0.00     0.128 C 
BRANCH  11  12
HETATM   12  C   UNL     1      40.750 -15.071   0.338  1.00  0.00     0.158 C 
HETATM   13  S   UNL     1      42.136 -15.831   1.232  1.00  0.00    -0.077 SA
HETATM   14  C   UNL     1      41.026 -16.543   2.391  1.00  0.00     0.168 C 
HETATM   15  N   UNL     1      39.797 -16.151   2.292  1.00  0.00    -0.189 NA
HETATM   16  C   UNL     1      39.584 -15.233   1.291  1.00  0.00     0.260 C 
HETATM   17  O   UNL     1      38.535 -14.613   1.160  1.00  0.00    -0.270 OA
BRANCH  14  18
HETATM   18  N   UNL     1      41.483 -17.474   3.297  1.00  0.00    -0.360 N 
HETATM   19  C   UNL     1      42.531 -18.458   3.006  1.00  0.00     0.125 C 
HETATM   20  C   UNL     1      43.877 -17.920   3.497  1.00  0.00     0.020 C 
HETATM   21  C   UNL     1      43.819 -17.567   4.985  1.00  0.00     0.003 C 
HETATM   22  C   UNL     1      42.640 -16.641   5.289  1.00  0.00     0.020 C 
HETATM   23  C   UNL     1      41.336 -17.214   4.736  1.00  0.00     0.125 C 
ENDBRANCH  14  18
ENDBRANCH  11  12
ENDBRANCH   8  11
ENDBRANCH   4   7
BRANCH   1  24
HETATM   24  C   UNL     1      41.746 -10.255   7.284  1.00  0.00     0.256 C 
HETATM   25  N   UNL     1      41.797 -10.994   8.453  1.00  0.00    -0.323 N 
HETATM   26  H   UNL     1      41.584 -11.979   8.397  1.00  0.00     0.169 HD
HETATM   27  O   UNL     1      41.962  -9.054   7.171  1.00  0.00    -0.267 OA
BRANCH  25  28
HETATM   28  C   UNL     1      42.228 -10.554   9.724  1.00  0.00     0.035 A 
HETATM   29  C   UNL     1      43.367 -11.030  10.370  1.00  0.00     0.030 A 
HETATM   30  C   UNL     1      43.682 -10.604  11.669  1.00  0.00     0.010 A 
HETATM   31  C   UNL     1      42.879  -9.672  12.337  1.00  0.00    -0.054 A 
HETATM   32  C   UNL     1      41.745  -9.182  11.673  1.00  0.00     0.010 A 
HETATM   33  C   UNL     1      41.422  -9.622  10.385  1.00  0.00     0.030 A 
BRANCH  31  34
HETATM   34  C   UNL     1      43.148  -9.231  13.768  1.00  0.00     0.014 C 
HETATM   35  C   UNL     1      42.723  -7.765  13.928  1.00  0.00     0.015 C 
BRANCH  34  36
HETATM   36  C   UNL     1      42.490 -10.089  14.869  1.00  0.00     0.004 C 
HETATM   37  C   UNL     1      41.671  -9.273  15.861  1.00  0.00     0.006 C 
ENDBRANCH  34  36
ENDBRANCH  31  34
ENDBRANCH  25  28
ENDBRANCH   1  24
TORSDOF 8
ENDMDL
MODEL 5
REMARK VINA RESULT:      -8.4      3.875     11.105
REMARK  8 active torsions:
REMARK  status: ('A' for Active; 'I' for Inactive)
REMARK    1  A    between atoms: C_2  and  C_3 
REMARK    2  A    between atoms: C_3  and  C_4 
REMARK    3  A    between atoms: C_7  and  N_8 
REMARK       I    between atoms: N_8  and  C_9 
REMARK    4  A    between atoms: C_9  and  C_10 
REMARK    5  A    between atoms: C_13  and  N_14 
REMARK       I    between atoms: N_14  and  C_15 
REMARK    6  A    between atoms: C_15  and  C_16 
REMARK    7  A    between atoms: C_16  and  C_17 
REMARK    8  A    between atoms: C_19  and  N_20 
ROOT
HETATM    1  C   UNL     1      40.158 -11.690   6.435  1.00  0.00     0.032 A 
HETATM    2  C   UNL     1      39.214 -11.767   5.406  1.00  0.00     0.019 A 
HETATM    3  C   UNL     1      39.465 -12.554   4.273  1.00  0.00     0.030 A 
HETATM    4  C   UNL     1      40.661 -13.263   4.146  1.00  0.00     0.034 A 
HETATM    5  C   UNL     1      41.623 -13.146   5.155  1.00  0.00     0.030 A 
HETATM    6  C   UNL     1      41.375 -12.366   6.289  1.00  0.00     0.019 A 
ENDROOT
BRANCH   4   7
HETATM    7  N   UNL     1      40.973 -14.104   3.057  1.00  0.00    -0.327 N 
HETATM    8  C   UNL     1      42.063 -14.013   2.210  1.00  0.00     0.223 C 
HETATM    9  O   UNL     1      42.945 -13.163   2.251  1.00  0.00    -0.273 OA
HETATM   10  H   UNL     1      40.310 -14.848   2.877  1.00  0.00     0.169 HD
BRANCH   8  11
HETATM   11  C   UNL     1      42.058 -15.076   1.130  1.00  0.00     0.128 C 
BRANCH  11  12
HETATM   12  C   UNL     1      42.139 -16.462   1.753  1.00  0.00     0.158 C 
HETATM   13  S   UNL     1      43.383 -16.528   3.075  1.00  0.00    -0.077 SA
HETATM   14  C   UNL     1      42.250 -17.357   4.129  1.00  0.00     0.168 C 
HETATM   15  N   UNL     1      41.037 -17.433   3.686  1.00  0.00    -0.189 NA
HETATM   16  C   UNL     1      40.854 -16.840   2.460  1.00  0.00     0.260 C 
HETATM   17  O   UNL     1      39.749 -16.650   1.963  1.00  0.00    -0.270 OA
BRANCH  14  18
HETATM   18  N   UNL     1      42.688 -17.896   5.319  1.00  0.00    -0.360 N 
HETATM   19  C   UNL     1      43.471 -19.132   5.421  1.00  0.00     0.125 C 
HETATM   20  C   UNL     1      44.957 -18.781   5.504  1.00  0.00     0.020 C 
HETATM   21  C   UNL     1      45.234 -17.828   6.670  1.00  0.00     0.003 C 
HETATM   22  C   UNL     1      44.317 -16.606   6.615  1.00  0.00     0.020 C 
HETATM   23  C   UNL     1      42.853 -17.024   6.490  1.00  0.00     0.125 C 
ENDBRANCH  14  18
ENDBRANCH  11  12
ENDBRANCH   8  11
ENDBRANCH   4   7
BRANCH   1  24
HETATM   24  C   UNL     1      39.928 -10.936   7.707  1.00  0.00     0.256 C 
HETATM   25  N   UNL     1      40.911 -11.074   8.671  1.00  0.00    -0.323 N 
HETATM   26  H   UNL     1      41.677 -11.701   8.475  1.00  0.00     0.169 HD
HETATM   27  O   UNL     1      38.927 -10.232   7.783  1.00  0.00    -0.267 OA
BRANCH  25  28
HETATM   28  C   UNL     1      41.035 -10.347   9.875  1.00  0.00     0.035 A 
HETATM   29  C   UNL     1      41.403  -9.004   9.943  1.00  0.00     0.030 A 
HETATM   30  C   UNL     1      41.586  -8.376  11.183  1.00  0.00     0.010 A 
HETATM   31  C   UNL     1      41.379  -9.070  12.382  1.00  0.00    -0.054 A 
HETATM   32  C   UNL     1      40.990 -10.415  12.306  1.00  0.00     0.010 A 
HETATM   33  C   UNL     1      40.825 -11.045  11.069  1.00  0.00     0.030 A 
BRANCH  31  34
HETATM   34  C   UNL     1      41.629  -8.445  13.746  1.00  0.00     0.014 C 
HETATM   35  C   UNL     1      40.281  -8.076  14.381  1.00  0.00     0.015 C 
BRANCH  34  36
HETATM   36  C   UNL     1      42.454  -9.297  14.733  1.00  0.00     0.004 C 
HETATM   37  C   UNL     1      41.733  -9.565  16.048  1.00  0.00     0.006 C 
ENDBRANCH  34  36
ENDBRANCH  31  34
ENDBRANCH  25  28
ENDBRANCH   1  24
TORSDOF 8
ENDMDL
MODEL 6
REMARK VINA RESULT:      -8.2      4.149     11.822
REMARK  8 active torsions:
REMARK  status: ('A' for Active; 'I' for Inactive)
REMARK    1  A    between atoms: C_2  and  C_3 
REMARK    2  A    between atoms: C_3  and  C_4 
REMARK    3  A    between atoms: C_7  and  N_8 
REMARK       I    between atoms: N_8  and  C_9 
REMARK    4  A    between atoms: C_9  and  C_10 
REMARK    5  A    between atoms: C_13  and  N_14 
REMARK       I    between atoms: N_14  and  C_15 
REMARK    6  A    between atoms: C_15  and  C_16 
REMARK    7  A    between atoms: C_16  and  C_17 
REMARK    8  A    between atoms: C_19  and  N_20 
ROOT
HETATM    1  C   UNL     1      40.404 -12.067   6.531  1.00  0.00     0.032 A 
HETATM    2  C   UNL     1      41.519 -11.797   5.730  1.00  0.00     0.019 A 
HETATM    3  C   UNL     1      41.781 -12.577   4.595  1.00  0.00     0.030 A 
HETATM    4  C   UNL     1      40.945 -13.642   4.251  1.00  0.00     0.034 A 
HETATM    5  C   UNL     1      39.859 -13.940   5.081  1.00  0.00     0.030 A 
HETATM    6  C   UNL     1      39.591 -13.160   6.211  1.00  0.00     0.019 A 
ENDROOT
BRANCH   4   7
HETATM    7  N   UNL     1      41.119 -14.449   3.107  1.00  0.00    -0.327 N 
HETATM    8  C   UNL     1      42.297 -15.008   2.645  1.00  0.00     0.223 C 
HETATM    9  O   UNL     1      43.409 -14.878   3.146  1.00  0.00    -0.273 OA
HETATM   10  H   UNL     1      40.282 -14.623   2.565  1.00  0.00     0.169 HD
BRANCH   8  11
HETATM   11  C   UNL     1      42.110 -15.798   1.365  1.00  0.00     0.128 C 
BRANCH  11  12
HETATM   12  C   UNL     1      42.238 -17.289   1.641  1.00  0.00     0.158 C 
HETATM   13  S   UNL     1      43.974 -17.825   1.619  1.00  0.00    -0.077 SA
HETATM   14  C   UNL     1      43.739 -18.718   3.112  1.00  0.00     0.168 C 
HETATM   15  N   UNL     1      42.600 -18.528   3.697  1.00  0.00    -0.189 NA
HETATM   16  C   UNL     1      41.776 -17.647   3.038  1.00  0.00     0.260 C 
HETATM   17  O   UNL     1      40.742 -17.202   3.524  1.00  0.00    -0.270 OA
BRANCH  14  18
HETATM   18  N   UNL     1      44.721 -19.573   3.562  1.00  0.00    -0.360 N 
HETATM   19  C   UNL     1      45.088 -19.732   4.973  1.00  0.00     0.125 C 
HETATM   20  C   UNL     1      44.344 -20.936   5.553  1.00  0.00     0.020 C 
HETATM   21  C   UNL     1      44.627 -22.202   4.741  1.00  0.00     0.003 C 
HETATM   22  C   UNL     1      44.360 -21.975   3.252  1.00  0.00     0.020 C 
HETATM   23  C   UNL     1      45.095 -20.736   2.746  1.00  0.00     0.125 C 
ENDBRANCH  14  18
ENDBRANCH  11  12
ENDBRANCH   8  11
ENDBRANCH   4   7
BRANCH   1  24
HETATM   24  C   UNL     1      40.017 -11.231   7.709  1.00  0.00     0.256 C 
HETATM   25  N   UNL     1      40.921 -11.219   8.758  1.00  0.00    -0.323 N 
HETATM   26  H   UNL     1      41.740 -11.802   8.679  1.00  0.00     0.169 HD
HETATM   27  O   UNL     1      38.970 -10.598   7.644  1.00  0.00    -0.267 OA
BRANCH  25  28
HETATM   28  C   UNL     1      40.894 -10.389   9.900  1.00  0.00     0.035 A 
HETATM   29  C   UNL     1      41.661  -9.236  10.047  1.00  0.00     0.030 A 
HETATM   30  C   UNL     1      41.640  -8.511  11.247  1.00  0.00     0.010 A 
HETATM   31  C   UNL     1      40.829  -8.910  12.317  1.00  0.00    -0.054 A 
HETATM   32  C   UNL     1      40.044 -10.061  12.156  1.00  0.00     0.010 A 
HETATM   33  C   UNL     1      40.080 -10.793  10.964  1.00  0.00     0.030 A 
BRANCH  31  34
HETATM   34  C   UNL     1      40.825  -8.191  13.657  1.00  0.00     0.014 C 
HETATM   35  C   UNL     1      39.380  -7.821  14.021  1.00  0.00     0.015 C 
BRANCH  34  36
HETATM   36  C   UNL     1      41.479  -8.952  14.830  1.00  0.00     0.004 C 
HETATM   37  C   UNL     1      42.847  -9.527  14.488  1.00  0.00     0.006 C 
ENDBRANCH  34  36
ENDBRANCH  31  34
ENDBRANCH  25  28
ENDBRANCH   1  24
TORSDOF 8
ENDMDL
MODEL 7
REMARK VINA RESULT:      -7.8      9.075     12.614
REMARK  8 active torsions:
REMARK  status: ('A' for Active; 'I' for Inactive)
REMARK    1  A    between atoms: C_2  and  C_3 
REMARK    2  A    between atoms: C_3  and  C_4 
REMARK    3  A    between atoms: C_7  and  N_8 
REMARK       I    between atoms: N_8  and  C_9 
REMARK    4  A    between atoms: C_9  and  C_10 
REMARK    5  A    between atoms: C_13  and  N_14 
REMARK       I    between atoms: N_14  and  C_15 
REMARK    6  A    between atoms: C_15  and  C_16 
REMARK    7  A    between atoms: C_16  and  C_17 
REMARK    8  A    between atoms: C_19  and  N_20 
ROOT
HETATM    1  C   UNL     1      40.230 -14.598  -1.184  1.00  0.00     0.032 A 
HETATM    2  C   UNL     1      40.519 -14.891  -2.522  1.00  0.00     0.019 A 
HETATM    3  C   UNL     1      39.685 -14.417  -3.545  1.00  0.00     0.030 A 
HETATM    4  C   UNL     1      38.549 -13.660  -3.249  1.00  0.00     0.034 A 
HETATM    5  C   UNL     1      38.238 -13.410  -1.908  1.00  0.00     0.030 A 
HETATM    6  C   UNL     1      39.070 -13.876  -0.885  1.00  0.00     0.019 A 
ENDROOT
BRANCH   4   7
HETATM    7  N   UNL     1      37.682 -13.118  -4.221  1.00  0.00    -0.327 N 
HETATM    8  C   UNL     1      36.516 -13.678  -4.712  1.00  0.00     0.223 C 
HETATM    9  O   UNL     1      36.042 -14.763  -4.396  1.00  0.00    -0.273 OA
HETATM   10  H   UNL     1      37.962 -12.223  -4.604  1.00  0.00     0.169 HD
BRANCH   8  11
HETATM   11  C   UNL     1      35.855 -12.821  -5.773  1.00  0.00     0.128 C 
BRANCH  11  12
HETATM   12  C   UNL     1      35.479 -11.463  -5.197  1.00  0.00     0.158 C 
HETATM   13  S   UNL     1      34.772 -11.618  -3.530  1.00  0.00    -0.077 SA
HETATM   14  C   UNL     1      35.799 -10.318  -2.951  1.00  0.00     0.168 C 
HETATM   15  N   UNL     1      36.701  -9.911  -3.784  1.00  0.00    -0.189 NA
HETATM   16  C   UNL     1      36.694 -10.584  -4.983  1.00  0.00     0.260 C 
HETATM   17  O   UNL     1      37.579 -10.469  -5.823  1.00  0.00    -0.270 OA
BRANCH  14  18
HETATM   18  N   UNL     1      35.589  -9.785  -1.697  1.00  0.00    -0.360 N 
HETATM   19  C   UNL     1      34.297  -9.276  -1.227  1.00  0.00     0.125 C 
HETATM   20  C   UNL     1      33.582 -10.372  -0.434  1.00  0.00     0.020 C 
HETATM   21  C   UNL     1      34.455 -10.874   0.719  1.00  0.00     0.003 C 
HETATM   22  C   UNL     1      35.844 -11.281   0.226  1.00  0.00     0.020 C 
HETATM   23  C   UNL     1      36.484 -10.162  -0.594  1.00  0.00     0.125 C 
ENDBRANCH  14  18
ENDBRANCH  11  12
ENDBRANCH   8  11
ENDBRANCH   4   7
BRANCH   1  24
HETATM   24  C   UNL     1      41.115 -15.000  -0.046  1.00  0.00     0.256 C 
HETATM   25  N   UNL     1      40.986 -16.311   0.378  1.00  0.00    -0.323 N 
HETATM   26  H   UNL     1      40.283 -16.883  -0.067  1.00  0.00     0.169 HD
HETATM   27  O   UNL     1      41.902 -14.168   0.390  1.00  0.00    -0.267 OA
BRANCH  25  28
HETATM   28  C   UNL     1      41.808 -16.997   1.299  1.00  0.00     0.035 A 
HETATM   29  C   UNL     1      43.059 -17.526   0.987  1.00  0.00     0.030 A 
HETATM   30  C   UNL     1      43.778 -18.267   1.936  1.00  0.00     0.010 A 
HETATM   31  C   UNL     1      43.273 -18.470   3.227  1.00  0.00    -0.054 A 
HETATM   32  C   UNL     1      42.023 -17.918   3.540  1.00  0.00     0.010 A 
HETATM   33  C   UNL     1      41.299 -17.195   2.587  1.00  0.00     0.030 A 
BRANCH  31  34
HETATM   34  C   UNL     1      43.990 -19.320   4.265  1.00  0.00     0.014 C 
HETATM   35  C   UNL     1      44.782 -20.422   3.547  1.00  0.00     0.015 C 
BRANCH  34  36
HETATM   36  C   UNL     1      44.917 -18.556   5.233  1.00  0.00     0.004 C 
HETATM   37  C   UNL     1      44.167 -17.841   6.349  1.00  0.00     0.006 C 
ENDBRANCH  34  36
ENDBRANCH  31  34
ENDBRANCH  25  28
ENDBRANCH   1  24
TORSDOF 8
ENDMDL
MODEL 8
REMARK VINA RESULT:      -7.7      4.801     11.642
REMARK  8 active torsions:
REMARK  status: ('A' for Active; 'I' for Inactive)
REMARK    1  A    between atoms: C_2  and  C_3 
REMARK    2  A    between atoms: C_3  and  C_4 
REMARK    3  A    between atoms: C_7  and  N_8 
REMARK       I    between atoms: N_8  and  C_9 
REMARK    4  A    between atoms: C_9  and  C_10 
REMARK    5  A    between atoms: C_13  and  N_14 
REMARK       I    between atoms: N_14  and  C_15 
REMARK    6  A    between atoms: C_15  and  C_16 
REMARK    7  A    between atoms: C_16  and  C_17 
REMARK    8  A    between atoms: C_19  and  N_20 
ROOT
HETATM    1  C   UNL     1      39.778 -11.290   6.597  1.00  0.00     0.032 A 
HETATM    2  C   UNL     1      40.009 -12.631   6.270  1.00  0.00     0.019 A 
HETATM    3  C   UNL     1      39.965 -13.052   4.933  1.00  0.00     0.030 A 
HETATM    4  C   UNL     1      39.679 -12.147   3.909  1.00  0.00     0.034 A 
HETATM    5  C   UNL     1      39.401 -10.817   4.243  1.00  0.00     0.030 A 
HETATM    6  C   UNL     1      39.449 -10.393   5.575  1.00  0.00     0.019 A 
ENDROOT
BRANCH   4   7
HETATM    7  N   UNL     1      39.652 -12.483   2.539  1.00  0.00    -0.327 N 
HETATM    8  C   UNL     1      40.432 -11.951   1.528  1.00  0.00     0.223 C 
HETATM    9  O   UNL     1      41.278 -11.072   1.650  1.00  0.00    -0.273 OA
HETATM   10  H   UNL     1      38.972 -13.186   2.275  1.00  0.00     0.169 HD
BRANCH   8  11
HETATM   11  C   UNL     1      40.109 -12.535   0.167  1.00  0.00     0.128 C 
BRANCH  11  12
HETATM   12  C   UNL     1      41.170 -13.546  -0.240  1.00  0.00     0.158 C 
HETATM   13  S   UNL     1      41.738 -14.526   1.181  1.00  0.00    -0.077 SA
HETATM   14  C   UNL     1      41.585 -16.005   0.249  1.00  0.00     0.168 C 
HETATM   15  N   UNL     1      41.014 -15.876  -0.905  1.00  0.00    -0.189 NA
HETATM   16  C   UNL     1      40.622 -14.590  -1.190  1.00  0.00     0.260 C 
HETATM   17  O   UNL     1      39.908 -14.301  -2.145  1.00  0.00    -0.270 OA
BRANCH  14  18
HETATM   18  N   UNL     1      42.088 -17.186   0.749  1.00  0.00    -0.360 N 
HETATM   19  C   UNL     1      43.495 -17.586   0.654  1.00  0.00     0.125 C 
HETATM   20  C   UNL     1      44.216 -17.206   1.948  1.00  0.00     0.020 C 
HETATM   21  C   UNL     1      43.525 -17.825   3.166  1.00  0.00     0.003 C 
HETATM   22  C   UNL     1      42.030 -17.502   3.178  1.00  0.00     0.020 C 
HETATM   23  C   UNL     1      41.380 -17.865   1.844  1.00  0.00     0.125 C 
ENDBRANCH  14  18
ENDBRANCH  11  12
ENDBRANCH   8  11
ENDBRANCH   4   7
BRANCH   1  24
HETATM   24  C   UNL     1      39.886 -10.753   7.989  1.00  0.00     0.256 C 
HETATM   25  N   UNL     1      40.912 -11.278   8.756  1.00  0.00    -0.323 N 
HETATM   26  H   UNL     1      41.476 -12.010   8.349  1.00  0.00     0.169 HD
HETATM   27  O   UNL     1      39.102  -9.874   8.327  1.00  0.00    -0.267 OA
BRANCH  25  28
HETATM   28  C   UNL     1      41.348 -10.832  10.022  1.00  0.00     0.035 A 
HETATM   29  C   UNL     1      40.593 -10.934  11.189  1.00  0.00     0.030 A 
HETATM   30  C   UNL     1      41.063 -10.390  12.394  1.00  0.00     0.010 A 
HETATM   31  C   UNL     1      42.310  -9.757  12.462  1.00  0.00    -0.054 A 
HETATM   32  C   UNL     1      43.073  -9.675  11.289  1.00  0.00     0.010 A 
HETATM   33  C   UNL     1      42.595 -10.202  10.084  1.00  0.00     0.030 A 
BRANCH  31  34
HETATM   34  C   UNL     1      42.828  -9.098  13.731  1.00  0.00     0.014 C 
HETATM   35  C   UNL     1      42.394  -7.626  13.743  1.00  0.00     0.015 C 
BRANCH  34  36
HETATM   36  C   UNL     1      42.415  -9.775  15.056  1.00  0.00     0.004 C 
HETATM   37  C   UNL     1      41.810  -8.807  16.064  1.00  0.00     0.006 C 
ENDBRANCH  34  36
ENDBRANCH  31  34
ENDBRANCH  25  28
ENDBRANCH   1  24
TORSDOF 8
ENDMDL
MODEL 9
REMARK VINA RESULT:      -7.7      7.281     11.917
REMARK  8 active torsions:
REMARK  status: ('A' for Active; 'I' for Inactive)
REMARK    1  A    between atoms: C_2  and  C_3 
REMARK    2  A    between atoms: C_3  and  C_4 
REMARK    3  A    between atoms: C_7  and  N_8 
REMARK       I    between atoms: N_8  and  C_9 
REMARK    4  A    between atoms: C_9  and  C_10 
REMARK    5  A    between atoms: C_13  and  N_14 
REMARK       I    between atoms: N_14  and  C_15 
REMARK    6  A    between atoms: C_15  and  C_16 
REMARK    7  A    between atoms: C_16  and  C_17 
REMARK    8  A    between atoms: C_19  and  N_20 
ROOT
HETATM    1  C   UNL     1      41.760 -13.182   0.355  1.00  0.00     0.032 A 
HETATM    2  C   UNL     1      41.744 -14.580   0.382  1.00  0.00     0.019 A 
HETATM    3  C   UNL     1      42.024 -15.268   1.572  1.00  0.00     0.030 A 
HETATM    4  C   UNL     1      42.335 -14.574   2.743  1.00  0.00     0.034 A 
HETATM    5  C   UNL     1      42.397 -13.177   2.700  1.00  0.00     0.030 A 
HETATM    6  C   UNL     1      42.113 -12.486   1.517  1.00  0.00     0.019 A 
ENDROOT
BRANCH   4   7
HETATM    7  N   UNL     1      42.592 -15.190   3.986  1.00  0.00    -0.327 N 
HETATM    8  C   UNL     1      41.665 -15.687   4.884  1.00  0.00     0.223 C 
HETATM    9  O   UNL     1      40.445 -15.659   4.760  1.00  0.00    -0.273 OA
HETATM   10  H   UNL     1      43.568 -15.260   4.244  1.00  0.00     0.169 HD
BRANCH   8  11
HETATM   11  C   UNL     1      42.305 -16.257   6.134  1.00  0.00     0.128 C 
BRANCH  11  12
HETATM   12  C   UNL     1      42.469 -17.764   6.003  1.00  0.00     0.158 C 
HETATM   13  S   UNL     1      43.124 -18.224   4.372  1.00  0.00    -0.077 SA
HETATM   14  C   UNL     1      44.293 -19.299   5.121  1.00  0.00     0.168 C 
HETATM   15  N   UNL     1      44.364 -19.226   6.411  1.00  0.00    -0.189 NA
HETATM   16  C   UNL     1      43.507 -18.305   6.964  1.00  0.00     0.260 C 
HETATM   17  O   UNL     1      43.556 -17.964   8.141  1.00  0.00    -0.270 OA
BRANCH  14  18
HETATM   18  N   UNL     1      45.030 -20.162   4.340  1.00  0.00    -0.360 N 
HETATM   19  C   UNL     1      45.426 -21.511   4.756  1.00  0.00     0.125 C 
HETATM   20  C   UNL     1      44.420 -22.524   4.207  1.00  0.00     0.020 C 
HETATM   21  C   UNL     1      44.294 -22.406   2.686  1.00  0.00     0.003 C 
HETATM   22  C   UNL     1      44.007 -20.964   2.264  1.00  0.00     0.020 C 
HETATM   23  C   UNL     1      45.020 -20.001   2.879  1.00  0.00     0.125 C 
ENDBRANCH  14  18
ENDBRANCH  11  12
ENDBRANCH   8  11
ENDBRANCH   4   7
BRANCH   1  24
HETATM   24  C   UNL     1      41.395 -12.379  -0.853  1.00  0.00     0.256 C 
HETATM   25  N   UNL     1      42.400 -11.576  -1.365  1.00  0.00    -0.323 N 
HETATM   26  H   UNL     1      43.278 -11.549  -0.868  1.00  0.00     0.169 HD
HETATM   27  O   UNL     1      40.270 -12.521  -1.318  1.00  0.00    -0.267 OA
BRANCH  25  28
HETATM   28  C   UNL     1      42.387 -10.860  -2.582  1.00  0.00     0.035 A 
HETATM   29  C   UNL     1      42.293  -9.473  -2.672  1.00  0.00     0.030 A 
HETATM   30  C   UNL     1      42.201  -8.843  -3.922  1.00  0.00     0.010 A 
HETATM   31  C   UNL     1      42.229  -9.586  -5.108  1.00  0.00    -0.054 A 
HETATM   32  C   UNL     1      42.344 -10.980  -5.011  1.00  0.00     0.010 A 
HETATM   33  C   UNL     1      42.417 -11.608  -3.764  1.00  0.00     0.030 A 
BRANCH  31  34
HETATM   34  C   UNL     1      42.068  -8.949  -6.480  1.00  0.00     0.014 C 
HETATM   35  C   UNL     1      43.398  -8.300  -6.889  1.00  0.00     0.015 C 
BRANCH  34  36
HETATM   36  C   UNL     1      41.579  -9.888  -7.603  1.00  0.00     0.004 C 
HETATM   37  C   UNL     1      40.064  -9.908  -7.756  1.00  0.00     0.006 C 
ENDBRANCH  34  36
ENDBRANCH  31  34
ENDBRANCH  25  28
ENDBRANCH   1  24
TORSDOF 8
ENDMDL
MODEL 10
REMARK VINA RESULT:      -7.6     10.713     13.555
REMARK  8 active torsions:
REMARK  status: ('A' for Active; 'I' for Inactive)
REMARK    1  A    between atoms: C_2  and  C_3 
REMARK    2  A    between atoms: C_3  and  C_4 
REMARK    3  A    between atoms: C_7  and  N_8 
REMARK       I    between atoms: N_8  and  C_9 
REMARK    4  A    between atoms: C_9  and  C_10 
REMARK    5  A    between atoms: C_13  and  N_14 
REMARK       I    between atoms: N_14  and  C_15 
REMARK    6  A    between atoms: C_15  and  C_16 
REMARK    7  A    between atoms: C_16  and  C_17 
REMARK    8  A    between atoms: C_19  and  N_20 
ROOT
HETATM    1  C   UNL     1      39.919 -14.702   0.836  1.00  0.00     0.032 A 
HETATM    2  C   UNL     1      38.574 -14.345   0.981  1.00  0.00     0.019 A 
HETATM    3  C   UNL     1      37.832 -13.916  -0.130  1.00  0.00     0.030 A 
HETATM    4  C   UNL     1      38.422 -13.825  -1.391  1.00  0.00     0.034 A 
HETATM    5  C   UNL     1      39.780 -14.136  -1.523  1.00  0.00     0.030 A 
HETATM    6  C   UNL     1      40.522 -14.569  -0.420  1.00  0.00     0.019 A 
ENDROOT
BRANCH   4   7
HETATM    7  N   UNL     1      37.736 -13.438  -2.562  1.00  0.00    -0.327 N 
HETATM    8  C   UNL     1      37.441 -12.152  -2.976  1.00  0.00     0.223 C 
HETATM    9  O   UNL     1      37.713 -11.116  -2.379  1.00  0.00    -0.273 OA
HETATM   10  H   UNL     1      37.417 -14.197  -3.152  1.00  0.00     0.169 HD
BRANCH   8  11
HETATM   11  C   UNL     1      36.664 -12.117  -4.277  1.00  0.00     0.128 C 
BRANCH  11  12
HETATM   12  C   UNL     1      35.179 -11.932  -4.000  1.00  0.00     0.158 C 
HETATM   13  S   UNL     1      34.609 -10.280  -4.497  1.00  0.00    -0.077 SA
HETATM   14  C   UNL     1      33.217 -10.980  -5.304  1.00  0.00     0.168 C 
HETATM   15  N   UNL     1      33.219 -12.271  -5.392  1.00  0.00    -0.189 NA
HETATM   16  C   UNL     1      34.328 -12.865  -4.836  1.00  0.00     0.260 C 
HETATM   17  O   UNL     1      34.598 -14.052  -4.980  1.00  0.00    -0.270 OA
BRANCH  14  18
HETATM   18  N   UNL     1      32.207 -10.163  -5.763  1.00  0.00    -0.360 N 
HETATM   19  C   UNL     1      32.429  -8.942  -6.543  1.00  0.00     0.125 C 
HETATM   20  C   UNL     1      32.291  -9.262  -8.032  1.00  0.00     0.020 C 
HETATM   21  C   UNL     1      30.931  -9.897  -8.335  1.00  0.00     0.003 C 
HETATM   22  C   UNL     1      30.663 -11.094  -7.422  1.00  0.00     0.020 C 
HETATM   23  C   UNL     1      30.859 -10.719  -5.954  1.00  0.00     0.125 C 
ENDBRANCH  14  18
ENDBRANCH  11  12
ENDBRANCH   8  11
ENDBRANCH   4   7
BRANCH   1  24
HETATM   24  C   UNL     1      40.751 -15.243   1.955  1.00  0.00     0.256 C 
HETATM   25  N   UNL     1      40.754 -16.621   2.088  1.00  0.00    -0.323 N 
HETATM   26  H   UNL     1      40.167 -17.154   1.463  1.00  0.00     0.169 HD
HETATM   27  O   UNL     1      41.389 -14.445   2.633  1.00  0.00    -0.267 OA
BRANCH  25  28
HETATM   28  C   UNL     1      41.578 -17.396   2.932  1.00  0.00     0.035 A 
HETATM   29  C   UNL     1      41.437 -17.462   4.317  1.00  0.00     0.030 A 
HETATM   30  C   UNL     1      42.349 -18.191   5.094  1.00  0.00     0.010 A 
HETATM   31  C   UNL     1      43.405 -18.892   4.499  1.00  0.00    -0.054 A 
HETATM   32  C   UNL     1      43.530 -18.838   3.104  1.00  0.00     0.010 A 
HETATM   33  C   UNL     1      42.630 -18.096   2.331  1.00  0.00     0.030 A 
BRANCH  31  34
HETATM   34  C   UNL     1      44.453 -19.641   5.309  1.00  0.00     0.014 C 
HETATM   35  C   UNL     1      43.796 -20.202   6.578  1.00  0.00     0.015 C 
BRANCH  34  36
HETATM   36  C   UNL     1      45.197 -20.769   4.564  1.00  0.00     0.004 C 
HETATM   37  C   UNL     1      44.830 -22.163   5.058  1.00  0.00     0.006 C 
ENDBRANCH  34  36
ENDBRANCH  31  34
ENDBRANCH  25  28
ENDBRANCH   1  24
TORSDOF 8
ENDMDL
