MODEL 1
REMARK VINA RESULT:      -7.2      0.000      0.000
REMARK  5 active torsions:
REMARK  status: ('A' for Active; 'I' for Inactive)
REMARK    1  A    between atoms: C_8  and  C_9 
REMARK    2  A    between atoms: C_11  and  O_12 
REMARK    3  A    between atoms: C_14  and  O_15 
REMARK    4  A    between atoms: C_18  and  C_19 
REMARK    5  A    between atoms: C_22  and  O_23 
ROOT
HETATM    1  C   UNL     1      44.000 -18.046   1.106  1.00  0.00     0.070 C 
HETATM    2  C   UNL     1      43.953 -18.512   2.511  1.00  0.00     0.033 A 
HETATM    3  N   UNL     1      44.281 -19.800   2.845  1.00  0.00    -0.282 N 
HETATM    4  H   UNL     1      44.556 -20.555   2.227  1.00  0.00     0.189 HD
HETATM    5  N   UNL     1      44.262 -20.042   4.163  1.00  0.00    -0.179 NA
HETATM    6  C   UNL     1      43.894 -18.872   4.690  1.00  0.00     0.066 A 
HETATM    7  C   UNL     1      43.627 -17.889   3.703  1.00  0.00     0.001 A 
HETATM    8  C   UNL     1      43.237 -16.486   4.064  1.00  0.00     0.070 C 
HETATM    9  C   UNL     1      42.781 -16.345   5.545  1.00  0.00     0.102 C 
HETATM   10  C   UNL     1      43.691 -17.147   6.520  1.00  0.00     0.071 C 
HETATM   11  C   UNL     1      43.251 -16.999   7.986  1.00  0.00     0.047 C 
HETATM   12  C   UNL     1      43.801 -18.655   6.162  1.00  0.00     0.100 C 
ENDROOT
BRANCH   8  13
HETATM   13  C   UNL     1      42.230 -15.934   3.064  1.00  0.00    -0.046 A 
HETATM   14  C   UNL     1      42.378 -14.690   2.421  1.00  0.00     0.047 A 
HETATM   15  C   UNL     1      41.431 -14.253   1.493  1.00  0.00     0.101 A 
HETATM   16  C   UNL     1      40.377 -15.093   1.137  1.00  0.00     0.099 A 
HETATM   17  C   UNL     1      40.216 -16.331   1.739  1.00  0.00     0.040 A 
HETATM   18  C   UNL     1      41.134 -16.745   2.706  1.00  0.00     0.011 A 
BRANCH  15  19
HETATM   19  O   UNL     1      41.491 -13.042   0.853  1.00  0.00    -0.353 OA
HETATM   20  C   UNL     1      41.412 -11.939   1.758  1.00  0.00     0.210 C 
ENDBRANCH  15  19
BRANCH  16  21
HETATM   21  O   UNL     1      39.473 -14.703   0.190  1.00  0.00    -0.358 OA
HETATM   22  H   UNL     1      38.927 -15.495   0.018  1.00  0.00     0.218 HD
ENDBRANCH  16  21
ENDBRANCH   8  13
BRANCH   9  23
HETATM   23  C   UNL     1      41.308 -16.698   5.752  1.00  0.00     0.131 C 
HETATM   24  C   UNL     1      40.383 -15.565   6.125  1.00  0.00     0.091 C 
HETATM   25  O   UNL     1      40.884 -17.849   5.666  1.00  0.00    -0.298 OA
ENDBRANCH   9  23
BRANCH  10  26
HETATM   26  O   UNL     1      45.014 -16.569   6.440  1.00  0.00    -0.389 OA
HETATM   27  H   UNL     1      45.597 -17.014   7.079  1.00  0.00     0.210 HD
ENDBRANCH  10  26
TORSDOF 5
ENDMDL
MODEL 2
REMARK VINA RESULT:      -7.0      2.904      5.581
REMARK  5 active torsions:
REMARK  status: ('A' for Active; 'I' for Inactive)
REMARK    1  A    between atoms: C_8  and  C_9 
REMARK    2  A    between atoms: C_11  and  O_12 
REMARK    3  A    between atoms: C_14  and  O_15 
REMARK    4  A    between atoms: C_18  and  C_19 
REMARK    5  A    between atoms: C_22  and  O_23 
ROOT
HETATM    1  C   UNL     1      40.690 -18.022   1.412  1.00  0.00     0.070 C 
HETATM    2  C   UNL     1      40.607 -16.592   1.788  1.00  0.00     0.033 A 
HETATM    3  N   UNL     1      40.217 -15.639   0.884  1.00  0.00    -0.282 N 
HETATM    4  H   UNL     1      39.973 -15.767  -0.092  1.00  0.00     0.189 HD
HETATM    5  N   UNL     1      40.120 -14.406   1.400  1.00  0.00    -0.179 NA
HETATM    6  C   UNL     1      40.477 -14.573   2.676  1.00  0.00     0.066 A 
HETATM    7  C   UNL     1      40.852 -15.910   2.967  1.00  0.00     0.001 A 
HETATM    8  C   UNL     1      41.251 -16.339   4.348  1.00  0.00     0.070 C 
HETATM    9  C   UNL     1      41.587 -15.142   5.284  1.00  0.00     0.102 C 
HETATM   10  C   UNL     1      40.577 -13.969   5.124  1.00  0.00     0.071 C 
HETATM   11  C   UNL     1      40.899 -12.789   6.056  1.00  0.00     0.047 C 
HETATM   12  C   UNL     1      40.455 -13.455   3.662  1.00  0.00     0.100 C 
ENDROOT
BRANCH   8  13
HETATM   13  C   UNL     1      42.352 -17.389   4.287  1.00  0.00    -0.046 A 
HETATM   14  C   UNL     1      42.583 -18.332   5.308  1.00  0.00     0.047 A 
HETATM   15  C   UNL     1      43.592 -19.287   5.178  1.00  0.00     0.101 A 
HETATM   16  C   UNL     1      44.322 -19.361   3.992  1.00  0.00     0.099 A 
HETATM   17  C   UNL     1      44.104 -18.459   2.963  1.00  0.00     0.040 A 
HETATM   18  C   UNL     1      43.130 -17.471   3.114  1.00  0.00     0.011 A 
BRANCH  15  19
HETATM   19  O   UNL     1      43.897 -20.212   6.143  1.00  0.00    -0.353 OA
HETATM   20  C   UNL     1      43.741 -19.698   7.466  1.00  0.00     0.210 C 
ENDBRANCH  15  19
BRANCH  16  21
HETATM   21  O   UNL     1      45.276 -20.325   3.828  1.00  0.00    -0.358 OA
HETATM   22  H   UNL     1      46.120 -19.888   4.055  1.00  0.00     0.218 HD
ENDBRANCH  16  21
ENDBRANCH   8  13
BRANCH   9  23
HETATM   23  C   UNL     1      43.027 -14.652   5.132  1.00  0.00     0.131 C 
HETATM   24  C   UNL     1      43.939 -14.842   6.320  1.00  0.00     0.091 C 
HETATM   25  O   UNL     1      43.432 -14.090   4.116  1.00  0.00    -0.298 OA
ENDBRANCH   9  23
BRANCH  10  26
HETATM   26  O   UNL     1      39.282 -14.462   5.537  1.00  0.00    -0.389 OA
HETATM   27  H   UNL     1      38.676 -13.711   5.652  1.00  0.00     0.210 HD
ENDBRANCH  10  26
TORSDOF 5
ENDMDL
MODEL 3
REMARK VINA RESULT:      -7.0      2.052      5.365
REMARK  5 active torsions:
REMARK  status: ('A' for Active; 'I' for Inactive)
REMARK    1  A    between atoms: C_8  and  C_9 
REMARK    2  A    between atoms: C_11  and  O_12 
REMARK    3  A    between atoms: C_14  and  O_15 
REMARK    4  A    between atoms: C_18  and  C_19 
REMARK    5  A    between atoms: C_22  and  O_23 
ROOT
HETATM    1  C   UNL     1      43.344 -18.703   2.935  1.00  0.00     0.070 C 
HETATM    2  C   UNL     1      42.798 -17.571   2.151  1.00  0.00     0.033 A 
HETATM    3  N   UNL     1      43.206 -17.335   0.864  1.00  0.00    -0.282 N 
HETATM    4  H   UNL     1      43.896 -17.843   0.324  1.00  0.00     0.189 HD
HETATM    5  N   UNL     1      42.561 -16.322   0.268  1.00  0.00    -0.179 NA
HETATM    6  C   UNL     1      41.724 -15.885   1.211  1.00  0.00     0.066 A 
HETATM    7  C   UNL     1      41.866 -16.589   2.435  1.00  0.00     0.001 A 
HETATM    8  C   UNL     1      41.000 -16.296   3.624  1.00  0.00     0.070 C 
HETATM    9  C   UNL     1      40.250 -14.937   3.510  1.00  0.00     0.102 C 
HETATM   10  C   UNL     1      39.674 -14.700   2.084  1.00  0.00     0.071 C 
HETATM   11  C   UNL     1      38.923 -13.364   1.972  1.00  0.00     0.047 C 
HETATM   12  C   UNL     1      40.747 -14.786   0.963  1.00  0.00     0.100 C 
ENDROOT
BRANCH   8  13
HETATM   13  C   UNL     1      41.792 -16.446   4.916  1.00  0.00    -0.046 A 
HETATM   14  C   UNL     1      43.007 -15.776   5.163  1.00  0.00     0.047 A 
HETATM   15  C   UNL     1      43.671 -15.936   6.380  1.00  0.00     0.101 A 
HETATM   16  C   UNL     1      43.084 -16.696   7.391  1.00  0.00     0.099 A 
HETATM   17  C   UNL     1      41.880 -17.351   7.183  1.00  0.00     0.040 A 
HETATM   18  C   UNL     1      41.242 -17.234   5.947  1.00  0.00     0.011 A 
BRANCH  15  19
HETATM   19  O   UNL     1      44.871 -15.344   6.678  1.00  0.00    -0.353 OA
HETATM   20  C   UNL     1      44.781 -13.919   6.738  1.00  0.00     0.210 C 
ENDBRANCH  15  19
BRANCH  16  21
HETATM   21  O   UNL     1      43.694 -16.817   8.606  1.00  0.00    -0.358 OA
HETATM   22  H   UNL     1      43.810 -15.901   8.925  1.00  0.00     0.218 HD
ENDBRANCH  16  21
ENDBRANCH   8  13
BRANCH   9  23
HETATM   23  C   UNL     1      41.098 -13.749   3.965  1.00  0.00     0.131 C 
HETATM   24  C   UNL     1      40.670 -13.055   5.236  1.00  0.00     0.091 C 
HETATM   25  O   UNL     1      42.060 -13.336   3.320  1.00  0.00    -0.298 OA
ENDBRANCH   9  23
BRANCH  10  26
HETATM   26  O   UNL     1      38.691 -15.733   1.845  1.00  0.00    -0.389 OA
HETATM   27  H   UNL     1      39.128 -16.503   1.443  1.00  0.00     0.210 HD
ENDBRANCH  10  26
TORSDOF 5
ENDMDL
MODEL 4
REMARK VINA RESULT:      -6.9      3.315      5.354
REMARK  5 active torsions:
REMARK  status: ('A' for Active; 'I' for Inactive)
REMARK    1  A    between atoms: C_8  and  C_9 
REMARK    2  A    between atoms: C_11  and  O_12 
REMARK    3  A    between atoms: C_14  and  O_15 
REMARK    4  A    between atoms: C_18  and  C_19 
REMARK    5  A    between atoms: C_22  and  O_23 
ROOT
HETATM    1  C   UNL     1      39.852 -16.722   2.107  1.00  0.00     0.070 C 
HETATM    2  C   UNL     1      40.056 -15.321   2.541  1.00  0.00     0.033 A 
HETATM    3  N   UNL     1      39.649 -14.268   1.764  1.00  0.00    -0.282 N 
HETATM    4  H   UNL     1      39.210 -14.299   0.851  1.00  0.00     0.189 HD
HETATM    5  N   UNL     1      39.836 -13.068   2.332  1.00  0.00    -0.179 NA
HETATM    6  C   UNL     1      40.396 -13.363   3.507  1.00  0.00     0.066 A 
HETATM    7  C   UNL     1      40.616 -14.755   3.673  1.00  0.00     0.001 A 
HETATM    8  C   UNL     1      41.198 -15.322   4.934  1.00  0.00     0.070 C 
HETATM    9  C   UNL     1      41.879 -14.244   5.827  1.00  0.00     0.102 C 
HETATM   10  C   UNL     1      41.043 -12.934   5.908  1.00  0.00     0.071 C 
HETATM   11  C   UNL     1      41.706 -11.872   6.800  1.00  0.00     0.047 C 
HETATM   12  C   UNL     1      40.727 -12.317   4.517  1.00  0.00     0.100 C 
ENDROOT
BRANCH   8  13
HETATM   13  C   UNL     1      42.100 -16.509   4.623  1.00  0.00    -0.046 A 
HETATM   14  C   UNL     1      42.853 -16.622   3.437  1.00  0.00     0.047 A 
HETATM   15  C   UNL     1      43.682 -17.724   3.225  1.00  0.00     0.101 A 
HETATM   16  C   UNL     1      43.830 -18.679   4.231  1.00  0.00     0.099 A 
HETATM   17  C   UNL     1      43.116 -18.585   5.415  1.00  0.00     0.040 A 
HETATM   18  C   UNL     1      42.247 -17.509   5.605  1.00  0.00     0.011 A 
BRANCH  15  19
HETATM   19  O   UNL     1      44.418 -17.918   2.084  1.00  0.00    -0.353 OA
HETATM   20  C   UNL     1      43.669 -17.652   0.897  1.00  0.00     0.210 C 
ENDBRANCH  15  19
BRANCH  16  21
HETATM   21  O   UNL     1      44.679 -19.735   4.060  1.00  0.00    -0.358 OA
HETATM   22  H   UNL     1      44.643 -20.228   4.902  1.00  0.00     0.218 HD
ENDBRANCH  16  21
ENDBRANCH   8  13
BRANCH   9  23
HETATM   23  C   UNL     1      43.321 -13.952   5.415  1.00  0.00     0.131 C 
HETATM   24  C   UNL     1      44.401 -14.349   6.392  1.00  0.00     0.091 C 
HETATM   25  O   UNL     1      43.607 -13.384   4.363  1.00  0.00    -0.298 OA
ENDBRANCH   9  23
BRANCH  10  26
HETATM   26  O   UNL     1      39.790 -13.267   6.548  1.00  0.00    -0.389 OA
HETATM   27  H   UNL     1      39.796 -14.208   6.792  1.00  0.00     0.210 HD
ENDBRANCH  10  26
TORSDOF 5
ENDMDL
MODEL 5
REMARK VINA RESULT:      -6.8      3.059      5.974
REMARK  5 active torsions:
REMARK  status: ('A' for Active; 'I' for Inactive)
REMARK    1  A    between atoms: C_8  and  C_9 
REMARK    2  A    between atoms: C_11  and  O_12 
REMARK    3  A    between atoms: C_14  and  O_15 
REMARK    4  A    between atoms: C_18  and  C_19 
REMARK    5  A    between atoms: C_22  and  O_23 
ROOT
HETATM    1  C   UNL     1      44.582 -14.753   6.888  1.00  0.00     0.070 C 
HETATM    2  C   UNL     1      43.521 -13.954   6.233  1.00  0.00     0.033 A 
HETATM    3  N   UNL     1      42.973 -12.859   6.848  1.00  0.00    -0.282 N 
HETATM    4  H   UNL     1      43.182 -12.489   7.768  1.00  0.00     0.189 HD
HETATM    5  N   UNL     1      42.082 -12.200   6.093  1.00  0.00    -0.179 NA
HETATM    6  C   UNL     1      42.049 -12.908   4.961  1.00  0.00     0.066 A 
HETATM    7  C   UNL     1      42.883 -14.054   5.009  1.00  0.00     0.001 A 
HETATM    8  C   UNL     1      43.034 -14.975   3.834  1.00  0.00     0.070 C 
HETATM    9  C   UNL     1      41.924 -14.779   2.762  1.00  0.00     0.102 C 
HETATM   10  C   UNL     1      41.614 -13.277   2.503  1.00  0.00     0.071 C 
HETATM   11  C   UNL     1      40.526 -13.080   1.435  1.00  0.00     0.047 C 
HETATM   12  C   UNL     1      41.223 -12.497   3.789  1.00  0.00     0.100 C 
ENDROOT
BRANCH   8  13
HETATM   13  C   UNL     1      43.182 -16.417   4.299  1.00  0.00    -0.046 A 
HETATM   14  C   UNL     1      43.872 -17.402   3.564  1.00  0.00     0.047 A 
HETATM   15  C   UNL     1      43.995 -18.701   4.060  1.00  0.00     0.101 A 
HETATM   16  C   UNL     1      43.505 -19.004   5.330  1.00  0.00     0.099 A 
HETATM   17  C   UNL     1      42.839 -18.051   6.083  1.00  0.00     0.040 A 
HETATM   18  C   UNL     1      42.669 -16.765   5.565  1.00  0.00     0.011 A 
BRANCH  15  19
HETATM   19  O   UNL     1      44.622 -19.718   3.387  1.00  0.00    -0.353 OA
HETATM   20  C   UNL     1      43.855 -20.200   2.282  1.00  0.00     0.210 C 
ENDBRANCH  15  19
BRANCH  16  21
HETATM   21  O   UNL     1      43.666 -20.256   5.851  1.00  0.00    -0.358 OA
HETATM   22  H   UNL     1      43.277 -20.859   5.188  1.00  0.00     0.218 HD
ENDBRANCH  16  21
ENDBRANCH   8  13
BRANCH   9  23
HETATM   23  C   UNL     1      40.647 -15.558   3.077  1.00  0.00     0.131 C 
HETATM   24  C   UNL     1      40.295 -16.693   2.145  1.00  0.00     0.091 C 
HETATM   25  O   UNL     1      39.906 -15.265   4.013  1.00  0.00    -0.298 OA
ENDBRANCH   9  23
BRANCH  10  26
HETATM   26  O   UNL     1      42.816 -12.680   1.964  1.00  0.00    -0.389 OA
HETATM   27  H   UNL     1      43.450 -12.530   2.686  1.00  0.00     0.210 HD
ENDBRANCH  10  26
TORSDOF 5
ENDMDL
MODEL 6
REMARK VINA RESULT:      -6.7      2.919      5.922
REMARK  5 active torsions:
REMARK  status: ('A' for Active; 'I' for Inactive)
REMARK    1  A    between atoms: C_8  and  C_9 
REMARK    2  A    between atoms: C_11  and  O_12 
REMARK    3  A    between atoms: C_14  and  O_15 
REMARK    4  A    between atoms: C_18  and  C_19 
REMARK    5  A    between atoms: C_22  and  O_23 
ROOT
HETATM    1  C   UNL     1      44.614 -14.789   6.203  1.00  0.00     0.070 C 
HETATM    2  C   UNL     1      43.467 -13.985   5.724  1.00  0.00     0.033 A 
HETATM    3  N   UNL     1      42.835 -13.087   6.543  1.00  0.00    -0.282 N 
HETATM    4  H   UNL     1      43.033 -12.882   7.516  1.00  0.00     0.189 HD
HETATM    5  N   UNL     1      41.867 -12.385   5.937  1.00  0.00    -0.179 NA
HETATM    6  C   UNL     1      41.869 -12.863   4.691  1.00  0.00     0.066 A 
HETATM    7  C   UNL     1      42.808 -13.910   4.509  1.00  0.00     0.001 A 
HETATM    8  C   UNL     1      43.013 -14.570   3.178  1.00  0.00     0.070 C 
HETATM    9  C   UNL     1      41.861 -14.282   2.172  1.00  0.00     0.102 C 
HETATM   10  C   UNL     1      41.405 -12.795   2.211  1.00  0.00     0.071 C 
HETATM   11  C   UNL     1      40.275 -12.503   1.210  1.00  0.00     0.047 C 
HETATM   12  C   UNL     1      40.977 -12.317   3.627  1.00  0.00     0.100 C 
ENDROOT
BRANCH   8  13
HETATM   13  C   UNL     1      43.308 -16.054   3.353  1.00  0.00    -0.046 A 
HETATM   14  C   UNL     1      42.921 -16.792   4.489  1.00  0.00     0.047 A 
HETATM   15  C   UNL     1      43.198 -18.158   4.577  1.00  0.00     0.101 A 
HETATM   16  C   UNL     1      43.786 -18.812   3.495  1.00  0.00     0.099 A 
HETATM   17  C   UNL     1      44.161 -18.115   2.357  1.00  0.00     0.040 A 
HETATM   18  C   UNL     1      43.931 -16.740   2.291  1.00  0.00     0.011 A 
BRANCH  15  19
HETATM   19  O   UNL     1      42.882 -18.933   5.663  1.00  0.00    -0.353 OA
HETATM   20  C   UNL     1      43.723 -18.670   6.787  1.00  0.00     0.210 C 
ENDBRANCH  15  19
BRANCH  16  21
HETATM   21  O   UNL     1      44.014 -20.158   3.544  1.00  0.00    -0.358 OA
HETATM   22  H   UNL     1      43.611 -20.453   4.383  1.00  0.00     0.218 HD
ENDBRANCH  16  21
ENDBRANCH   8  13
BRANCH   9  23
HETATM   23  C   UNL     1      40.672 -15.226   2.341  1.00  0.00     0.131 C 
HETATM   24  C   UNL     1      40.426 -16.217   1.229  1.00  0.00     0.091 C 
HETATM   25  O   UNL     1      39.914 -15.171   3.308  1.00  0.00    -0.298 OA
ENDBRANCH   9  23
BRANCH  10  26
HETATM   26  O   UNL     1      42.531 -11.992   1.788  1.00  0.00    -0.389 OA
HETATM   27  H   UNL     1      42.458 -11.817   0.834  1.00  0.00     0.210 HD
ENDBRANCH  10  26
TORSDOF 5
ENDMDL
MODEL 7
REMARK VINA RESULT:      -6.6      8.289      9.926
REMARK  5 active torsions:
REMARK  status: ('A' for Active; 'I' for Inactive)
REMARK    1  A    between atoms: C_8  and  C_9 
REMARK    2  A    between atoms: C_11  and  O_12 
REMARK    3  A    between atoms: C_14  and  O_15 
REMARK    4  A    between atoms: C_18  and  C_19 
REMARK    5  A    between atoms: C_22  and  O_23 
ROOT
HETATM    1  C   UNL     1      43.553 -11.269   8.818  1.00  0.00     0.070 C 
HETATM    2  C   UNL     1      43.322 -11.383  10.277  1.00  0.00     0.033 A 
HETATM    3  N   UNL     1      43.835 -12.428  10.999  1.00  0.00    -0.282 N 
HETATM    4  H   UNL     1      44.378 -13.214  10.662  1.00  0.00     0.189 HD
HETATM    5  N   UNL     1      43.602 -12.344  12.317  1.00  0.00    -0.179 NA
HETATM    6  C   UNL     1      42.902 -11.214  12.439  1.00  0.00     0.066 A 
HETATM    7  C   UNL     1      42.641 -10.595  11.189  1.00  0.00     0.001 A 
HETATM    8  C   UNL     1      41.905  -9.293  11.087  1.00  0.00     0.070 C 
HETATM    9  C   UNL     1      41.142  -8.921  12.391  1.00  0.00     0.102 C 
HETATM   10  C   UNL     1      41.984  -9.210  13.667  1.00  0.00     0.071 C 
HETATM   11  C   UNL     1      41.238  -8.832  14.958  1.00  0.00     0.047 C 
HETATM   12  C   UNL     1      42.472 -10.682  13.764  1.00  0.00     0.100 C 
ENDROOT
BRANCH   8  13
HETATM   13  C   UNL     1      41.028  -9.268   9.842  1.00  0.00    -0.046 A 
HETATM   14  C   UNL     1      40.401 -10.413   9.313  1.00  0.00     0.047 A 
HETATM   15  C   UNL     1      39.585 -10.319   8.184  1.00  0.00     0.101 A 
HETATM   16  C   UNL     1      39.323  -9.068   7.627  1.00  0.00     0.099 A 
HETATM   17  C   UNL     1      39.911  -7.921   8.137  1.00  0.00     0.040 A 
HETATM   18  C   UNL     1      40.768  -8.023   9.235  1.00  0.00     0.011 A 
BRANCH  15  19
HETATM   19  O   UNL     1      38.970 -11.393   7.594  1.00  0.00    -0.353 OA
HETATM   20  C   UNL     1      39.842 -12.113   6.721  1.00  0.00     0.210 C 
ENDBRANCH  15  19
BRANCH  16  21
HETATM   21  O   UNL     1      38.484  -8.952   6.555  1.00  0.00    -0.358 OA
HETATM   22  H   UNL     1      38.630  -8.048   6.215  1.00  0.00     0.218 HD
ENDBRANCH  16  21
ENDBRANCH   8  13
BRANCH   9  23
HETATM   23  C   UNL     1      39.764  -9.574  12.482  1.00  0.00     0.131 C 
HETATM   24  C   UNL     1      38.571  -8.649  12.473  1.00  0.00     0.091 C 
HETATM   25  O   UNL     1      39.612 -10.789  12.600  1.00  0.00    -0.298 OA
ENDBRANCH   9  23
BRANCH  10  26
HETATM   26  O   UNL     1      43.148  -8.353  13.613  1.00  0.00    -0.389 OA
HETATM   27  H   UNL     1      43.479  -8.207  14.516  1.00  0.00     0.210 HD
ENDBRANCH  10  26
TORSDOF 5
ENDMDL
MODEL 8
REMARK VINA RESULT:      -6.5      2.797      5.569
REMARK  5 active torsions:
REMARK  status: ('A' for Active; 'I' for Inactive)
REMARK    1  A    between atoms: C_8  and  C_9 
REMARK    2  A    between atoms: C_11  and  O_12 
REMARK    3  A    between atoms: C_14  and  O_15 
REMARK    4  A    between atoms: C_18  and  C_19 
REMARK    5  A    between atoms: C_22  and  O_23 
ROOT
HETATM    1  C   UNL     1      40.647 -17.816   1.316  1.00  0.00     0.070 C 
HETATM    2  C   UNL     1      40.874 -16.352   1.298  1.00  0.00     0.033 A 
HETATM    3  N   UNL     1      40.824 -15.639   0.129  1.00  0.00    -0.282 N 
HETATM    4  H   UNL     1      40.662 -15.986  -0.809  1.00  0.00     0.189 HD
HETATM    5  N   UNL     1      40.974 -14.316   0.292  1.00  0.00    -0.179 NA
HETATM    6  C   UNL     1      41.142 -14.182   1.610  1.00  0.00     0.066 A 
HETATM    7  C   UNL     1      41.149 -15.427   2.290  1.00  0.00     0.001 A 
HETATM    8  C   UNL     1      41.283 -15.516   3.781  1.00  0.00     0.070 C 
HETATM    9  C   UNL     1      41.797 -14.197   4.426  1.00  0.00     0.102 C 
HETATM   10  C   UNL     1      41.124 -12.938   3.806  1.00  0.00     0.071 C 
HETATM   11  C   UNL     1      41.620 -11.633   4.449  1.00  0.00     0.047 C 
HETATM   12  C   UNL     1      41.286 -12.849   2.263  1.00  0.00     0.100 C 
ENDROOT
BRANCH   8  13
HETATM   13  C   UNL     1      42.098 -16.742   4.174  1.00  0.00    -0.046 A 
HETATM   14  C   UNL     1      42.975 -17.405   3.294  1.00  0.00     0.047 A 
HETATM   15  C   UNL     1      43.715 -18.507   3.726  1.00  0.00     0.101 A 
HETATM   16  C   UNL     1      43.647 -18.902   5.062  1.00  0.00     0.099 A 
HETATM   17  C   UNL     1      42.807 -18.257   5.955  1.00  0.00     0.040 A 
HETATM   18  C   UNL     1      42.028 -17.187   5.510  1.00  0.00     0.011 A 
BRANCH  15  19
HETATM   19  O   UNL     1      44.562 -19.222   2.919  1.00  0.00    -0.353 OA
HETATM   20  C   UNL     1      43.867 -20.125   2.057  1.00  0.00     0.210 C 
ENDBRANCH  15  19
BRANCH  16  21
HETATM   21  O   UNL     1      44.406 -19.944   5.512  1.00  0.00    -0.358 OA
HETATM   22  H   UNL     1      44.922 -19.579   6.257  1.00  0.00     0.218 HD
ENDBRANCH  16  21
ENDBRANCH   8  13
BRANCH   9  23
HETATM   23  C   UNL     1      43.320 -14.074   4.400  1.00  0.00     0.131 C 
HETATM   24  C   UNL     1      44.028 -14.110   5.733  1.00  0.00     0.091 C 
HETATM   25  O   UNL     1      43.954 -13.912   3.359  1.00  0.00    -0.298 OA
ENDBRANCH   9  23
BRANCH  10  26
HETATM   26  O   UNL     1      39.711 -13.019   4.105  1.00  0.00    -0.389 OA
HETATM   27  H   UNL     1      39.261 -13.505   3.393  1.00  0.00     0.210 HD
ENDBRANCH  10  26
TORSDOF 5
ENDMDL
MODEL 9
REMARK VINA RESULT:      -6.5      2.639      5.845
REMARK  5 active torsions:
REMARK  status: ('A' for Active; 'I' for Inactive)
REMARK    1  A    between atoms: C_8  and  C_9 
REMARK    2  A    between atoms: C_11  and  O_12 
REMARK    3  A    between atoms: C_14  and  O_15 
REMARK    4  A    between atoms: C_18  and  C_19 
REMARK    5  A    between atoms: C_22  and  O_23 
ROOT
HETATM    1  C   UNL     1      44.748 -16.097   6.507  1.00  0.00     0.070 C 
HETATM    2  C   UNL     1      43.587 -15.378   5.935  1.00  0.00     0.033 A 
HETATM    3  N   UNL     1      42.831 -14.527   6.698  1.00  0.00    -0.282 N 
HETATM    4  H   UNL     1      42.938 -14.307   7.681  1.00  0.00     0.189 HD
HETATM    5  N   UNL     1      41.865 -13.897   6.014  1.00  0.00    -0.179 NA
HETATM    6  C   UNL     1      41.998 -14.374   4.775  1.00  0.00     0.066 A 
HETATM    7  C   UNL     1      43.021 -15.352   4.673  1.00  0.00     0.001 A 
HETATM    8  C   UNL     1      43.375 -15.997   3.366  1.00  0.00     0.070 C 
HETATM    9  C   UNL     1      42.287 -15.793   2.272  1.00  0.00     0.102 C 
HETATM   10  C   UNL     1      41.724 -14.342   2.266  1.00  0.00     0.071 C 
HETATM   11  C   UNL     1      40.657 -14.133   1.179  1.00  0.00     0.047 C 
HETATM   12  C   UNL     1      41.155 -13.895   3.642  1.00  0.00     0.100 C 
ENDROOT
BRANCH   8  13
HETATM   13  C   UNL     1      43.760 -17.456   3.573  1.00  0.00    -0.046 A 
HETATM   14  C   UNL     1      43.631 -18.124   4.807  1.00  0.00     0.047 A 
HETATM   15  C   UNL     1      43.977 -19.471   4.924  1.00  0.00     0.101 A 
HETATM   16  C   UNL     1      44.373 -20.182   3.792  1.00  0.00     0.099 A 
HETATM   17  C   UNL     1      44.491 -19.556   2.561  1.00  0.00     0.040 A 
HETATM   18  C   UNL     1      44.196 -18.195   2.455  1.00  0.00     0.011 A 
BRANCH  15  19
HETATM   19  O   UNL     1      43.909 -20.177   6.098  1.00  0.00    -0.353 OA
HETATM   20  C   UNL     1      43.619 -19.346   7.223  1.00  0.00     0.210 C 
ENDBRANCH  15  19
BRANCH  16  21
HETATM   21  O   UNL     1      44.662 -21.514   3.880  1.00  0.00    -0.358 OA
HETATM   22  H   UNL     1      45.433 -21.567   4.477  1.00  0.00     0.218 HD
ENDBRANCH  16  21
ENDBRANCH   8  13
BRANCH   9  23
HETATM   23  C   UNL     1      41.159 -16.820   2.355  1.00  0.00     0.131 C 
HETATM   24  C   UNL     1      40.860 -17.605   1.100  1.00  0.00     0.091 C 
HETATM   25  O   UNL     1      40.486 -16.986   3.371  1.00  0.00    -0.298 OA
ENDBRANCH   9  23
BRANCH  10  26
HETATM   26  O   UNL     1      42.819 -13.462   1.926  1.00  0.00    -0.389 OA
HETATM   27  H   UNL     1      43.627 -13.769   2.372  1.00  0.00     0.210 HD
ENDBRANCH  10  26
TORSDOF 5
ENDMDL
MODEL 10
REMARK VINA RESULT:      -6.4      2.561      4.033
REMARK  5 active torsions:
REMARK  status: ('A' for Active; 'I' for Inactive)
REMARK    1  A    between atoms: C_8  and  C_9 
REMARK    2  A    between atoms: C_11  and  O_12 
REMARK    3  A    between atoms: C_14  and  O_15 
REMARK    4  A    between atoms: C_18  and  C_19 
REMARK    5  A    between atoms: C_22  and  O_23 
ROOT
HETATM    1  C   UNL     1      40.352 -12.815   5.302  1.00  0.00     0.070 C 
HETATM    2  C   UNL     1      41.459 -13.796   5.375  1.00  0.00     0.033 A 
HETATM    3  N   UNL     1      42.508 -13.623   6.239  1.00  0.00    -0.282 N 
HETATM    4  H   UNL     1      42.670 -12.853   6.878  1.00  0.00     0.189 HD
HETATM    5  N   UNL     1      43.386 -14.636   6.238  1.00  0.00    -0.179 NA
HETATM    6  C   UNL     1      42.889 -15.479   5.330  1.00  0.00     0.066 A 
HETATM    7  C   UNL     1      41.714 -14.982   4.709  1.00  0.00     0.001 A 
HETATM    8  C   UNL     1      40.960 -15.778   3.685  1.00  0.00     0.070 C 
HETATM    9  C   UNL     1      41.786 -16.965   3.109  1.00  0.00     0.102 C 
HETATM   10  C   UNL     1      42.579 -17.721   4.214  1.00  0.00     0.071 C 
HETATM   11  C   UNL     1      43.386 -18.901   3.649  1.00  0.00     0.047 C 
HETATM   12  C   UNL     1      43.519 -16.799   5.039  1.00  0.00     0.100 C 
ENDROOT
BRANCH   8  13
HETATM   13  C   UNL     1      40.382 -14.864   2.614  1.00  0.00    -0.046 A 
HETATM   14  C   UNL     1      41.095 -13.792   2.041  1.00  0.00     0.047 A 
HETATM   15  C   UNL     1      40.517 -13.008   1.042  1.00  0.00     0.101 A 
HETATM   16  C   UNL     1      39.256 -13.341   0.548  1.00  0.00     0.099 A 
HETATM   17  C   UNL     1      38.539 -14.401   1.078  1.00  0.00     0.040 A 
HETATM   18  C   UNL     1      39.096 -15.153   2.114  1.00  0.00     0.011 A 
BRANCH  15  19
HETATM   19  O   UNL     1      41.136 -11.930   0.463  1.00  0.00    -0.353 OA
HETATM   20  C   UNL     1      42.110 -12.313  -0.508  1.00  0.00     0.210 C 
ENDBRANCH  15  19
BRANCH  16  21
HETATM   21  O   UNL     1      38.699 -12.616  -0.467  1.00  0.00    -0.358 OA
HETATM   22  H   UNL     1      38.411 -11.779  -0.054  1.00  0.00     0.218 HD
ENDBRANCH  16  21
ENDBRANCH   8  13
BRANCH   9  23
HETATM   23  C   UNL     1      42.703 -16.549   1.960  1.00  0.00     0.131 C 
HETATM   24  C   UNL     1      42.323 -17.026   0.579  1.00  0.00     0.091 C 
HETATM   25  O   UNL     1      43.730 -15.895   2.134  1.00  0.00    -0.298 OA
ENDBRANCH   9  23
BRANCH  10  26
HETATM   26  O   UNL     1      41.608 -18.296   5.117  1.00  0.00    -0.389 OA
HETATM   27  H   UNL     1      40.719 -18.202   4.733  1.00  0.00     0.210 HD
ENDBRANCH  10  26
TORSDOF 5
ENDMDL
