MODEL 1
REMARK VINA RESULT:      -7.8      0.000      0.000
REMARK  8 active torsions:
REMARK  status: ('A' for Active; 'I' for Inactive)
REMARK    1  A    between atoms: C_2  and  N_3 
REMARK    2  A    between atoms: C_2  and  C_17 
REMARK    3  A    between atoms: N_3  and  C_6 
REMARK    4  A    between atoms: C_6  and  C_7 
REMARK    5  A    between atoms: C_7  and  O_8 
REMARK    6  A    between atoms: C_7  and  C_9 
REMARK    7  A    between atoms: C_11  and  O_12 
REMARK    8  A    between atoms: C_17  and  C_18 
ROOT
HETATM    1  N   UNL     1      42.477 -16.379   7.109  1.00  0.00    -0.068 N 
HETATM    2  H   UNL     1      42.512 -17.305   7.586  1.00  0.00     0.277 HD
HETATM    3  H   UNL     1      42.372 -15.693   7.876  1.00  0.00     0.277 HD
ENDROOT
BRANCH   1   4
HETATM    4  C   UNL     1      43.768 -16.216   6.354  1.00  0.00     0.188 C 
HETATM    5  C   UNL     1      44.496 -14.972   6.852  1.00  0.00     0.040 C 
BRANCH   4   6
HETATM    6  C   UNL     1      44.654 -17.467   6.544  1.00  0.00     0.099 C 
BRANCH   6   7
HETATM    7  C   UNL     1      44.469 -18.450   5.428  1.00  0.00     0.078 A 
HETATM    8  S   UNL     1      43.793 -17.961   3.935  1.00  0.00    -0.073 SA
HETATM    9  C   UNL     1      43.973 -19.562   3.329  1.00  0.00     0.035 A 
HETATM   10  C   UNL     1      44.546 -20.362   4.320  1.00  0.00     0.074 A 
HETATM   11  C   UNL     1      43.630 -20.072   2.066  1.00  0.00     0.021 A 
HETATM   12  N   UNL     1      44.844 -19.711   5.513  1.00  0.00    -0.245 NA
HETATM   13  C   UNL     1      44.772 -21.726   4.042  1.00  0.00     0.033 A 
HETATM   14  C   UNL     1      44.434 -22.244   2.787  1.00  0.00     0.002 A 
HETATM   15  C   UNL     1      43.873 -21.425   1.813  1.00  0.00     0.002 A 
ENDBRANCH   6   7
ENDBRANCH   4   6
ENDBRANCH   1   4
BRANCH   1  16
HETATM   16  C   UNL     1      41.193 -16.344   6.327  1.00  0.00     0.269 C 
BRANCH  16  17
HETATM   17  C   UNL     1      41.008 -14.923   5.749  1.00  0.00     0.177 C 
BRANCH  17  18
HETATM   18  O   UNL     1      40.060 -14.248   6.592  1.00  0.00    -0.389 OA
HETATM   19  H   UNL     1      40.585 -13.687   7.200  1.00  0.00     0.210 HD
ENDBRANCH  17  18
BRANCH  17  20
HETATM   20  C   UNL     1      40.537 -14.938   4.311  1.00  0.00    -0.025 A 
HETATM   21  C   UNL     1      40.950 -15.989   3.467  1.00  0.00     0.046 A 
HETATM   22  C   UNL     1      40.532 -16.045   2.135  1.00  0.00     0.068 A 
HETATM   23  C   UNL     1      39.696 -15.044   1.640  1.00  0.00     0.037 A 
HETATM   24  C   UNL     1      39.279 -13.997   2.459  1.00  0.00     0.003 A 
HETATM   25  C   UNL     1      39.692 -13.946   3.790  1.00  0.00     0.010 A 
BRANCH  22  26
HETATM   26  O   UNL     1      40.856 -17.013   1.230  1.00  0.00    -0.356 OA
HETATM   27  C   UNL     1      42.142 -16.947   0.626  1.00  0.00     0.210 C 
ENDBRANCH  22  26
ENDBRANCH  17  20
ENDBRANCH  16  17
ENDBRANCH   1  16
TORSDOF 8
ENDMDL
MODEL 2
REMARK VINA RESULT:      -7.8      2.397      6.136
REMARK  8 active torsions:
REMARK  status: ('A' for Active; 'I' for Inactive)
REMARK    1  A    between atoms: C_2  and  N_3 
REMARK    2  A    between atoms: C_2  and  C_17 
REMARK    3  A    between atoms: N_3  and  C_6 
REMARK    4  A    between atoms: C_6  and  C_7 
REMARK    5  A    between atoms: C_7  and  O_8 
REMARK    6  A    between atoms: C_7  and  C_9 
REMARK    7  A    between atoms: C_11  and  O_12 
REMARK    8  A    between atoms: C_17  and  C_18 
ROOT
HETATM    1  N   UNL     1      39.902 -16.396   2.439  1.00  0.00    -0.068 N 
HETATM    2  H   UNL     1      40.297 -16.481   3.400  1.00  0.00     0.277 HD
HETATM    3  H   UNL     1      38.977 -16.857   2.495  1.00  0.00     0.277 HD
ENDROOT
BRANCH   1   4
HETATM    4  C   UNL     1      39.805 -14.928   2.125  1.00  0.00     0.188 C 
HETATM    5  C   UNL     1      38.504 -14.652   1.379  1.00  0.00     0.040 C 
BRANCH   4   6
HETATM    6  C   UNL     1      39.858 -14.103   3.429  1.00  0.00     0.099 C 
BRANCH   6   7
HETATM    7  C   UNL     1      40.858 -14.662   4.397  1.00  0.00     0.078 A 
HETATM    8  S   UNL     1      42.427 -13.993   4.515  1.00  0.00    -0.073 SA
HETATM    9  C   UNL     1      42.816 -15.123   5.753  1.00  0.00     0.035 A 
HETATM   10  C   UNL     1      41.706 -15.936   5.992  1.00  0.00     0.074 A 
HETATM   11  C   UNL     1      44.018 -15.279   6.461  1.00  0.00     0.021 A 
HETATM   12  N   UNL     1      40.582 -15.651   5.222  1.00  0.00    -0.245 NA
HETATM   13  C   UNL     1      41.807 -16.951   6.966  1.00  0.00     0.033 A 
HETATM   14  C   UNL     1      43.000 -17.115   7.677  1.00  0.00     0.002 A 
HETATM   15  C   UNL     1      44.090 -16.287   7.428  1.00  0.00     0.002 A 
ENDBRANCH   6   7
ENDBRANCH   4   6
ENDBRANCH   1   4
BRANCH   1  16
HETATM   16  C   UNL     1      40.753 -17.255   1.545  1.00  0.00     0.269 C 
BRANCH  16  17
HETATM   17  C   UNL     1      42.238 -16.945   1.834  1.00  0.00     0.177 C 
BRANCH  17  18
HETATM   18  O   UNL     1      42.818 -16.487   0.601  1.00  0.00    -0.389 OA
HETATM   19  H   UNL     1      43.681 -16.088   0.836  1.00  0.00     0.210 HD
ENDBRANCH  17  18
BRANCH  17  20
HETATM   20  C   UNL     1      42.989 -18.145   2.370  1.00  0.00    -0.025 A 
HETATM   21  C   UNL     1      43.452 -18.123   3.701  1.00  0.00     0.046 A 
HETATM   22  C   UNL     1      44.141 -19.213   4.238  1.00  0.00     0.068 A 
HETATM   23  C   UNL     1      44.372 -20.334   3.442  1.00  0.00     0.037 A 
HETATM   24  C   UNL     1      43.922 -20.373   2.123  1.00  0.00     0.003 A 
HETATM   25  C   UNL     1      43.228 -19.287   1.591  1.00  0.00     0.010 A 
BRANCH  22  26
HETATM   26  O   UNL     1      44.627 -19.310   5.510  1.00  0.00    -0.356 OA
HETATM   27  C   UNL     1      44.076 -20.317   6.350  1.00  0.00     0.210 C 
ENDBRANCH  22  26
ENDBRANCH  17  20
ENDBRANCH  16  17
ENDBRANCH   1  16
TORSDOF 8
ENDMDL
MODEL 3
REMARK VINA RESULT:      -7.6      1.756      2.487
REMARK  8 active torsions:
REMARK  status: ('A' for Active; 'I' for Inactive)
REMARK    1  A    between atoms: C_2  and  N_3 
REMARK    2  A    between atoms: C_2  and  C_17 
REMARK    3  A    between atoms: N_3  and  C_6 
REMARK    4  A    between atoms: C_6  and  C_7 
REMARK    5  A    between atoms: C_7  and  O_8 
REMARK    6  A    between atoms: C_7  and  C_9 
REMARK    7  A    between atoms: C_11  and  O_12 
REMARK    8  A    between atoms: C_17  and  C_18 
ROOT
HETATM    1  N   UNL     1      42.258 -14.709   6.165  1.00  0.00    -0.068 N 
HETATM    2  H   UNL     1      41.766 -15.606   6.364  1.00  0.00     0.277 HD
HETATM    3  H   UNL     1      41.919 -14.059   6.896  1.00  0.00     0.277 HD
ENDROOT
BRANCH   1   4
HETATM    4  C   UNL     1      43.734 -14.978   6.262  1.00  0.00     0.188 C 
HETATM    5  C   UNL     1      44.402 -13.870   7.070  1.00  0.00     0.040 C 
BRANCH   4   6
HETATM    6  C   UNL     1      43.980 -16.349   6.928  1.00  0.00     0.099 C 
BRANCH   6   7
HETATM    7  C   UNL     1      44.086 -17.446   5.913  1.00  0.00     0.078 A 
HETATM    8  S   UNL     1      44.686 -18.987   6.352  1.00  0.00    -0.073 SA
HETATM    9  C   UNL     1      44.447 -19.539   4.739  1.00  0.00     0.035 A 
HETATM   10  C   UNL     1      43.917 -18.497   3.975  1.00  0.00     0.074 A 
HETATM   11  C   UNL     1      44.711 -20.805   4.191  1.00  0.00     0.021 A 
HETATM   12  N   UNL     1      43.697 -17.307   4.662  1.00  0.00    -0.245 NA
HETATM   13  C   UNL     1      43.655 -18.726   2.609  1.00  0.00     0.033 A 
HETATM   14  C   UNL     1      43.913 -19.982   2.052  1.00  0.00     0.002 A 
HETATM   15  C   UNL     1      44.433 -21.008   2.836  1.00  0.00     0.002 A 
ENDBRANCH   6   7
ENDBRANCH   4   6
ENDBRANCH   1   4
BRANCH   1  16
HETATM   16  C   UNL     1      41.716 -14.199   4.858  1.00  0.00     0.269 C 
BRANCH  16  17
HETATM   17  C   UNL     1      40.660 -15.200   4.340  1.00  0.00     0.177 C 
BRANCH  17  18
HETATM   18  O   UNL     1      40.727 -16.357   5.190  1.00  0.00    -0.389 OA
HETATM   19  H   UNL     1      39.991 -16.942   4.914  1.00  0.00     0.210 HD
ENDBRANCH  17  18
BRANCH  17  20
HETATM   20  C   UNL     1      40.880 -15.580   2.891  1.00  0.00    -0.025 A 
HETATM   21  C   UNL     1      41.365 -14.606   1.996  1.00  0.00     0.046 A 
HETATM   22  C   UNL     1      41.591 -14.917   0.652  1.00  0.00     0.068 A 
HETATM   23  C   UNL     1      41.328 -16.209   0.198  1.00  0.00     0.037 A 
HETATM   24  C   UNL     1      40.846 -17.184   1.069  1.00  0.00     0.003 A 
HETATM   25  C   UNL     1      40.629 -16.874   2.411  1.00  0.00     0.010 A 
BRANCH  22  26
HETATM   26  O   UNL     1      42.066 -14.065  -0.302  1.00  0.00    -0.356 OA
HETATM   27  C   UNL     1      41.647 -12.707  -0.240  1.00  0.00     0.210 C 
ENDBRANCH  22  26
ENDBRANCH  17  20
ENDBRANCH  16  17
ENDBRANCH   1  16
TORSDOF 8
ENDMDL
MODEL 4
REMARK VINA RESULT:      -7.6      1.950      4.287
REMARK  8 active torsions:
REMARK  status: ('A' for Active; 'I' for Inactive)
REMARK    1  A    between atoms: C_2  and  N_3 
REMARK    2  A    between atoms: C_2  and  C_17 
REMARK    3  A    between atoms: N_3  and  C_6 
REMARK    4  A    between atoms: C_6  and  C_7 
REMARK    5  A    between atoms: C_7  and  O_8 
REMARK    6  A    between atoms: C_7  and  C_9 
REMARK    7  A    between atoms: C_11  and  O_12 
REMARK    8  A    between atoms: C_17  and  C_18 
ROOT
HETATM    1  N   UNL     1      40.786 -15.969   2.892  1.00  0.00    -0.068 N 
HETATM    2  H   UNL     1      39.908 -16.119   2.351  1.00  0.00     0.277 HD
HETATM    3  H   UNL     1      40.854 -16.794   3.514  1.00  0.00     0.277 HD
ENDROOT
BRANCH   1   4
HETATM    4  C   UNL     1      41.915 -15.892   1.900  1.00  0.00     0.188 C 
HETATM    5  C   UNL     1      41.857 -14.556   1.166  1.00  0.00     0.040 C 
BRANCH   4   6
HETATM    6  C   UNL     1      43.269 -16.044   2.627  1.00  0.00     0.099 C 
BRANCH   6   7
HETATM    7  C   UNL     1      43.596 -17.482   2.891  1.00  0.00     0.078 A 
HETATM    8  S   UNL     1      43.507 -18.643   1.638  1.00  0.00    -0.073 SA
HETATM    9  C   UNL     1      44.020 -19.867   2.734  1.00  0.00     0.035 A 
HETATM   10  C   UNL     1      44.229 -19.294   3.991  1.00  0.00     0.074 A 
HETATM   11  C   UNL     1      44.223 -21.236   2.498  1.00  0.00     0.021 A 
HETATM   12  N   UNL     1      44.001 -17.923   4.066  1.00  0.00    -0.245 NA
HETATM   13  C   UNL     1      44.643 -20.124   5.052  1.00  0.00     0.033 A 
HETATM   14  C   UNL     1      44.848 -21.489   4.828  1.00  0.00     0.002 A 
HETATM   15  C   UNL     1      44.642 -22.035   3.565  1.00  0.00     0.002 A 
ENDBRANCH   6   7
ENDBRANCH   4   6
ENDBRANCH   1   4
BRANCH   1  16
HETATM   16  C   UNL     1      40.547 -14.782   3.784  1.00  0.00     0.269 C 
BRANCH  16  17
HETATM   17  C   UNL     1      40.279 -15.291   5.218  1.00  0.00     0.177 C 
BRANCH  17  18
HETATM   18  O   UNL     1      39.558 -14.253   5.903  1.00  0.00    -0.389 OA
HETATM   19  H   UNL     1      38.856 -14.702   6.418  1.00  0.00     0.210 HD
ENDBRANCH  17  18
BRANCH  17  20
HETATM   20  C   UNL     1      41.551 -15.644   5.957  1.00  0.00    -0.025 A 
HETATM   21  C   UNL     1      42.640 -14.750   5.908  1.00  0.00     0.046 A 
HETATM   22  C   UNL     1      43.831 -15.034   6.584  1.00  0.00     0.068 A 
HETATM   23  C   UNL     1      43.936 -16.218   7.311  1.00  0.00     0.037 A 
HETATM   24  C   UNL     1      42.870 -17.114   7.369  1.00  0.00     0.003 A 
HETATM   25  C   UNL     1      41.681 -16.827   6.701  1.00  0.00     0.010 A 
BRANCH  22  26
HETATM   26  O   UNL     1      44.944 -14.245   6.618  1.00  0.00    -0.356 OA
HETATM   27  C   UNL     1      45.118 -13.402   7.751  1.00  0.00     0.210 C 
ENDBRANCH  22  26
ENDBRANCH  17  20
ENDBRANCH  16  17
ENDBRANCH   1  16
TORSDOF 8
ENDMDL
MODEL 5
REMARK VINA RESULT:      -7.3      2.861      5.017
REMARK  8 active torsions:
REMARK  status: ('A' for Active; 'I' for Inactive)
REMARK    1  A    between atoms: C_2  and  N_3 
REMARK    2  A    between atoms: C_2  and  C_17 
REMARK    3  A    between atoms: N_3  and  C_6 
REMARK    4  A    between atoms: C_6  and  C_7 
REMARK    5  A    between atoms: C_7  and  O_8 
REMARK    6  A    between atoms: C_7  and  C_9 
REMARK    7  A    between atoms: C_11  and  O_12 
REMARK    8  A    between atoms: C_17  and  C_18 
ROOT
HETATM    1  N   UNL     1      41.226 -12.513   4.402  1.00  0.00    -0.068 N 
HETATM    2  H   UNL     1      41.979 -12.843   3.760  1.00  0.00     0.277 HD
HETATM    3  H   UNL     1      41.436 -11.513   4.560  1.00  0.00     0.277 HD
ENDROOT
BRANCH   1   4
HETATM    4  C   UNL     1      39.914 -12.729   3.699  1.00  0.00     0.188 C 
HETATM    5  C   UNL     1      39.076 -11.458   3.782  1.00  0.00     0.040 C 
BRANCH   4   6
HETATM    6  C   UNL     1      40.161 -13.111   2.223  1.00  0.00     0.099 C 
BRANCH   6   7
HETATM    7  C   UNL     1      40.898 -14.411   2.104  1.00  0.00     0.078 A 
HETATM    8  S   UNL     1      40.048 -15.883   1.919  1.00  0.00    -0.073 SA
HETATM    9  C   UNL     1      41.540 -16.737   1.847  1.00  0.00     0.035 A 
HETATM   10  C   UNL     1      42.592 -15.825   1.966  1.00  0.00     0.074 A 
HETATM   11  C   UNL     1      41.764 -18.115   1.695  1.00  0.00     0.021 A 
HETATM   12  N   UNL     1      42.213 -14.492   2.095  1.00  0.00    -0.245 NA
HETATM   13  C   UNL     1      43.915 -16.312   1.948  1.00  0.00     0.033 A 
HETATM   14  C   UNL     1      44.149 -17.683   1.797  1.00  0.00     0.002 A 
HETATM   15  C   UNL     1      43.086 -18.571   1.670  1.00  0.00     0.002 A 
ENDBRANCH   6   7
ENDBRANCH   4   6
ENDBRANCH   1   4
BRANCH   1  16
HETATM   16  C   UNL     1      41.445 -13.208   5.718  1.00  0.00     0.269 C 
BRANCH  16  17
HETATM   17  C   UNL     1      42.808 -13.933   5.669  1.00  0.00     0.177 C 
BRANCH  17  18
HETATM   18  O   UNL     1      43.522 -13.408   4.538  1.00  0.00    -0.389 OA
HETATM   19  H   UNL     1      43.088 -12.561   4.310  1.00  0.00     0.210 HD
ENDBRANCH  17  18
BRANCH  17  20
HETATM   20  C   UNL     1      42.663 -15.437   5.567  1.00  0.00    -0.025 A 
HETATM   21  C   UNL     1      43.823 -16.237   5.559  1.00  0.00     0.046 A 
HETATM   22  C   UNL     1      43.733 -17.629   5.475  1.00  0.00     0.068 A 
HETATM   23  C   UNL     1      42.477 -18.227   5.395  1.00  0.00     0.037 A 
HETATM   24  C   UNL     1      41.318 -17.452   5.400  1.00  0.00     0.003 A 
HETATM   25  C   UNL     1      41.409 -16.064   5.492  1.00  0.00     0.010 A 
BRANCH  22  26
HETATM   26  O   UNL     1      44.781 -18.504   5.469  1.00  0.00    -0.356 OA
HETATM   27  C   UNL     1      44.532 -19.825   5.007  1.00  0.00     0.210 C 
ENDBRANCH  22  26
ENDBRANCH  17  20
ENDBRANCH  16  17
ENDBRANCH   1  16
TORSDOF 8
ENDMDL
MODEL 6
REMARK VINA RESULT:      -7.3      2.736      3.813
REMARK  8 active torsions:
REMARK  status: ('A' for Active; 'I' for Inactive)
REMARK    1  A    between atoms: C_2  and  N_3 
REMARK    2  A    between atoms: C_2  and  C_17 
REMARK    3  A    between atoms: N_3  and  C_6 
REMARK    4  A    between atoms: C_6  and  C_7 
REMARK    5  A    between atoms: C_7  and  O_8 
REMARK    6  A    between atoms: C_7  and  C_9 
REMARK    7  A    between atoms: C_11  and  O_12 
REMARK    8  A    between atoms: C_17  and  C_18 
ROOT
HETATM    1  N   UNL     1      40.544 -16.088   3.875  1.00  0.00    -0.068 N 
HETATM    2  H   UNL     1      41.013 -16.835   3.318  1.00  0.00     0.277 HD
HETATM    3  H   UNL     1      39.588 -16.448   4.041  1.00  0.00     0.277 HD
ENDROOT
BRANCH   1   4
HETATM    4  C   UNL     1      41.331 -15.916   5.144  1.00  0.00     0.188 C 
HETATM    5  C   UNL     1      40.940 -17.004   6.139  1.00  0.00     0.040 C 
BRANCH   4   6
HETATM    6  C   UNL     1      42.844 -15.987   4.842  1.00  0.00     0.099 C 
BRANCH   6   7
HETATM    7  C   UNL     1      43.241 -17.333   4.318  1.00  0.00     0.078 A 
HETATM    8  S   UNL     1      44.321 -18.328   5.195  1.00  0.00    -0.073 SA
HETATM    9  C   UNL     1      44.188 -19.543   3.983  1.00  0.00     0.035 A 
HETATM   10  C   UNL     1      43.315 -19.098   2.987  1.00  0.00     0.074 A 
HETATM   11  C   UNL     1      44.811 -20.799   3.918  1.00  0.00     0.021 A 
HETATM   12  N   UNL     1      42.763 -17.837   3.198  1.00  0.00    -0.245 NA
HETATM   13  C   UNL     1      43.068 -19.934   1.880  1.00  0.00     0.033 A 
HETATM   14  C   UNL     1      43.684 -21.188   1.805  1.00  0.00     0.002 A 
HETATM   15  C   UNL     1      44.542 -21.614   2.814  1.00  0.00     0.002 A 
ENDBRANCH   6   7
ENDBRANCH   4   6
ENDBRANCH   1   4
BRANCH   1  16
HETATM   16  C   UNL     1      40.398 -14.899   2.966  1.00  0.00     0.269 C 
BRANCH  16  17
HETATM   17  C   UNL     1      40.033 -15.402   1.552  1.00  0.00     0.177 C 
BRANCH  17  18
HETATM   18  O   UNL     1      40.386 -16.794   1.498  1.00  0.00    -0.389 OA
HETATM   19  H   UNL     1      39.977 -17.149   0.682  1.00  0.00     0.210 HD
ENDBRANCH  17  18
BRANCH  17  20
HETATM   20  C   UNL     1      40.733 -14.624   0.459  1.00  0.00    -0.025 A 
HETATM   21  C   UNL     1      41.450 -13.460   0.801  1.00  0.00     0.046 A 
HETATM   22  C   UNL     1      42.119 -12.717  -0.176  1.00  0.00     0.068 A 
HETATM   23  C   UNL     1      42.070 -13.138  -1.505  1.00  0.00     0.037 A 
HETATM   24  C   UNL     1      41.365 -14.286  -1.861  1.00  0.00     0.003 A 
HETATM   25  C   UNL     1      40.704 -15.030  -0.884  1.00  0.00     0.010 A 
BRANCH  22  26
HETATM   26  O   UNL     1      42.850 -11.584   0.034  1.00  0.00    -0.356 OA
HETATM   27  C   UNL     1      43.064 -10.723  -1.077  1.00  0.00     0.210 C 
ENDBRANCH  22  26
ENDBRANCH  17  20
ENDBRANCH  16  17
ENDBRANCH   1  16
TORSDOF 8
ENDMDL
MODEL 7
REMARK VINA RESULT:      -7.2      3.146      6.321
REMARK  8 active torsions:
REMARK  status: ('A' for Active; 'I' for Inactive)
REMARK    1  A    between atoms: C_2  and  N_3 
REMARK    2  A    between atoms: C_2  and  C_17 
REMARK    3  A    between atoms: N_3  and  C_6 
REMARK    4  A    between atoms: C_6  and  C_7 
REMARK    5  A    between atoms: C_7  and  O_8 
REMARK    6  A    between atoms: C_7  and  C_9 
REMARK    7  A    between atoms: C_11  and  O_12 
REMARK    8  A    between atoms: C_17  and  C_18 
ROOT
HETATM    1  N   UNL     1      42.438 -14.123   6.269  1.00  0.00    -0.068 N 
HETATM    2  H   UNL     1      42.131 -13.494   7.042  1.00  0.00     0.277 HD
HETATM    3  H   UNL     1      42.431 -15.070   6.685  1.00  0.00     0.277 HD
ENDROOT
BRANCH   1   4
HETATM    4  C   UNL     1      41.446 -13.970   5.149  1.00  0.00     0.188 C 
HETATM    5  C   UNL     1      42.183 -13.610   3.863  1.00  0.00     0.040 C 
BRANCH   4   6
HETATM    6  C   UNL     1      40.654 -15.283   4.962  1.00  0.00     0.099 C 
BRANCH   6   7
HETATM    7  C   UNL     1      41.552 -16.423   4.591  1.00  0.00     0.078 A 
HETATM    8  S   UNL     1      41.488 -17.113   3.027  1.00  0.00    -0.073 SA
HETATM    9  C   UNL     1      42.743 -18.209   3.458  1.00  0.00     0.035 A 
HETATM   10  C   UNL     1      43.127 -17.964   4.778  1.00  0.00     0.074 A 
HETATM   11  C   UNL     1      43.343 -19.213   2.682  1.00  0.00     0.021 A 
HETATM   12  N   UNL     1      42.451 -16.926   5.413  1.00  0.00    -0.245 NA
HETATM   13  C   UNL     1      44.140 -18.763   5.347  1.00  0.00     0.033 A 
HETATM   14  C   UNL     1      44.745 -19.767   4.584  1.00  0.00     0.002 A 
HETATM   15  C   UNL     1      44.351 -19.986   3.267  1.00  0.00     0.002 A 
ENDBRANCH   6   7
ENDBRANCH   4   6
ENDBRANCH   1   4
BRANCH   1  16
HETATM   16  C   UNL     1      43.878 -13.791   5.989  1.00  0.00     0.269 C 
BRANCH  16  17
HETATM   17  C   UNL     1      44.733 -14.261   7.187  1.00  0.00     0.177 C 
BRANCH  17  18
HETATM   18  O   UNL     1      43.983 -15.285   7.861  1.00  0.00    -0.389 OA
HETATM   19  H   UNL     1      44.151 -15.161   8.818  1.00  0.00     0.210 HD
ENDBRANCH  17  18
BRANCH  17  20
HETATM   20  C   UNL     1      45.077 -13.131   8.133  1.00  0.00    -0.025 A 
HETATM   21  C   UNL     1      44.211 -12.852   9.209  1.00  0.00     0.046 A 
HETATM   22  C   UNL     1      44.496 -11.824  10.111  1.00  0.00     0.068 A 
HETATM   23  C   UNL     1      45.653 -11.065   9.937  1.00  0.00     0.037 A 
HETATM   24  C   UNL     1      46.520 -11.325   8.878  1.00  0.00     0.003 A 
HETATM   25  C   UNL     1      46.238 -12.357   7.983  1.00  0.00     0.010 A 
BRANCH  22  26
HETATM   26  O   UNL     1      43.742 -11.469  11.192  1.00  0.00    -0.356 OA
HETATM   27  C   UNL     1      43.857 -10.134  11.666  1.00  0.00     0.210 C 
ENDBRANCH  22  26
ENDBRANCH  17  20
ENDBRANCH  16  17
ENDBRANCH   1  16
TORSDOF 8
ENDMDL
MODEL 8
REMARK VINA RESULT:      -7.2      3.370      6.130
REMARK  8 active torsions:
REMARK  status: ('A' for Active; 'I' for Inactive)
REMARK    1  A    between atoms: C_2  and  N_3 
REMARK    2  A    between atoms: C_2  and  C_17 
REMARK    3  A    between atoms: N_3  and  C_6 
REMARK    4  A    between atoms: C_6  and  C_7 
REMARK    5  A    between atoms: C_7  and  O_8 
REMARK    6  A    between atoms: C_7  and  C_9 
REMARK    7  A    between atoms: C_11  and  O_12 
REMARK    8  A    between atoms: C_17  and  C_18 
ROOT
HETATM    1  N   UNL     1      43.040 -14.943   6.861  1.00  0.00    -0.068 N 
HETATM    2  H   UNL     1      42.862 -14.199   6.152  1.00  0.00     0.277 HD
HETATM    3  H   UNL     1      42.402 -14.716   7.644  1.00  0.00     0.277 HD
ENDROOT
BRANCH   1   4
HETATM    4  C   UNL     1      42.720 -16.262   6.212  1.00  0.00     0.188 C 
HETATM    5  C   UNL     1      41.214 -16.498   6.253  1.00  0.00     0.040 C 
BRANCH   4   6
HETATM    6  C   UNL     1      43.224 -16.269   4.752  1.00  0.00     0.099 C 
BRANCH   6   7
HETATM    7  C   UNL     1      43.545 -17.656   4.285  1.00  0.00     0.078 A 
HETATM    8  S   UNL     1      44.414 -18.736   5.286  1.00  0.00    -0.073 SA
HETATM    9  C   UNL     1      44.304 -19.952   4.073  1.00  0.00     0.035 A 
HETATM   10  C   UNL     1      43.600 -19.441   2.980  1.00  0.00     0.074 A 
HETATM   11  C   UNL     1      44.805 -21.263   4.088  1.00  0.00     0.021 A 
HETATM   12  N   UNL     1      43.153 -18.130   3.119  1.00  0.00    -0.245 NA
HETATM   13  C   UNL     1      43.402 -20.268   1.856  1.00  0.00     0.033 A 
HETATM   14  C   UNL     1      43.897 -21.576   1.860  1.00  0.00     0.002 A 
HETATM   15  C   UNL     1      44.587 -22.066   2.964  1.00  0.00     0.002 A 
ENDBRANCH   6   7
ENDBRANCH   4   6
ENDBRANCH   1   4
BRANCH   1  16
HETATM   16  C   UNL     1      44.437 -14.727   7.373  1.00  0.00     0.269 C 
BRANCH  16  17
HETATM   17  C   UNL     1      44.850 -13.269   7.075  1.00  0.00     0.177 C 
BRANCH  17  18
HETATM   18  O   UNL     1      46.209 -13.305   6.610  1.00  0.00    -0.389 OA
HETATM   19  H   UNL     1      46.452 -12.380   6.399  1.00  0.00     0.210 HD
ENDBRANCH  17  18
BRANCH  17  20
HETATM   20  C   UNL     1      44.717 -12.369   8.285  1.00  0.00    -0.025 A 
HETATM   21  C   UNL     1      43.508 -11.675   8.491  1.00  0.00     0.046 A 
HETATM   22  C   UNL     1      43.340 -10.840   9.599  1.00  0.00     0.068 A 
HETATM   23  C   UNL     1      44.388 -10.695  10.508  1.00  0.00     0.037 A 
HETATM   24  C   UNL     1      45.591 -11.372  10.319  1.00  0.00     0.003 A 
HETATM   25  C   UNL     1      45.754 -12.210   9.217  1.00  0.00     0.010 A 
BRANCH  22  26
HETATM   26  O   UNL     1      42.217 -10.129   9.908  1.00  0.00    -0.356 OA
HETATM   27  C   UNL     1      41.908  -9.952  11.285  1.00  0.00     0.210 C 
ENDBRANCH  22  26
ENDBRANCH  17  20
ENDBRANCH  16  17
ENDBRANCH   1  16
TORSDOF 8
ENDMDL
MODEL 9
REMARK VINA RESULT:      -7.2      3.539      7.120
REMARK  8 active torsions:
REMARK  status: ('A' for Active; 'I' for Inactive)
REMARK    1  A    between atoms: C_2  and  N_3 
REMARK    2  A    between atoms: C_2  and  C_17 
REMARK    3  A    between atoms: N_3  and  C_6 
REMARK    4  A    between atoms: C_6  and  C_7 
REMARK    5  A    between atoms: C_7  and  O_8 
REMARK    6  A    between atoms: C_7  and  C_9 
REMARK    7  A    between atoms: C_11  and  O_12 
REMARK    8  A    between atoms: C_17  and  C_18 
ROOT
HETATM    1  N   UNL     1      39.959 -15.878   2.847  1.00  0.00    -0.068 N 
HETATM    2  H   UNL     1      39.017 -16.253   3.091  1.00  0.00     0.277 HD
HETATM    3  H   UNL     1      40.021 -15.976   1.819  1.00  0.00     0.277 HD
ENDROOT
BRANCH   1   4
HETATM    4  C   UNL     1      40.000 -14.444   3.300  1.00  0.00     0.188 C 
HETATM    5  C   UNL     1      40.672 -14.360   4.666  1.00  0.00     0.040 C 
BRANCH   4   6
HETATM    6  C   UNL     1      40.770 -13.587   2.271  1.00  0.00     0.099 C 
BRANCH   6   7
HETATM    7  C   UNL     1      40.373 -13.921   0.865  1.00  0.00     0.078 A 
HETATM    8  S   UNL     1      38.949 -13.267   0.180  1.00  0.00    -0.073 SA
HETATM    9  C   UNL     1      39.284 -14.086  -1.297  1.00  0.00     0.035 A 
HETATM   10  C   UNL     1      40.474 -14.804  -1.160  1.00  0.00     0.074 A 
HETATM   11  C   UNL     1      38.545 -14.092  -2.491  1.00  0.00     0.021 A 
HETATM   12  N   UNL     1      41.100 -14.688   0.078  1.00  0.00    -0.245 NA
HETATM   13  C   UNL     1      40.933 -15.567  -2.253  1.00  0.00     0.033 A 
HETATM   14  C   UNL     1      40.205 -15.580  -3.446  1.00  0.00     0.002 A 
HETATM   15  C   UNL     1      39.027 -14.849  -3.563  1.00  0.00     0.002 A 
ENDBRANCH   6   7
ENDBRANCH   4   6
ENDBRANCH   1   4
BRANCH   1  16
HETATM   16  C   UNL     1      40.968 -16.831   3.427  1.00  0.00     0.269 C 
BRANCH  16  17
HETATM   17  C   UNL     1      41.956 -17.238   2.312  1.00  0.00     0.177 C 
BRANCH  17  18
HETATM   18  O   UNL     1      41.169 -17.601   1.165  1.00  0.00    -0.389 OA
HETATM   19  H   UNL     1      41.702 -17.358   0.380  1.00  0.00     0.210 HD
ENDBRANCH  17  18
BRANCH  17  20
HETATM   20  C   UNL     1      42.863 -18.377   2.726  1.00  0.00    -0.025 A 
HETATM   21  C   UNL     1      43.380 -18.396   4.037  1.00  0.00     0.046 A 
HETATM   22  C   UNL     1      44.214 -19.434   4.464  1.00  0.00     0.068 A 
HETATM   23  C   UNL     1      44.536 -20.458   3.575  1.00  0.00     0.037 A 
HETATM   24  C   UNL     1      44.036 -20.455   2.274  1.00  0.00     0.003 A 
HETATM   25  C   UNL     1      43.198 -19.423   1.852  1.00  0.00     0.010 A 
BRANCH  22  26
HETATM   26  O   UNL     1      44.764 -19.565   5.706  1.00  0.00    -0.356 OA
HETATM   27  C   UNL     1      43.876 -19.641   6.814  1.00  0.00     0.210 C 
ENDBRANCH  22  26
ENDBRANCH  17  20
ENDBRANCH  16  17
ENDBRANCH   1  16
TORSDOF 8
ENDMDL
MODEL 10
REMARK VINA RESULT:      -7.2      2.074      2.518
REMARK  8 active torsions:
REMARK  status: ('A' for Active; 'I' for Inactive)
REMARK    1  A    between atoms: C_2  and  N_3 
REMARK    2  A    between atoms: C_2  and  C_17 
REMARK    3  A    between atoms: N_3  and  C_6 
REMARK    4  A    between atoms: C_6  and  C_7 
REMARK    5  A    between atoms: C_7  and  O_8 
REMARK    6  A    between atoms: C_7  and  C_9 
REMARK    7  A    between atoms: C_11  and  O_12 
REMARK    8  A    between atoms: C_17  and  C_18 
ROOT
HETATM    1  N   UNL     1      42.532 -14.026   6.368  1.00  0.00    -0.068 N 
HETATM    2  H   UNL     1      41.760 -14.655   6.677  1.00  0.00     0.277 HD
HETATM    3  H   UNL     1      42.589 -13.301   7.104  1.00  0.00     0.277 HD
ENDROOT
BRANCH   1   4
HETATM    4  C   UNL     1      43.779 -14.863   6.275  1.00  0.00     0.188 C 
HETATM    5  C   UNL     1      44.904 -14.188   7.053  1.00  0.00     0.040 C 
BRANCH   4   6
HETATM    6  C   UNL     1      43.511 -16.276   6.838  1.00  0.00     0.099 C 
BRANCH   6   7
HETATM    7  C   UNL     1      43.714 -17.334   5.797  1.00  0.00     0.078 A 
HETATM    8  S   UNL     1      44.813 -18.618   6.059  1.00  0.00    -0.073 SA
HETATM    9  C   UNL     1      44.410 -19.277   4.521  1.00  0.00     0.035 A 
HETATM   10  C   UNL     1      43.451 -18.463   3.913  1.00  0.00     0.074 A 
HETATM   11  C   UNL     1      44.907 -20.433   3.897  1.00  0.00     0.021 A 
HETATM   12  N   UNL     1      43.045 -17.361   4.661  1.00  0.00    -0.245 NA
HETATM   13  C   UNL     1      42.984 -18.810   2.629  1.00  0.00     0.033 A 
HETATM   14  C   UNL     1      43.472 -19.958   1.999  1.00  0.00     0.002 A 
HETATM   15  C   UNL     1      44.420 -20.760   2.628  1.00  0.00     0.002 A 
ENDBRANCH   6   7
ENDBRANCH   4   6
ENDBRANCH   1   4
BRANCH   1  16
HETATM   16  C   UNL     1      42.053 -13.332   5.123  1.00  0.00     0.269 C 
BRANCH  16  17
HETATM   17  C   UNL     1      42.692 -14.023   3.898  1.00  0.00     0.177 C 
BRANCH  17  18
HETATM   18  O   UNL     1      43.693 -13.128   3.387  1.00  0.00    -0.389 OA
HETATM   19  H   UNL     1      44.458 -13.687   3.136  1.00  0.00     0.210 HD
ENDBRANCH  17  18
BRANCH  17  20
HETATM   20  C   UNL     1      41.676 -14.365   2.829  1.00  0.00    -0.025 A 
HETATM   21  C   UNL     1      41.970 -14.061   1.484  1.00  0.00     0.046 A 
HETATM   22  C   UNL     1      41.064 -14.369   0.466  1.00  0.00     0.068 A 
HETATM   23  C   UNL     1      39.855 -14.982   0.791  1.00  0.00     0.037 A 
HETATM   24  C   UNL     1      39.547 -15.289   2.115  1.00  0.00     0.003 A 
HETATM   25  C   UNL     1      40.455 -14.988   3.130  1.00  0.00     0.010 A 
BRANCH  22  26
HETATM   26  O   UNL     1      41.241 -14.133  -0.867  1.00  0.00    -0.356 OA
HETATM   27  C   UNL     1      40.875 -15.166  -1.773  1.00  0.00     0.210 C 
ENDBRANCH  22  26
ENDBRANCH  17  20
ENDBRANCH  16  17
ENDBRANCH   1  16
TORSDOF 8
ENDMDL
