MODEL 1
REMARK VINA RESULT:      -9.2      0.000      0.000
REMARK  6 active torsions:
REMARK  status: ('A' for Active; 'I' for Inactive)
REMARK    1  A    between atoms: N_2  and  C_3 
REMARK    2  A    between atoms: C_6  and  C_7 
REMARK       I    between atoms: C_7  and  N_8 
REMARK    3  A    between atoms: N_8  and  C_9 
REMARK    4  A    between atoms: C_9  and  C_10 
REMARK    5  A    between atoms: C_10  and  C_11 
REMARK    6  A    between atoms: C_22  and  O_23 
ROOT
HETATM    1  C   UNL     1      44.963 -13.036   7.901  1.00  0.00     0.158 A 
HETATM    2  N   UNL     1      46.066 -12.970   8.655  1.00  0.00    -0.111 NA
HETATM    3  O   UNL     1      45.639 -12.273   9.785  1.00  0.00    -0.189 OA
HETATM    4  C   UNL     1      44.310 -11.997   9.605  1.00  0.00     0.223 A 
HETATM    5  C   UNL     1      43.507 -11.304  10.555  1.00  0.00     0.089 A 
HETATM    6  N   UNL     1      42.190 -11.002  10.312  1.00  0.00    -0.352 N 
HETATM    7  H   UNL     1      41.700 -11.236   9.460  1.00  0.00     0.166 HD
HETATM    8  C   UNL     1      41.642 -10.347  11.391  1.00  0.00     0.045 A 
HETATM    9  C   UNL     1      42.646 -10.223  12.349  1.00  0.00    -0.007 A 
HETATM   10  C   UNL     1      43.818 -10.823  11.811  1.00  0.00     0.048 A 
HETATM   11  C   UNL     1      40.345  -9.858  11.594  1.00  0.00     0.067 A 
HETATM   12  C   UNL     1      40.055  -9.231  12.812  1.00  0.00     0.070 A 
HETATM   13  C   UNL     1      41.045  -9.094  13.785  1.00  0.00     0.038 A 
HETATM   14  C   UNL     1      42.342  -9.584  13.566  1.00  0.00     0.016 A 
HETATM   15  N   UNL     1      43.849 -12.456   8.458  1.00  0.00    -0.203 NA
ENDROOT
BRANCH   1  16
HETATM   16  C   UNL     1      44.948 -13.748   6.599  1.00  0.00     0.103 C 
BRANCH  16  17
HETATM   17  C   UNL     1      43.554 -14.233   6.195  1.00  0.00     0.133 C 
BRANCH  17  18
HETATM   18  N   UNL     1      43.600 -15.434   5.354  1.00  0.00    -0.352 N 
HETATM   19  C   UNL     1      43.629 -16.673   5.994  1.00  0.00     0.253 C 
HETATM   20  O   UNL     1      43.505 -16.796   7.212  1.00  0.00    -0.267 OA
HETATM   21  C   UNL     1      43.418 -15.242   3.920  1.00  0.00     0.152 C 
BRANCH  19  22
HETATM   22  C   UNL     1      43.820 -17.904   5.195  1.00  0.00     0.032 A 
HETATM   23  C   UNL     1      43.060 -18.155   4.054  1.00  0.00     0.019 A 
HETATM   24  C   UNL     1      43.282 -19.321   3.309  1.00  0.00     0.030 A 
HETATM   25  C   UNL     1      44.283 -20.248   3.652  1.00  0.00     0.029 A 
HETATM   26  C   UNL     1      45.040 -19.953   4.803  1.00  0.00     0.030 A 
HETATM   27  C   UNL     1      44.826 -18.796   5.561  1.00  0.00     0.019 A 
BRANCH  25  28
HETATM   28  N   UNL     1      44.507 -21.425   2.924  1.00  0.00    -0.390 N 
HETATM   29  C   UNL     1      44.688 -22.685   3.642  1.00  0.00     0.149 C 
HETATM   30  C   UNL     1      43.810 -21.540   1.640  1.00  0.00     0.149 C 
ENDBRANCH  25  28
ENDBRANCH  19  22
ENDBRANCH  17  18
ENDBRANCH  16  17
ENDBRANCH   1  16
BRANCH  12  31
HETATM   31  O   UNL     1      38.762  -8.793  12.921  1.00  0.00    -0.356 OA
HETATM   32  C   UNL     1      37.892  -9.074  11.833  1.00  0.00     0.210 C 
ENDBRANCH  12  31
TORSDOF 6
ENDMDL
MODEL 2
REMARK VINA RESULT:      -8.9      2.852      3.730
REMARK  6 active torsions:
REMARK  status: ('A' for Active; 'I' for Inactive)
REMARK    1  A    between atoms: N_2  and  C_3 
REMARK    2  A    between atoms: C_6  and  C_7 
REMARK       I    between atoms: C_7  and  N_8 
REMARK    3  A    between atoms: N_8  and  C_9 
REMARK    4  A    between atoms: C_9  and  C_10 
REMARK    5  A    between atoms: C_10  and  C_11 
REMARK    6  A    between atoms: C_22  and  O_23 
ROOT
HETATM    1  C   UNL     1      39.434 -12.799   5.655  1.00  0.00     0.158 A 
HETATM    2  N   UNL     1      38.818 -11.721   5.154  1.00  0.00    -0.111 NA
HETATM    3  O   UNL     1      38.783 -10.842   6.237  1.00  0.00    -0.189 OA
HETATM    4  C   UNL     1      39.396 -11.476   7.285  1.00  0.00     0.223 A 
HETATM    5  C   UNL     1      39.571 -10.892   8.572  1.00  0.00     0.089 A 
HETATM    6  N   UNL     1      40.145 -11.581   9.611  1.00  0.00    -0.352 N 
HETATM    7  H   UNL     1      40.475 -12.534   9.549  1.00  0.00     0.166 HD
HETATM    8  C   UNL     1      40.209 -10.789  10.734  1.00  0.00     0.045 A 
HETATM    9  C   UNL     1      39.652  -9.556  10.399  1.00  0.00    -0.007 A 
HETATM   10  C   UNL     1      39.248  -9.634   9.037  1.00  0.00     0.048 A 
HETATM   11  C   UNL     1      40.715 -11.063  12.011  1.00  0.00     0.067 A 
HETATM   12  C   UNL     1      40.660 -10.051  12.978  1.00  0.00     0.070 A 
HETATM   13  C   UNL     1      40.105  -8.810  12.665  1.00  0.00     0.038 A 
HETATM   14  C   UNL     1      39.598  -8.551  11.382  1.00  0.00     0.016 A 
HETATM   15  N   UNL     1      39.820 -12.683   6.968  1.00  0.00    -0.203 NA
ENDROOT
BRANCH   1  16
HETATM   16  C   UNL     1      39.731 -13.989   4.818  1.00  0.00     0.103 C 
BRANCH  16  17
HETATM   17  C   UNL     1      41.211 -14.110   4.451  1.00  0.00     0.133 C 
BRANCH  17  18
HETATM   18  N   UNL     1      41.672 -15.503   4.431  1.00  0.00    -0.352 N 
HETATM   19  C   UNL     1      42.854 -15.786   3.747  1.00  0.00     0.253 C 
HETATM   20  O   UNL     1      43.571 -14.909   3.267  1.00  0.00    -0.267 OA
HETATM   21  C   UNL     1      40.959 -16.445   5.286  1.00  0.00     0.152 C 
BRANCH  19  22
HETATM   22  C   UNL     1      43.282 -17.193   3.577  1.00  0.00     0.032 A 
HETATM   23  C   UNL     1      43.061 -17.880   2.385  1.00  0.00     0.019 A 
HETATM   24  C   UNL     1      43.498 -19.205   2.252  1.00  0.00     0.030 A 
HETATM   25  C   UNL     1      44.194 -19.870   3.279  1.00  0.00     0.029 A 
HETATM   26  C   UNL     1      44.410 -19.138   4.463  1.00  0.00     0.030 A 
HETATM   27  C   UNL     1      43.974 -17.816   4.613  1.00  0.00     0.019 A 
BRANCH  25  28
HETATM   28  N   UNL     1      44.625 -21.199   3.165  1.00  0.00    -0.390 N 
HETATM   29  C   UNL     1      44.766 -22.010   4.372  1.00  0.00     0.149 C 
HETATM   30  C   UNL     1      44.171 -21.931   1.978  1.00  0.00     0.149 C 
ENDBRANCH  25  28
ENDBRANCH  19  22
ENDBRANCH  17  18
ENDBRANCH  16  17
ENDBRANCH   1  16
BRANCH  12  31
HETATM   31  O   UNL     1      41.183 -10.409  14.192  1.00  0.00    -0.356 OA
HETATM   32  C   UNL     1      42.479  -9.915  14.506  1.00  0.00     0.210 C 
ENDBRANCH  12  31
TORSDOF 6
ENDMDL
MODEL 3
REMARK VINA RESULT:      -8.8      3.383      4.762
REMARK  6 active torsions:
REMARK  status: ('A' for Active; 'I' for Inactive)
REMARK    1  A    between atoms: N_2  and  C_3 
REMARK    2  A    between atoms: C_6  and  C_7 
REMARK       I    between atoms: C_7  and  N_8 
REMARK    3  A    between atoms: N_8  and  C_9 
REMARK    4  A    between atoms: C_9  and  C_10 
REMARK    5  A    between atoms: C_10  and  C_11 
REMARK    6  A    between atoms: C_22  and  O_23 
ROOT
HETATM    1  C   UNL     1      45.039 -13.791   7.448  1.00  0.00     0.158 A 
HETATM    2  N   UNL     1      46.036 -12.927   7.226  1.00  0.00    -0.111 NA
HETATM    3  O   UNL     1      45.886 -11.997   8.255  1.00  0.00    -0.189 OA
HETATM    4  C   UNL     1      44.815 -12.403   9.007  1.00  0.00     0.223 A 
HETATM    5  C   UNL     1      44.352 -11.715  10.165  1.00  0.00     0.089 A 
HETATM    6  N   UNL     1      43.243 -12.126  10.860  1.00  0.00    -0.352 N 
HETATM    7  H   UNL     1      42.678 -12.926  10.610  1.00  0.00     0.166 HD
HETATM    8  C   UNL     1      43.022 -11.303  11.940  1.00  0.00     0.045 A 
HETATM    9  C   UNL     1      44.021 -10.331  11.927  1.00  0.00    -0.007 A 
HETATM   10  C   UNL     1      44.850 -10.596  10.802  1.00  0.00     0.048 A 
HETATM   11  C   UNL     1      42.024 -11.341  12.922  1.00  0.00     0.067 A 
HETATM   12  C   UNL     1      42.044 -10.367  13.928  1.00  0.00     0.070 A 
HETATM   13  C   UNL     1      43.034  -9.384  13.933  1.00  0.00     0.038 A 
HETATM   14  C   UNL     1      44.026  -9.355  12.940  1.00  0.00     0.016 A 
HETATM   15  N   UNL     1      44.267 -13.510   8.549  1.00  0.00    -0.203 NA
ENDROOT
BRANCH   1  16
HETATM   16  C   UNL     1      44.844 -14.994   6.600  1.00  0.00     0.103 C 
BRANCH  16  17
HETATM   17  C   UNL     1      43.391 -15.469   6.555  1.00  0.00     0.133 C 
BRANCH  17  18
HETATM   18  N   UNL     1      42.702 -15.053   5.328  1.00  0.00    -0.352 N 
HETATM   19  C   UNL     1      41.311 -15.160   5.297  1.00  0.00     0.253 C 
HETATM   20  O   UNL     1      40.646 -15.475   6.282  1.00  0.00    -0.267 OA
HETATM   21  C   UNL     1      43.509 -14.384   4.314  1.00  0.00     0.152 C 
BRANCH  19  22
HETATM   22  C   UNL     1      40.586 -14.889   4.035  1.00  0.00     0.032 A 
HETATM   23  C   UNL     1      40.419 -15.878   3.067  1.00  0.00     0.019 A 
HETATM   24  C   UNL     1      39.708 -15.592   1.894  1.00  0.00     0.030 A 
HETATM   25  C   UNL     1      39.116 -14.336   1.664  1.00  0.00     0.029 A 
HETATM   26  C   UNL     1      39.295 -13.368   2.672  1.00  0.00     0.030 A 
HETATM   27  C   UNL     1      40.007 -13.636   3.847  1.00  0.00     0.019 A 
BRANCH  25  28
HETATM   28  N   UNL     1      38.415 -14.032   0.489  1.00  0.00    -0.390 N 
HETATM   29  C   UNL     1      37.237 -13.169   0.563  1.00  0.00     0.149 C 
HETATM   30  C   UNL     1      39.217 -13.880  -0.728  1.00  0.00     0.149 C 
ENDBRANCH  25  28
ENDBRANCH  19  22
ENDBRANCH  17  18
ENDBRANCH  16  17
ENDBRANCH   1  16
BRANCH  12  31
HETATM   31  O   UNL     1      41.034 -10.489  14.846  1.00  0.00    -0.356 OA
HETATM   32  C   UNL     1      41.076  -9.618  15.969  1.00  0.00     0.210 C 
ENDBRANCH  12  31
TORSDOF 6
ENDMDL
MODEL 4
REMARK VINA RESULT:      -8.7      3.443     11.391
REMARK  6 active torsions:
REMARK  status: ('A' for Active; 'I' for Inactive)
REMARK    1  A    between atoms: N_2  and  C_3 
REMARK    2  A    between atoms: C_6  and  C_7 
REMARK       I    between atoms: C_7  and  N_8 
REMARK    3  A    between atoms: N_8  and  C_9 
REMARK    4  A    between atoms: C_9  and  C_10 
REMARK    5  A    between atoms: C_10  and  C_11 
REMARK    6  A    between atoms: C_22  and  O_23 
ROOT
HETATM    1  C   UNL     1      39.896 -14.081   2.950  1.00  0.00     0.158 A 
HETATM    2  N   UNL     1      39.549 -14.301   1.676  1.00  0.00    -0.111 NA
HETATM    3  O   UNL     1      40.241 -15.469   1.355  1.00  0.00    -0.189 OA
HETATM    4  C   UNL     1      40.930 -15.846   2.477  1.00  0.00     0.223 A 
HETATM    5  C   UNL     1      41.751 -17.008   2.551  1.00  0.00     0.089 A 
HETATM    6  N   UNL     1      42.466 -17.321   3.679  1.00  0.00    -0.352 N 
HETATM    7  H   UNL     1      42.472 -16.765   4.523  1.00  0.00     0.166 HD
HETATM    8  C   UNL     1      43.160 -18.495   3.495  1.00  0.00     0.045 A 
HETATM    9  C   UNL     1      42.881 -18.940   2.205  1.00  0.00    -0.007 A 
HETATM   10  C   UNL     1      41.997 -17.992   1.616  1.00  0.00     0.048 A 
HETATM   11  C   UNL     1      44.006 -19.196   4.364  1.00  0.00     0.067 A 
HETATM   12  C   UNL     1      44.582 -20.390   3.912  1.00  0.00     0.070 A 
HETATM   13  C   UNL     1      44.317 -20.852   2.622  1.00  0.00     0.038 A 
HETATM   14  C   UNL     1      43.471 -20.137   1.760  1.00  0.00     0.016 A 
HETATM   15  N   UNL     1      40.741 -15.022   3.487  1.00  0.00    -0.203 NA
ENDROOT
BRANCH   1  16
HETATM   16  C   UNL     1      39.343 -12.942   3.725  1.00  0.00     0.103 C 
BRANCH  16  17
HETATM   17  C   UNL     1      40.376 -11.850   4.009  1.00  0.00     0.133 C 
BRANCH  17  18
HETATM   18  N   UNL     1      40.744 -11.782   5.428  1.00  0.00    -0.352 N 
HETATM   19  C   UNL     1      39.975 -10.967   6.259  1.00  0.00     0.253 C 
HETATM   20  O   UNL     1      38.951 -10.405   5.877  1.00  0.00    -0.267 OA
HETATM   21  C   UNL     1      41.763 -12.718   5.890  1.00  0.00     0.152 C 
BRANCH  19  22
HETATM   22  C   UNL     1      40.393 -10.754   7.663  1.00  0.00     0.032 A 
HETATM   23  C   UNL     1      41.536 -10.021   7.977  1.00  0.00     0.019 A 
HETATM   24  C   UNL     1      41.890  -9.821   9.319  1.00  0.00     0.030 A 
HETATM   25  C   UNL     1      41.107 -10.310  10.380  1.00  0.00     0.029 A 
HETATM   26  C   UNL     1      39.952 -11.034  10.023  1.00  0.00     0.030 A 
HETATM   27  C   UNL     1      39.588 -11.247   8.687  1.00  0.00     0.019 A 
BRANCH  25  28
HETATM   28  N   UNL     1      41.456 -10.130  11.725  1.00  0.00    -0.390 N 
HETATM   29  C   UNL     1      41.267 -11.232  12.666  1.00  0.00     0.149 C 
HETATM   30  C   UNL     1      42.627  -9.288  11.987  1.00  0.00     0.149 C 
ENDBRANCH  25  28
ENDBRANCH  19  22
ENDBRANCH  17  18
ENDBRANCH  16  17
ENDBRANCH   1  16
BRANCH  12  31
HETATM   31  O   UNL     1      45.388 -21.007   4.832  1.00  0.00    -0.356 OA
HETATM   32  C   UNL     1      45.070 -22.351   5.167  1.00  0.00     0.210 C 
ENDBRANCH  12  31
TORSDOF 6
ENDMDL
MODEL 5
REMARK VINA RESULT:      -8.5      2.879      4.053
REMARK  6 active torsions:
REMARK  status: ('A' for Active; 'I' for Inactive)
REMARK    1  A    between atoms: N_2  and  C_3 
REMARK    2  A    between atoms: C_6  and  C_7 
REMARK       I    between atoms: C_7  and  N_8 
REMARK    3  A    between atoms: N_8  and  C_9 
REMARK    4  A    between atoms: C_9  and  C_10 
REMARK    5  A    between atoms: C_10  and  C_11 
REMARK    6  A    between atoms: C_22  and  O_23 
ROOT
HETATM    1  C   UNL     1      45.083 -13.204   7.735  1.00  0.00     0.158 A 
HETATM    2  N   UNL     1      46.264 -12.871   8.269  1.00  0.00    -0.111 NA
HETATM    3  O   UNL     1      45.911 -12.046   9.337  1.00  0.00    -0.189 OA
HETATM    4  C   UNL     1      44.543 -11.973   9.349  1.00  0.00     0.223 A 
HETATM    5  C   UNL     1      43.797 -11.230  10.308  1.00  0.00     0.089 A 
HETATM    6  N   UNL     1      42.429 -11.141  10.254  1.00  0.00    -0.352 N 
HETATM    7  H   UNL     1      41.857 -11.580   9.545  1.00  0.00     0.166 HD
HETATM    8  C   UNL     1      41.956 -10.382  11.299  1.00  0.00     0.045 A 
HETATM    9  C   UNL     1      43.062  -9.969  12.040  1.00  0.00    -0.007 A 
HETATM   10  C   UNL     1      44.217 -10.504  11.403  1.00  0.00     0.048 A 
HETATM   11  C   UNL     1      40.646 -10.031  11.647  1.00  0.00     0.067 A 
HETATM   12  C   UNL     1      40.450  -9.242  12.788  1.00  0.00     0.070 A 
HETATM   13  C   UNL     1      41.543  -8.816  13.543  1.00  0.00     0.038 A 
HETATM   14  C   UNL     1      42.852  -9.172  13.179  1.00  0.00     0.016 A 
HETATM   15  N   UNL     1      43.991 -12.679   8.383  1.00  0.00    -0.203 NA
ENDROOT
BRANCH   1  16
HETATM   16  C   UNL     1      44.980 -14.128   6.578  1.00  0.00     0.103 C 
BRANCH  16  17
HETATM   17  C   UNL     1      43.731 -15.010   6.623  1.00  0.00     0.133 C 
BRANCH  17  18
HETATM   18  N   UNL     1      42.822 -14.753   5.501  1.00  0.00    -0.352 N 
HETATM   19  C   UNL     1      42.799 -15.680   4.459  1.00  0.00     0.253 C 
HETATM   20  O   UNL     1      43.418 -16.742   4.499  1.00  0.00    -0.267 OA
HETATM   21  C   UNL     1      41.878 -13.653   5.658  1.00  0.00     0.152 C 
BRANCH  19  22
HETATM   22  C   UNL     1      42.006 -15.391   3.242  1.00  0.00     0.032 A 
HETATM   23  C   UNL     1      40.738 -15.938   3.056  1.00  0.00     0.019 A 
HETATM   24  C   UNL     1      40.007 -15.625   1.901  1.00  0.00     0.030 A 
HETATM   25  C   UNL     1      40.496 -14.741   0.922  1.00  0.00     0.029 A 
HETATM   26  C   UNL     1      41.775 -14.198   1.153  1.00  0.00     0.030 A 
HETATM   27  C   UNL     1      42.520 -14.505   2.299  1.00  0.00     0.019 A 
BRANCH  25  28
HETATM   28  N   UNL     1      39.782 -14.431  -0.243  1.00  0.00    -0.390 N 
HETATM   29  C   UNL     1      38.463 -13.811  -0.130  1.00  0.00     0.149 C 
HETATM   30  C   UNL     1      40.574 -13.990  -1.396  1.00  0.00     0.149 C 
ENDBRANCH  25  28
ENDBRANCH  19  22
ENDBRANCH  17  18
ENDBRANCH  16  17
ENDBRANCH   1  16
BRANCH  12  31
HETATM   31  O   UNL     1      39.137  -8.955  13.052  1.00  0.00    -0.356 OA
HETATM   32  C   UNL     1      38.225  -9.054  11.965  1.00  0.00     0.210 C 
ENDBRANCH  12  31
TORSDOF 6
ENDMDL
MODEL 6
REMARK VINA RESULT:      -8.4      5.301      9.333
REMARK  6 active torsions:
REMARK  status: ('A' for Active; 'I' for Inactive)
REMARK    1  A    between atoms: N_2  and  C_3 
REMARK    2  A    between atoms: C_6  and  C_7 
REMARK       I    between atoms: C_7  and  N_8 
REMARK    3  A    between atoms: N_8  and  C_9 
REMARK    4  A    between atoms: C_9  and  C_10 
REMARK    5  A    between atoms: C_10  and  C_11 
REMARK    6  A    between atoms: C_22  and  O_23 
ROOT
HETATM    1  C   UNL     1      42.340 -12.973   4.157  1.00  0.00     0.158 A 
HETATM    2  N   UNL     1      41.712 -11.806   4.340  1.00  0.00    -0.111 NA
HETATM    3  O   UNL     1      41.045 -11.610   3.131  1.00  0.00    -0.189 OA
HETATM    4  C   UNL     1      41.328 -12.691   2.339  1.00  0.00     0.223 A 
HETATM    5  C   UNL     1      40.816 -12.866   1.022  1.00  0.00     0.089 A 
HETATM    6  N   UNL     1      41.166 -13.939   0.242  1.00  0.00    -0.352 N 
HETATM    7  H   UNL     1      41.803 -14.669   0.530  1.00  0.00     0.166 HD
HETATM    8  C   UNL     1      40.524 -13.879  -0.973  1.00  0.00     0.045 A 
HETATM    9  C   UNL     1      39.743 -12.725  -0.968  1.00  0.00    -0.007 A 
HETATM   10  C   UNL     1      39.939 -12.091   0.291  1.00  0.00     0.048 A 
HETATM   11  C   UNL     1      40.570 -14.749  -2.069  1.00  0.00     0.067 A 
HETATM   12  C   UNL     1      39.793 -14.444  -3.194  1.00  0.00     0.070 A 
HETATM   13  C   UNL     1      39.005 -13.292  -3.210  1.00  0.00     0.038 A 
HETATM   14  C   UNL     1      38.972 -12.426  -2.106  1.00  0.00     0.016 A 
HETATM   15  N   UNL     1      42.118 -13.561   2.936  1.00  0.00    -0.203 NA
ENDROOT
BRANCH   1  16
HETATM   16  C   UNL     1      43.150 -13.601   5.231  1.00  0.00     0.103 C 
BRANCH  16  17
HETATM   17  C   UNL     1      42.382 -14.664   6.020  1.00  0.00     0.133 C 
BRANCH  17  18
HETATM   18  N   UNL     1      42.531 -16.005   5.446  1.00  0.00    -0.352 N 
HETATM   19  C   UNL     1      43.707 -16.703   5.725  1.00  0.00     0.253 C 
HETATM   20  O   UNL     1      44.556 -16.288   6.511  1.00  0.00    -0.267 OA
HETATM   21  C   UNL     1      41.360 -16.576   4.792  1.00  0.00     0.152 C 
BRANCH  19  22
HETATM   22  C   UNL     1      43.965 -17.997   5.054  1.00  0.00     0.032 A 
HETATM   23  C   UNL     1      44.184 -19.163   5.785  1.00  0.00     0.019 A 
HETATM   24  C   UNL     1      44.404 -20.375   5.116  1.00  0.00     0.030 A 
HETATM   25  C   UNL     1      44.379 -20.470   3.712  1.00  0.00     0.029 A 
HETATM   26  C   UNL     1      44.140 -19.273   3.009  1.00  0.00     0.030 A 
HETATM   27  C   UNL     1      43.925 -18.054   3.662  1.00  0.00     0.019 A 
BRANCH  25  28
HETATM   28  N   UNL     1      44.611 -21.673   3.030  1.00  0.00    -0.390 N 
HETATM   29  C   UNL     1      44.727 -22.915   3.791  1.00  0.00     0.149 C 
HETATM   30  C   UNL     1      43.974 -21.811   1.717  1.00  0.00     0.149 C 
ENDBRANCH  25  28
ENDBRANCH  19  22
ENDBRANCH  17  18
ENDBRANCH  16  17
ENDBRANCH   1  16
BRANCH  12  31
HETATM   31  O   UNL     1      39.898 -15.354  -4.211  1.00  0.00    -0.356 OA
HETATM   32  C   UNL     1      38.944 -16.408  -4.233  1.00  0.00     0.210 C 
ENDBRANCH  12  31
TORSDOF 6
ENDMDL
MODEL 7
REMARK VINA RESULT:      -8.3      4.180     10.817
REMARK  6 active torsions:
REMARK  status: ('A' for Active; 'I' for Inactive)
REMARK    1  A    between atoms: N_2  and  C_3 
REMARK    2  A    between atoms: C_6  and  C_7 
REMARK       I    between atoms: C_7  and  N_8 
REMARK    3  A    between atoms: N_8  and  C_9 
REMARK    4  A    between atoms: C_9  and  C_10 
REMARK    5  A    between atoms: C_10  and  C_11 
REMARK    6  A    between atoms: C_22  and  O_23 
ROOT
HETATM    1  C   UNL     1      40.301 -14.761   0.497  1.00  0.00     0.158 A 
HETATM    2  N   UNL     1      40.791 -15.173  -0.678  1.00  0.00    -0.111 NA
HETATM    3  O   UNL     1      41.665 -16.198  -0.317  1.00  0.00    -0.189 OA
HETATM    4  C   UNL     1      41.605 -16.312   1.047  1.00  0.00     0.223 A 
HETATM    5  C   UNL     1      42.350 -17.266   1.797  1.00  0.00     0.089 A 
HETATM    6  N   UNL     1      42.301 -17.312   3.167  1.00  0.00    -0.352 N 
HETATM    7  H   UNL     1      41.750 -16.686   3.739  1.00  0.00     0.166 HD
HETATM    8  C   UNL     1      43.096 -18.330   3.642  1.00  0.00     0.045 A 
HETATM    9  C   UNL     1      43.675 -18.948   2.535  1.00  0.00    -0.007 A 
HETATM   10  C   UNL     1      43.204 -18.266   1.379  1.00  0.00     0.048 A 
HETATM   11  C   UNL     1      43.346 -18.751   4.954  1.00  0.00     0.067 A 
HETATM   12  C   UNL     1      44.206 -19.840   5.150  1.00  0.00     0.070 A 
HETATM   13  C   UNL     1      44.798 -20.472   4.056  1.00  0.00     0.038 A 
HETATM   14  C   UNL     1      44.542 -20.036   2.747  1.00  0.00     0.016 A 
HETATM   15  N   UNL     1      40.770 -15.449   1.590  1.00  0.00    -0.203 NA
ENDROOT
BRANCH   1  16
HETATM   16  C   UNL     1      39.277 -13.690   0.585  1.00  0.00     0.103 C 
BRANCH  16  17
HETATM   17  C   UNL     1      39.872 -12.311   0.877  1.00  0.00     0.133 C 
BRANCH  17  18
HETATM   18  N   UNL     1      39.658 -11.890   2.265  1.00  0.00    -0.352 N 
HETATM   19  C   UNL     1      40.711 -12.058   3.165  1.00  0.00     0.253 C 
HETATM   20  O   UNL     1      41.829 -12.433   2.817  1.00  0.00    -0.267 OA
HETATM   21  C   UNL     1      38.430 -11.156   2.549  1.00  0.00     0.152 C 
BRANCH  19  22
HETATM   22  C   UNL     1      40.495 -11.783   4.603  1.00  0.00     0.032 A 
HETATM   23  C   UNL     1      39.737 -12.639   5.400  1.00  0.00     0.019 A 
HETATM   24  C   UNL     1      39.571 -12.358   6.764  1.00  0.00     0.030 A 
HETATM   25  C   UNL     1      40.177 -11.246   7.378  1.00  0.00     0.029 A 
HETATM   26  C   UNL     1      40.946 -10.413   6.542  1.00  0.00     0.030 A 
HETATM   27  C   UNL     1      41.117 -10.677   5.177  1.00  0.00     0.019 A 
BRANCH  25  28
HETATM   28  N   UNL     1      40.008 -10.946   8.736  1.00  0.00    -0.390 N 
HETATM   29  C   UNL     1      41.170 -10.551   9.530  1.00  0.00     0.149 C 
HETATM   30  C   UNL     1      38.754 -10.284   9.106  1.00  0.00     0.149 C 
ENDBRANCH  25  28
ENDBRANCH  19  22
ENDBRANCH  17  18
ENDBRANCH  16  17
ENDBRANCH   1  16
BRANCH  12  31
HETATM   31  O   UNL     1      44.384 -20.182   6.464  1.00  0.00    -0.356 OA
HETATM   32  C   UNL     1      43.737 -19.370   7.434  1.00  0.00     0.210 C 
ENDBRANCH  12  31
TORSDOF 6
ENDMDL
MODEL 8
REMARK VINA RESULT:      -8.0      3.477      4.719
REMARK  6 active torsions:
REMARK  status: ('A' for Active; 'I' for Inactive)
REMARK    1  A    between atoms: N_2  and  C_3 
REMARK    2  A    between atoms: C_6  and  C_7 
REMARK       I    between atoms: C_7  and  N_8 
REMARK    3  A    between atoms: N_8  and  C_9 
REMARK    4  A    between atoms: C_9  and  C_10 
REMARK    5  A    between atoms: C_10  and  C_11 
REMARK    6  A    between atoms: C_22  and  O_23 
ROOT
HETATM    1  C   UNL     1      44.769 -13.448   7.271  1.00  0.00     0.158 A 
HETATM    2  N   UNL     1      46.039 -13.196   7.609  1.00  0.00    -0.111 NA
HETATM    3  O   UNL     1      45.913 -12.389   8.740  1.00  0.00    -0.189 OA
HETATM    4  C   UNL     1      44.573 -12.244   8.980  1.00  0.00     0.223 A 
HETATM    5  C   UNL     1      44.037 -11.495  10.066  1.00  0.00     0.089 A 
HETATM    6  N   UNL     1      42.686 -11.332  10.242  1.00  0.00    -0.352 N 
HETATM    7  H   UNL     1      41.982 -11.716   9.628  1.00  0.00     0.166 HD
HETATM    8  C   UNL     1      42.436 -10.583  11.369  1.00  0.00     0.045 A 
HETATM    9  C   UNL     1      43.670 -10.254  11.925  1.00  0.00    -0.007 A 
HETATM   10  C   UNL     1      44.673 -10.828  11.094  1.00  0.00     0.048 A 
HETATM   11  C   UNL     1      41.223 -10.175  11.937  1.00  0.00     0.067 A 
HETATM   12  C   UNL     1      41.262  -9.414  13.112  1.00  0.00     0.070 A 
HETATM   13  C   UNL     1      42.487  -9.071  13.685  1.00  0.00     0.038 A 
HETATM   14  C   UNL     1      43.696  -9.483  13.102  1.00  0.00     0.016 A 
HETATM   15  N   UNL     1      43.829 -12.888   8.103  1.00  0.00    -0.203 NA
ENDROOT
BRANCH   1  16
HETATM   16  C   UNL     1      44.425 -14.328   6.126  1.00  0.00     0.103 C 
BRANCH  16  17
HETATM   17  C   UNL     1      42.919 -14.425   5.874  1.00  0.00     0.133 C 
BRANCH  17  18
HETATM   18  N   UNL     1      42.572 -14.225   4.463  1.00  0.00    -0.352 N 
HETATM   19  C   UNL     1      41.219 -14.218   4.122  1.00  0.00     0.253 C 
HETATM   20  O   UNL     1      40.321 -14.259   4.962  1.00  0.00    -0.267 OA
HETATM   21  C   UNL     1      43.659 -13.858   3.563  1.00  0.00     0.152 C 
BRANCH  19  22
HETATM   22  C   UNL     1      40.825 -14.163   2.696  1.00  0.00     0.032 A 
HETATM   23  C   UNL     1      40.820 -15.306   1.900  1.00  0.00     0.019 A 
HETATM   24  C   UNL     1      40.420 -15.221   0.559  1.00  0.00     0.030 A 
HETATM   25  C   UNL     1      39.984 -14.013  -0.016  1.00  0.00     0.029 A 
HETATM   26  C   UNL     1      39.990 -12.882   0.825  1.00  0.00     0.030 A 
HETATM   27  C   UNL     1      40.392 -12.951   2.164  1.00  0.00     0.019 A 
BRANCH  25  28
HETATM   28  N   UNL     1      39.595 -13.910  -1.359  1.00  0.00    -0.390 N 
HETATM   29  C   UNL     1      40.404 -14.560  -2.388  1.00  0.00     0.149 C 
HETATM   30  C   UNL     1      38.153 -13.901  -1.621  1.00  0.00     0.149 C 
ENDBRANCH  25  28
ENDBRANCH  19  22
ENDBRANCH  17  18
ENDBRANCH  16  17
ENDBRANCH   1  16
BRANCH  12  31
HETATM   31  O   UNL     1      40.029  -9.068  13.597  1.00  0.00    -0.356 OA
HETATM   32  C   UNL     1      39.043  -8.699  12.641  1.00  0.00     0.210 C 
ENDBRANCH  12  31
TORSDOF 6
ENDMDL
MODEL 9
REMARK VINA RESULT:      -8.0      2.844      3.908
REMARK  6 active torsions:
REMARK  status: ('A' for Active; 'I' for Inactive)
REMARK    1  A    between atoms: N_2  and  C_3 
REMARK    2  A    between atoms: C_6  and  C_7 
REMARK       I    between atoms: C_7  and  N_8 
REMARK    3  A    between atoms: N_8  and  C_9 
REMARK    4  A    between atoms: C_9  and  C_10 
REMARK    5  A    between atoms: C_10  and  C_11 
REMARK    6  A    between atoms: C_22  and  O_23 
ROOT
HETATM    1  C   UNL     1      40.016 -11.774   5.414  1.00  0.00     0.158 A 
HETATM    2  N   UNL     1      38.888 -11.064   5.295  1.00  0.00    -0.111 NA
HETATM    3  O   UNL     1      38.755 -10.464   6.547  1.00  0.00    -0.189 OA
HETATM    4  C   UNL     1      39.830 -10.863   7.297  1.00  0.00     0.223 A 
HETATM    5  C   UNL     1      40.060 -10.447   8.639  1.00  0.00     0.089 A 
HETATM    6  N   UNL     1      41.122 -10.911   9.373  1.00  0.00    -0.352 N 
HETATM    7  H   UNL     1      41.805 -11.573   9.030  1.00  0.00     0.166 HD
HETATM    8  C   UNL     1      41.123 -10.344  10.626  1.00  0.00     0.045 A 
HETATM    9  C   UNL     1      40.021  -9.495  10.694  1.00  0.00    -0.007 A 
HETATM   10  C   UNL     1      39.354  -9.572   9.439  1.00  0.00     0.048 A 
HETATM   11  C   UNL     1      42.008 -10.513  11.699  1.00  0.00     0.067 A 
HETATM   12  C   UNL     1      41.771  -9.792  12.876  1.00  0.00     0.070 A 
HETATM   13  C   UNL     1      40.672  -8.937  12.965  1.00  0.00     0.038 A 
HETATM   14  C   UNL     1      39.791  -8.781  11.884  1.00  0.00     0.016 A 
HETATM   15  N   UNL     1      40.638 -11.666   6.634  1.00  0.00    -0.203 NA
ENDROOT
BRANCH   1  16
HETATM   16  C   UNL     1      40.574 -12.551   4.279  1.00  0.00     0.103 C 
BRANCH  16  17
HETATM   17  C   UNL     1      42.001 -13.041   4.530  1.00  0.00     0.133 C 
BRANCH  17  18
HETATM   18  N   UNL     1      42.058 -14.478   4.818  1.00  0.00    -0.352 N 
HETATM   19  C   UNL     1      43.141 -14.948   5.562  1.00  0.00     0.253 C 
HETATM   20  O   UNL     1      43.973 -14.199   6.072  1.00  0.00    -0.267 OA
HETATM   21  C   UNL     1      40.883 -15.268   4.469  1.00  0.00     0.152 C 
BRANCH  19  22
HETATM   22  C   UNL     1      43.317 -16.405   5.755  1.00  0.00     0.032 A 
HETATM   23  C   UNL     1      43.136 -16.999   7.003  1.00  0.00     0.019 A 
HETATM   24  C   UNL     1      43.290 -18.385   7.145  1.00  0.00     0.030 A 
HETATM   25  C   UNL     1      43.593 -19.220   6.053  1.00  0.00     0.029 A 
HETATM   26  C   UNL     1      43.755 -18.584   4.806  1.00  0.00     0.030 A 
HETATM   27  C   UNL     1      43.610 -17.200   4.650  1.00  0.00     0.019 A 
BRANCH  25  28
HETATM   28  N   UNL     1      43.764 -20.605   6.183  1.00  0.00    -0.390 N 
HETATM   29  C   UNL     1      44.730 -21.289   5.325  1.00  0.00     0.149 C 
HETATM   30  C   UNL     1      43.645 -21.152   7.538  1.00  0.00     0.149 C 
ENDBRANCH  25  28
ENDBRANCH  19  22
ENDBRANCH  17  18
ENDBRANCH  16  17
ENDBRANCH   1  16
BRANCH  12  31
HETATM   31  O   UNL     1      42.691 -10.016  13.865  1.00  0.00    -0.356 OA
HETATM   32  C   UNL     1      42.220  -9.970  15.205  1.00  0.00     0.210 C 
ENDBRANCH  12  31
TORSDOF 6
ENDMDL
MODEL 10
REMARK VINA RESULT:      -7.7      3.495      6.015
REMARK  6 active torsions:
REMARK  status: ('A' for Active; 'I' for Inactive)
REMARK    1  A    between atoms: N_2  and  C_3 
REMARK    2  A    between atoms: C_6  and  C_7 
REMARK       I    between atoms: C_7  and  N_8 
REMARK    3  A    between atoms: N_8  and  C_9 
REMARK    4  A    between atoms: C_9  and  C_10 
REMARK    5  A    between atoms: C_10  and  C_11 
REMARK    6  A    between atoms: C_22  and  O_23 
ROOT
HETATM    1  C   UNL     1      44.746 -14.173   7.515  1.00  0.00     0.158 A 
HETATM    2  N   UNL     1      45.703 -13.315   7.144  1.00  0.00    -0.111 NA
HETATM    3  O   UNL     1      45.616 -12.305   8.102  1.00  0.00    -0.189 OA
HETATM    4  C   UNL     1      44.618 -12.662   8.969  1.00  0.00     0.223 A 
HETATM    5  C   UNL     1      44.234 -11.887  10.100  1.00  0.00     0.089 A 
HETATM    6  N   UNL     1      43.193 -12.256  10.915  1.00  0.00    -0.352 N 
HETATM    7  H   UNL     1      42.627 -13.081  10.777  1.00  0.00     0.166 HD
HETATM    8  C   UNL     1      43.041 -11.348  11.938  1.00  0.00     0.045 A 
HETATM    9  C   UNL     1      44.015 -10.367  11.764  1.00  0.00    -0.007 A 
HETATM   10  C   UNL     1      44.757 -10.712  10.600  1.00  0.00     0.048 A 
HETATM   11  C   UNL     1      42.125 -11.319  12.997  1.00  0.00     0.067 A 
HETATM   12  C   UNL     1      42.205 -10.264  13.915  1.00  0.00     0.070 A 
HETATM   13  C   UNL     1      43.171  -9.270  13.759  1.00  0.00     0.038 A 
HETATM   14  C   UNL     1      44.080  -9.309  12.690  1.00  0.00     0.016 A 
HETATM   15  N   UNL     1      44.058 -13.812   8.649  1.00  0.00    -0.203 NA
ENDROOT
BRANCH   1  16
HETATM   16  C   UNL     1      44.510 -15.445   6.788  1.00  0.00     0.103 C 
BRANCH  16  17
HETATM   17  C   UNL     1      44.145 -15.237   5.316  1.00  0.00     0.133 C 
BRANCH  17  18
HETATM   18  N   UNL     1      42.863 -14.545   5.148  1.00  0.00    -0.352 N 
HETATM   19  C   UNL     1      42.788 -13.544   4.180  1.00  0.00     0.253 C 
HETATM   20  O   UNL     1      43.707 -13.304   3.399  1.00  0.00    -0.267 OA
HETATM   21  C   UNL     1      41.721 -15.091   5.872  1.00  0.00     0.152 C 
BRANCH  19  22
HETATM   22  C   UNL     1      41.561 -12.723   4.072  1.00  0.00     0.032 A 
HETATM   23  C   UNL     1      41.376 -11.588   4.858  1.00  0.00     0.019 A 
HETATM   24  C   UNL     1      40.211 -10.821   4.714  1.00  0.00     0.030 A 
HETATM   25  C   UNL     1      39.219 -11.138   3.767  1.00  0.00     0.029 A 
HETATM   26  C   UNL     1      39.449 -12.284   2.981  1.00  0.00     0.030 A 
HETATM   27  C   UNL     1      40.605 -13.063   3.117  1.00  0.00     0.019 A 
BRANCH  25  28
HETATM   28  N   UNL     1      38.044 -10.388   3.622  1.00  0.00    -0.390 N 
HETATM   29  C   UNL     1      37.902  -9.133   4.357  1.00  0.00     0.149 C 
HETATM   30  C   UNL     1      37.423 -10.400   2.294  1.00  0.00     0.149 C 
ENDBRANCH  25  28
ENDBRANCH  19  22
ENDBRANCH  17  18
ENDBRANCH  16  17
ENDBRANCH   1  16
BRANCH  12  31
HETATM   31  O   UNL     1      41.275 -10.324  14.919  1.00  0.00    -0.356 OA
HETATM   32  C   UNL     1      41.376  -9.350  15.949  1.00  0.00     0.210 C 
ENDBRANCH  12  31
TORSDOF 6
ENDMDL
