MODEL 1
REMARK VINA RESULT:      -9.8      0.000      0.000
REMARK  7 active torsions:
REMARK  status: ('A' for Active; 'I' for Inactive)
REMARK    1  A    between atoms: C_2  and  C_3 
REMARK    2  A    between atoms: C_3  and  N_4 
REMARK    3  A    between atoms: C_8  and  C_9 
REMARK    4  A    between atoms: C_8  and  C_27 
REMARK    5  A    between atoms: N_12  and  C_14 
REMARK    6  A    between atoms: C_14  and  C_15 
REMARK    7  A    between atoms: C_27  and  C_28 
ROOT
HETATM    1  N   UNL     1      42.426 -15.941   5.028  1.00  0.00    -0.268 N 
HETATM    2  C   UNL     1      41.981 -17.181   5.362  1.00  0.00     0.326 C 
HETATM    3  O   UNL     1      41.746 -17.618   6.473  1.00  0.00    -0.247 OA
HETATM    4  N   UNL     1      41.824 -17.908   4.203  1.00  0.00    -0.324 N 
HETATM    5  C   UNL     1      42.434 -17.261   3.049  1.00  0.00     0.123 C 
HETATM    6  C   UNL     1      42.609 -15.860   3.678  1.00  0.00     0.257 C 
HETATM    7  O   UNL     1      42.924 -14.852   3.060  1.00  0.00    -0.270 OA
HETATM    8  H   UNL     1      41.665 -18.909   4.283  1.00  0.00     0.165 HD
ENDROOT
BRANCH   5   9
HETATM    9  C   UNL     1      41.499 -17.371   1.799  1.00  0.00     0.027 C 
HETATM   10  C   UNL     1      42.012 -16.779   0.475  1.00  0.00     0.035 C 
HETATM   11  C   UNL     1      41.840 -15.276   0.296  1.00  0.00     0.235 C 
HETATM   12  N   UNL     1      40.452 -14.811   0.661  1.00  0.00    -0.067 N 
HETATM   13  H   UNL     1      39.836 -15.091  -0.112  1.00  0.00     0.280 HD
HETATM   14  C   UNL     1      39.888 -15.385   1.933  1.00  0.00     0.235 C 
HETATM   15  C   UNL     1      40.051 -16.890   1.997  1.00  0.00     0.035 C 
BRANCH  12  16
HETATM   16  C   UNL     1      40.373 -13.289   0.742  1.00  0.00     0.273 C 
BRANCH  16  17
HETATM   17  C   UNL     1      40.989 -12.561  -0.419  1.00  0.00    -0.030 A 
HETATM   18  C   UNL     1      40.366 -12.555  -1.675  1.00  0.00     0.048 A 
HETATM   19  C   UNL     1      40.952 -11.870  -2.741  1.00  0.00     0.102 A 
HETATM   20  C   UNL     1      42.175 -11.219  -2.575  1.00  0.00     0.102 A 
HETATM   21  O   UNL     1      40.264 -11.885  -3.926  1.00  0.00    -0.346 OA
HETATM   22  O   UNL     1      42.818 -10.554  -3.585  1.00  0.00    -0.346 OA
HETATM   23  C   UNL     1      42.797 -11.212  -1.331  1.00  0.00     0.040 A 
HETATM   24  C   UNL     1      42.263 -10.872  -4.868  1.00  0.00     0.202 C 
HETATM   25  C   UNL     1      40.743 -10.864  -4.814  1.00  0.00     0.202 C 
HETATM   26  C   UNL     1      42.208 -11.880  -0.255  1.00  0.00     0.012 A 
ENDBRANCH  16  17
ENDBRANCH  12  16
ENDBRANCH   5   9
BRANCH   5  27
HETATM   27  C   UNL     1      43.884 -17.792   2.828  1.00  0.00     0.080 C 
BRANCH  27  28
HETATM   28  C   UNL     1      44.044 -19.294   2.889  1.00  0.00    -0.052 A 
HETATM   29  C   UNL     1      44.621 -19.919   4.001  1.00  0.00     0.049 A 
HETATM   30  C   UNL     1      44.756 -21.305   4.031  1.00  0.00     0.116 A 
HETATM   31  F   UNL     1      45.319 -21.883   5.101  1.00  0.00    -0.206 F 
HETATM   32  C   UNL     1      44.319 -22.093   2.975  1.00  0.00     0.042 A 
HETATM   33  C   UNL     1      43.733 -21.486   1.867  1.00  0.00     0.003 A 
HETATM   34  C   UNL     1      43.595 -20.095   1.824  1.00  0.00     0.007 A 
ENDBRANCH  27  28
ENDBRANCH   5  27
BRANCH   1  35
HETATM   35  C   UNL     1      42.752 -14.898   5.990  1.00  0.00     0.140 C 
BRANCH  35  36
HETATM   36  C   UNL     1      44.247 -14.816   6.341  1.00  0.00    -0.004 C 
HETATM   37  C   UNL     1      44.785 -16.141   6.881  1.00  0.00     0.011 C 
HETATM   38  C   UNL     1      44.471 -13.717   7.383  1.00  0.00     0.011 C 
ENDBRANCH  35  36
ENDBRANCH   1  35
TORSDOF 7
ENDMDL
MODEL 2
REMARK VINA RESULT:      -9.6      2.697      4.298
REMARK  7 active torsions:
REMARK  status: ('A' for Active; 'I' for Inactive)
REMARK    1  A    between atoms: C_2  and  C_3 
REMARK    2  A    between atoms: C_3  and  N_4 
REMARK    3  A    between atoms: C_8  and  C_9 
REMARK    4  A    between atoms: C_8  and  C_27 
REMARK    5  A    between atoms: N_12  and  C_14 
REMARK    6  A    between atoms: C_14  and  C_15 
REMARK    7  A    between atoms: C_27  and  C_28 
ROOT
HETATM    1  N   UNL     1      42.447 -16.035   5.023  1.00  0.00    -0.268 N 
HETATM    2  C   UNL     1      41.992 -17.290   5.285  1.00  0.00     0.326 C 
HETATM    3  O   UNL     1      41.782 -17.797   6.371  1.00  0.00    -0.247 OA
HETATM    4  N   UNL     1      41.793 -17.935   4.085  1.00  0.00    -0.324 N 
HETATM    5  C   UNL     1      42.380 -17.219   2.960  1.00  0.00     0.123 C 
HETATM    6  C   UNL     1      42.594 -15.867   3.677  1.00  0.00     0.257 C 
HETATM    7  O   UNL     1      42.907 -14.823   3.118  1.00  0.00    -0.270 OA
HETATM    8  H   UNL     1      41.620 -18.936   4.103  1.00  0.00     0.165 HD
ENDROOT
BRANCH   5   9
HETATM    9  C   UNL     1      41.410 -17.232   1.733  1.00  0.00     0.027 C 
HETATM   10  C   UNL     1      41.935 -16.656   0.406  1.00  0.00     0.035 C 
HETATM   11  C   UNL     1      41.876 -15.141   0.259  1.00  0.00     0.235 C 
HETATM   12  N   UNL     1      40.537 -14.578   0.668  1.00  0.00    -0.067 N 
HETATM   13  H   UNL     1      39.883 -14.794  -0.094  1.00  0.00     0.280 HD
HETATM   14  C   UNL     1      39.961 -15.132   1.943  1.00  0.00     0.235 C 
HETATM   15  C   UNL     1      40.008 -16.645   1.976  1.00  0.00     0.035 C 
BRANCH  12  16
HETATM   16  C   UNL     1      40.579 -13.056   0.777  1.00  0.00     0.273 C 
BRANCH  16  17
HETATM   17  C   UNL     1      40.184 -12.507   2.118  1.00  0.00    -0.030 A 
HETATM   18  C   UNL     1      41.119 -12.409   3.158  1.00  0.00     0.048 A 
HETATM   19  C   UNL     1      40.735 -11.893   4.397  1.00  0.00     0.102 A 
HETATM   20  C   UNL     1      39.413 -11.505   4.621  1.00  0.00     0.102 A 
HETATM   21  O   UNL     1      41.716 -11.800   5.349  1.00  0.00    -0.346 OA
HETATM   22  O   UNL     1      38.963 -11.019   5.819  1.00  0.00    -0.346 OA
HETATM   23  C   UNL     1      38.479 -11.591   3.594  1.00  0.00     0.040 A 
HETATM   24  C   UNL     1      39.905 -11.253   6.875  1.00  0.00     0.202 C 
HETATM   25  C   UNL     1      41.318 -10.928   6.417  1.00  0.00     0.202 C 
HETATM   26  C   UNL     1      38.860 -12.089   2.347  1.00  0.00     0.012 A 
ENDBRANCH  16  17
ENDBRANCH  12  16
ENDBRANCH   5   9
BRANCH   5  27
HETATM   27  C   UNL     1      43.816 -17.754   2.663  1.00  0.00     0.080 C 
BRANCH  27  28
HETATM   28  C   UNL     1      43.994 -19.249   2.793  1.00  0.00    -0.052 A 
HETATM   29  C   UNL     1      44.589 -19.815   3.927  1.00  0.00     0.049 A 
HETATM   30  C   UNL     1      44.740 -21.196   4.021  1.00  0.00     0.116 A 
HETATM   31  F   UNL     1      45.321 -21.716   5.110  1.00  0.00    -0.206 F 
HETATM   32  C   UNL     1      44.302 -22.037   3.008  1.00  0.00     0.042 A 
HETATM   33  C   UNL     1      43.697 -21.490   1.879  1.00  0.00     0.003 A 
HETATM   34  C   UNL     1      43.543 -20.105   1.772  1.00  0.00     0.007 A 
ENDBRANCH  27  28
ENDBRANCH   5  27
BRANCH   1  35
HETATM   35  C   UNL     1      42.815 -15.065   6.042  1.00  0.00     0.140 C 
BRANCH  35  36
HETATM   36  C   UNL     1      44.317 -15.043   6.374  1.00  0.00    -0.004 C 
HETATM   37  C   UNL     1      44.804 -16.385   6.924  1.00  0.00     0.011 C 
HETATM   38  C   UNL     1      44.603 -13.943   7.398  1.00  0.00     0.011 C 
ENDBRANCH  35  36
ENDBRANCH   1  35
TORSDOF 7
ENDMDL
MODEL 3
REMARK VINA RESULT:      -9.5      2.235      2.620
REMARK  7 active torsions:
REMARK  status: ('A' for Active; 'I' for Inactive)
REMARK    1  A    between atoms: C_2  and  C_3 
REMARK    2  A    between atoms: C_3  and  N_4 
REMARK    3  A    between atoms: C_8  and  C_9 
REMARK    4  A    between atoms: C_8  and  C_27 
REMARK    5  A    between atoms: N_12  and  C_14 
REMARK    6  A    between atoms: C_14  and  C_15 
REMARK    7  A    between atoms: C_27  and  C_28 
ROOT
HETATM    1  N   UNL     1      42.310 -15.769   5.031  1.00  0.00    -0.268 N 
HETATM    2  C   UNL     1      41.924 -16.993   5.478  1.00  0.00     0.326 C 
HETATM    3  O   UNL     1      41.700 -17.335   6.625  1.00  0.00    -0.247 OA
HETATM    4  N   UNL     1      41.816 -17.834   4.392  1.00  0.00    -0.324 N 
HETATM    5  C   UNL     1      42.404 -17.268   3.186  1.00  0.00     0.123 C 
HETATM    6  C   UNL     1      42.503 -15.807   3.681  1.00  0.00     0.257 C 
HETATM    7  O   UNL     1      42.773 -14.847   2.971  1.00  0.00    -0.270 OA
HETATM    8  H   UNL     1      41.705 -18.829   4.567  1.00  0.00     0.165 HD
ENDROOT
BRANCH   5   9
HETATM    9  C   UNL     1      41.489 -17.543   1.947  1.00  0.00     0.027 C 
HETATM   10  C   UNL     1      41.982 -17.046   0.577  1.00  0.00     0.035 C 
HETATM   11  C   UNL     1      41.729 -15.577   0.261  1.00  0.00     0.235 C 
HETATM   12  N   UNL     1      40.313 -15.159   0.577  1.00  0.00    -0.067 N 
HETATM   13  H   UNL     1      39.722 -15.542  -0.171  1.00  0.00     0.280 HD
HETATM   14  C   UNL     1      39.769 -15.647   1.892  1.00  0.00     0.235 C 
HETATM   15  C   UNL     1      40.015 -17.128   2.093  1.00  0.00     0.035 C 
BRANCH  12  16
HETATM   16  C   UNL     1      40.150 -13.643   0.518  1.00  0.00     0.273 C 
BRANCH  16  17
HETATM   17  C   UNL     1      39.153 -13.153  -0.493  1.00  0.00    -0.030 A 
HETATM   18  C   UNL     1      38.872 -13.899  -1.646  1.00  0.00     0.048 A 
HETATM   19  C   UNL     1      37.940 -13.429  -2.573  1.00  0.00     0.102 A 
HETATM   20  C   UNL     1      37.309 -12.199  -2.378  1.00  0.00     0.102 A 
HETATM   21  O   UNL     1      37.699 -14.233  -3.655  1.00  0.00    -0.346 OA
HETATM   22  O   UNL     1      36.408 -11.667  -3.260  1.00  0.00    -0.346 OA
HETATM   23  C   UNL     1      37.574 -11.455  -1.233  1.00  0.00     0.040 A 
HETATM   24  C   UNL     1      36.434 -12.347  -4.522  1.00  0.00     0.202 C 
HETATM   25  C   UNL     1      36.485 -13.853  -4.320  1.00  0.00     0.202 C 
HETATM   26  C   UNL     1      38.492 -11.927  -0.293  1.00  0.00     0.012 A 
ENDBRANCH  16  17
ENDBRANCH  12  16
ENDBRANCH   5   9
BRANCH   5  27
HETATM   27  C   UNL     1      43.882 -17.743   3.025  1.00  0.00     0.080 C 
BRANCH  27  28
HETATM   28  C   UNL     1      44.102 -19.235   3.136  1.00  0.00    -0.052 A 
HETATM   29  C   UNL     1      43.846 -20.090   2.057  1.00  0.00     0.049 A 
HETATM   30  C   UNL     1      44.057 -21.460   2.187  1.00  0.00     0.116 A 
HETATM   31  F   UNL     1      43.798 -22.262   1.146  1.00  0.00    -0.206 F 
HETATM   32  C   UNL     1      44.530 -22.005   3.373  1.00  0.00     0.042 A 
HETATM   33  C   UNL     1      44.799 -21.166   4.451  1.00  0.00     0.003 A 
HETATM   34  C   UNL     1      44.588 -19.789   4.333  1.00  0.00     0.007 A 
ENDBRANCH  27  28
ENDBRANCH   5  27
BRANCH   1  35
HETATM   35  C   UNL     1      42.573 -14.625   5.891  1.00  0.00     0.140 C 
BRANCH  35  36
HETATM   36  C   UNL     1      44.057 -14.443   6.254  1.00  0.00    -0.004 C 
HETATM   37  C   UNL     1      44.708 -15.756   6.690  1.00  0.00     0.011 C 
HETATM   38  C   UNL     1      44.189 -13.414   7.380  1.00  0.00     0.011 C 
ENDBRANCH  35  36
ENDBRANCH   1  35
TORSDOF 7
ENDMDL
MODEL 4
REMARK VINA RESULT:      -9.2      2.370      2.915
REMARK  7 active torsions:
REMARK  status: ('A' for Active; 'I' for Inactive)
REMARK    1  A    between atoms: C_2  and  C_3 
REMARK    2  A    between atoms: C_3  and  N_4 
REMARK    3  A    between atoms: C_8  and  C_9 
REMARK    4  A    between atoms: C_8  and  C_27 
REMARK    5  A    between atoms: N_12  and  C_14 
REMARK    6  A    between atoms: C_14  and  C_15 
REMARK    7  A    between atoms: C_27  and  C_28 
ROOT
HETATM    1  N   UNL     1      42.266 -15.123   4.705  1.00  0.00    -0.268 N 
HETATM    2  C   UNL     1      41.918 -16.296   5.298  1.00  0.00     0.326 C 
HETATM    3  O   UNL     1      41.759 -16.516   6.484  1.00  0.00    -0.247 OA
HETATM    4  N   UNL     1      41.763 -17.246   4.313  1.00  0.00    -0.324 N 
HETATM    5  C   UNL     1      42.280 -16.807   3.024  1.00  0.00     0.123 C 
HETATM    6  C   UNL     1      42.387 -15.301   3.357  1.00  0.00     0.257 C 
HETATM    7  O   UNL     1      42.609 -14.419   2.538  1.00  0.00    -0.270 OA
HETATM    8  H   UNL     1      41.674 -18.218   4.596  1.00  0.00     0.165 HD
ENDROOT
BRANCH   5   9
HETATM    9  C   UNL     1      41.304 -17.216   1.872  1.00  0.00     0.027 C 
HETATM   10  C   UNL     1      41.724 -16.873   0.432  1.00  0.00     0.035 C 
HETATM   11  C   UNL     1      41.447 -15.448  -0.030  1.00  0.00     0.235 C 
HETATM   12  N   UNL     1      40.048 -14.998   0.310  1.00  0.00    -0.067 N 
HETATM   13  H   UNL     1      39.420 -15.459  -0.360  1.00  0.00     0.280 HD
HETATM   14  C   UNL     1      39.574 -15.337   1.697  1.00  0.00     0.235 C 
HETATM   15  C   UNL     1      39.837 -16.787   2.047  1.00  0.00     0.035 C 
BRANCH  12  16
HETATM   16  C   UNL     1      39.873 -13.496   0.093  1.00  0.00     0.273 C 
BRANCH  16  17
HETATM   17  C   UNL     1      38.872 -13.122  -0.962  1.00  0.00    -0.030 A 
HETATM   18  C   UNL     1      38.548 -14.013  -1.994  1.00  0.00     0.048 A 
HETATM   19  C   UNL     1      37.612 -13.648  -2.964  1.00  0.00     0.102 A 
HETATM   20  C   UNL     1      37.021 -12.384  -2.935  1.00  0.00     0.102 A 
HETATM   21  O   UNL     1      37.326 -14.588  -3.918  1.00  0.00    -0.346 OA
HETATM   22  O   UNL     1      36.119 -11.953  -3.870  1.00  0.00    -0.346 OA
HETATM   23  C   UNL     1      37.331 -11.495  -1.910  1.00  0.00     0.040 A 
HETATM   24  C   UNL     1      36.101 -12.803  -5.023  1.00  0.00     0.202 C 
HETATM   25  C   UNL     1      36.112 -14.267  -4.613  1.00  0.00     0.202 C 
HETATM   26  C   UNL     1      38.252 -11.860  -0.927  1.00  0.00     0.012 A 
ENDBRANCH  16  17
ENDBRANCH  12  16
ENDBRANCH   5   9
BRANCH   5  27
HETATM   27  C   UNL     1      43.753 -17.288   2.835  1.00  0.00     0.080 C 
BRANCH  27  28
HETATM   28  C   UNL     1      43.966 -18.782   2.918  1.00  0.00    -0.052 A 
HETATM   29  C   UNL     1      44.492 -19.378   4.070  1.00  0.00     0.049 A 
HETATM   30  C   UNL     1      44.678 -20.757   4.120  1.00  0.00     0.116 A 
HETATM   31  F   UNL     1      45.192 -21.307   5.228  1.00  0.00    -0.206 F 
HETATM   32  C   UNL     1      44.341 -21.567   3.044  1.00  0.00     0.042 A 
HETATM   33  C   UNL     1      43.806 -20.989   1.895  1.00  0.00     0.003 A 
HETATM   34  C   UNL     1      43.618 -19.605   1.833  1.00  0.00     0.007 A 
ENDBRANCH  27  28
ENDBRANCH   5  27
BRANCH   1  35
HETATM   35  C   UNL     1      42.560 -13.894   5.425  1.00  0.00     0.140 C 
BRANCH  35  36
HETATM   36  C   UNL     1      41.310 -13.120   5.880  1.00  0.00    -0.004 C 
HETATM   37  C   UNL     1      40.338 -12.871   4.726  1.00  0.00     0.011 C 
HETATM   38  C   UNL     1      41.727 -11.779   6.489  1.00  0.00     0.011 C 
ENDBRANCH  35  36
ENDBRANCH   1  35
TORSDOF 7
ENDMDL
MODEL 5
REMARK VINA RESULT:      -9.1      3.638      7.893
REMARK  7 active torsions:
REMARK  status: ('A' for Active; 'I' for Inactive)
REMARK    1  A    between atoms: C_2  and  C_3 
REMARK    2  A    between atoms: C_3  and  N_4 
REMARK    3  A    between atoms: C_8  and  C_9 
REMARK    4  A    between atoms: C_8  and  C_27 
REMARK    5  A    between atoms: N_12  and  C_14 
REMARK    6  A    between atoms: C_14  and  C_15 
REMARK    7  A    between atoms: C_27  and  C_28 
ROOT
HETATM    1  N   UNL     1      40.361 -15.431   1.736  1.00  0.00    -0.268 N 
HETATM    2  C   UNL     1      41.397 -15.934   1.013  1.00  0.00     0.326 C 
HETATM    3  O   UNL     1      41.431 -16.174  -0.180  1.00  0.00    -0.247 OA
HETATM    4  N   UNL     1      42.457 -16.142   1.868  1.00  0.00    -0.324 N 
HETATM    5  C   UNL     1      42.073 -16.045   3.270  1.00  0.00     0.123 C 
HETATM    6  C   UNL     1      40.708 -15.352   3.053  1.00  0.00     0.257 C 
HETATM    7  O   UNL     1      40.023 -14.865   3.943  1.00  0.00    -0.270 OA
HETATM    8  H   UNL     1      43.251 -16.675   1.525  1.00  0.00     0.165 HD
ENDROOT
BRANCH   5   9
HETATM    9  C   UNL     1      43.153 -15.257   4.082  1.00  0.00     0.027 C 
HETATM   10  C   UNL     1      42.948 -15.134   5.602  1.00  0.00     0.035 C 
HETATM   11  C   UNL     1      42.000 -14.037   6.069  1.00  0.00     0.235 C 
HETATM   12  N   UNL     1      42.275 -12.717   5.393  1.00  0.00    -0.067 N 
HETATM   13  H   UNL     1      43.120 -12.333   5.834  1.00  0.00     0.280 HD
HETATM   14  C   UNL     1      42.515 -12.783   3.909  1.00  0.00     0.235 C 
HETATM   15  C   UNL     1      43.515 -13.861   3.544  1.00  0.00     0.035 C 
BRANCH  12  16
HETATM   16  C   UNL     1      41.160 -11.708   5.658  1.00  0.00     0.273 C 
BRANCH  16  17
HETATM   17  C   UNL     1      40.993 -11.313   7.097  1.00  0.00    -0.030 A 
HETATM   18  C   UNL     1      42.102 -10.964   7.881  1.00  0.00     0.048 A 
HETATM   19  C   UNL     1      41.926 -10.597   9.216  1.00  0.00     0.102 A 
HETATM   20  C   UNL     1      40.654 -10.608   9.790  1.00  0.00     0.102 A 
HETATM   21  O   UNL     1      43.056 -10.239   9.903  1.00  0.00    -0.346 OA
HETATM   22  O   UNL     1      40.415 -10.287  11.099  1.00  0.00    -0.346 OA
HETATM   23  C   UNL     1      39.546 -10.945   9.019  1.00  0.00     0.040 A 
HETATM   24  C   UNL     1      41.625 -10.255  11.867  1.00  0.00     0.202 C 
HETATM   25  C   UNL     1      42.726  -9.532  11.108  1.00  0.00     0.202 C 
HETATM   26  C   UNL     1      39.712 -11.296   7.678  1.00  0.00     0.012 A 
ENDBRANCH  16  17
ENDBRANCH  12  16
ENDBRANCH   5   9
BRANCH   5  27
HETATM   27  C   UNL     1      41.727 -17.455   3.840  1.00  0.00     0.080 C 
BRANCH  27  28
HETATM   28  C   UNL     1      42.798 -18.508   3.667  1.00  0.00    -0.052 A 
HETATM   29  C   UNL     1      42.884 -19.272   2.497  1.00  0.00     0.049 A 
HETATM   30  C   UNL     1      43.881 -20.235   2.363  1.00  0.00     0.116 A 
HETATM   31  F   UNL     1      43.940 -20.962   1.240  1.00  0.00    -0.206 F 
HETATM   32  C   UNL     1      44.810 -20.453   3.372  1.00  0.00     0.042 A 
HETATM   33  C   UNL     1      44.744 -19.693   4.537  1.00  0.00     0.003 A 
HETATM   34  C   UNL     1      43.745 -18.725   4.683  1.00  0.00     0.007 A 
ENDBRANCH  27  28
ENDBRANCH   5  27
BRANCH   1  35
HETATM   35  C   UNL     1      39.049 -15.123   1.186  1.00  0.00     0.140 C 
BRANCH  35  36
HETATM   36  C   UNL     1      38.920 -13.692   0.638  1.00  0.00    -0.004 C 
HETATM   37  C   UNL     1      37.572 -13.061   0.987  1.00  0.00     0.011 C 
HETATM   38  C   UNL     1      39.094 -13.705  -0.882  1.00  0.00     0.011 C 
ENDBRANCH  35  36
ENDBRANCH   1  35
TORSDOF 7
ENDMDL
MODEL 6
REMARK VINA RESULT:      -8.9      3.918      8.171
REMARK  7 active torsions:
REMARK  status: ('A' for Active; 'I' for Inactive)
REMARK    1  A    between atoms: C_2  and  C_3 
REMARK    2  A    between atoms: C_3  and  N_4 
REMARK    3  A    between atoms: C_8  and  C_9 
REMARK    4  A    between atoms: C_8  and  C_27 
REMARK    5  A    between atoms: N_12  and  C_14 
REMARK    6  A    between atoms: C_14  and  C_15 
REMARK    7  A    between atoms: C_27  and  C_28 
ROOT
HETATM    1  N   UNL     1      41.370 -14.512   0.983  1.00  0.00    -0.268 N 
HETATM    2  C   UNL     1      42.171 -13.516   1.449  1.00  0.00     0.326 C 
HETATM    3  O   UNL     1      42.379 -12.427   0.946  1.00  0.00    -0.247 OA
HETATM    4  N   UNL     1      42.739 -13.937   2.630  1.00  0.00    -0.324 N 
HETATM    5  C   UNL     1      42.555 -15.363   2.863  1.00  0.00     0.123 C 
HETATM    6  C   UNL     1      41.444 -15.592   1.813  1.00  0.00     0.257 C 
HETATM    7  O   UNL     1      40.779 -16.615   1.713  1.00  0.00    -0.270 OA
HETATM    8  H   UNL     1      43.498 -13.383   3.020  1.00  0.00     0.165 HD
ENDROOT
BRANCH   5   9
HETATM    9  C   UNL     1      42.190 -15.633   4.361  1.00  0.00     0.027 C 
HETATM   10  C   UNL     1      40.749 -15.331   4.805  1.00  0.00     0.035 C 
HETATM   11  C   UNL     1      40.435 -13.877   5.137  1.00  0.00     0.235 C 
HETATM   12  N   UNL     1      41.481 -13.256   6.031  1.00  0.00    -0.067 N 
HETATM   13  H   UNL     1      41.317 -13.628   6.975  1.00  0.00     0.280 HD
HETATM   14  C   UNL     1      42.910 -13.547   5.660  1.00  0.00     0.235 C 
HETATM   15  C   UNL     1      43.141 -15.022   5.406  1.00  0.00     0.035 C 
BRANCH  12  16
HETATM   16  C   UNL     1      41.305 -11.743   6.131  1.00  0.00     0.273 C 
BRANCH  16  17
HETATM   17  C   UNL     1      40.877 -11.244   7.481  1.00  0.00    -0.030 A 
HETATM   18  C   UNL     1      41.802 -10.658   8.357  1.00  0.00     0.048 A 
HETATM   19  C   UNL     1      41.385 -10.197   9.607  1.00  0.00     0.102 A 
HETATM   20  C   UNL     1      40.056 -10.347  10.008  1.00  0.00     0.102 A 
HETATM   21  O   UNL     1      42.342  -9.607  10.390  1.00  0.00    -0.346 OA
HETATM   22  O   UNL     1      39.588  -9.943  11.229  1.00  0.00    -0.346 OA
HETATM   23  C   UNL     1      39.129 -10.919   9.143  1.00  0.00     0.040 A 
HETATM   24  C   UNL     1      40.657  -9.655  12.139  1.00  0.00     0.202 C 
HETATM   25  C   UNL     1      41.747  -8.848  11.452  1.00  0.00     0.202 C 
HETATM   26  C   UNL     1      39.535 -11.366   7.885  1.00  0.00     0.012 A 
ENDBRANCH  16  17
ENDBRANCH  12  16
ENDBRANCH   5   9
BRANCH   5  27
HETATM   27  C   UNL     1      43.785 -16.166   2.336  1.00  0.00     0.080 C 
BRANCH  27  28
HETATM   28  C   UNL     1      43.849 -17.614   2.764  1.00  0.00    -0.052 A 
HETATM   29  C   UNL     1      43.663 -18.653   1.844  1.00  0.00     0.049 A 
HETATM   30  C   UNL     1      43.728 -19.979   2.265  1.00  0.00     0.116 A 
HETATM   31  F   UNL     1      43.538 -20.958   1.370  1.00  0.00    -0.206 F 
HETATM   32  C   UNL     1      43.983 -20.300   3.591  1.00  0.00     0.042 A 
HETATM   33  C   UNL     1      44.181 -19.277   4.515  1.00  0.00     0.003 A 
HETATM   34  C   UNL     1      44.115 -17.942   4.105  1.00  0.00     0.007 A 
ENDBRANCH  27  28
ENDBRANCH   5  27
BRANCH   1  35
HETATM   35  C   UNL     1      40.631 -14.455  -0.268  1.00  0.00     0.140 C 
BRANCH  35  36
HETATM   36  C   UNL     1      41.491 -14.725  -1.516  1.00  0.00    -0.004 C 
HETATM   37  C   UNL     1      41.799 -13.443  -2.290  1.00  0.00     0.011 C 
HETATM   38  C   UNL     1      40.768 -15.711  -2.436  1.00  0.00     0.011 C 
ENDBRANCH  35  36
ENDBRANCH   1  35
TORSDOF 7
ENDMDL
MODEL 7
REMARK VINA RESULT:      -8.8      2.867      3.824
REMARK  7 active torsions:
REMARK  status: ('A' for Active; 'I' for Inactive)
REMARK    1  A    between atoms: C_2  and  C_3 
REMARK    2  A    between atoms: C_3  and  N_4 
REMARK    3  A    between atoms: C_8  and  C_9 
REMARK    4  A    between atoms: C_8  and  C_27 
REMARK    5  A    between atoms: N_12  and  C_14 
REMARK    6  A    between atoms: C_14  and  C_15 
REMARK    7  A    between atoms: C_27  and  C_28 
ROOT
HETATM    1  N   UNL     1      42.169 -14.927   4.782  1.00  0.00    -0.268 N 
HETATM    2  C   UNL     1      41.910 -16.120   5.382  1.00  0.00     0.326 C 
HETATM    3  O   UNL     1      41.862 -16.364   6.573  1.00  0.00    -0.247 OA
HETATM    4  N   UNL     1      41.697 -17.059   4.397  1.00  0.00    -0.324 N 
HETATM    5  C   UNL     1      42.086 -16.584   3.076  1.00  0.00     0.123 C 
HETATM    6  C   UNL     1      42.177 -15.081   3.426  1.00  0.00     0.257 C 
HETATM    7  O   UNL     1      42.299 -14.180   2.607  1.00  0.00    -0.270 OA
HETATM    8  H   UNL     1      41.662 -18.038   4.669  1.00  0.00     0.165 HD
ENDROOT
BRANCH   5   9
HETATM    9  C   UNL     1      41.025 -17.005   2.006  1.00  0.00     0.027 C 
HETATM   10  C   UNL     1      41.442 -16.932   0.527  1.00  0.00     0.035 C 
HETATM   11  C   UNL     1      41.355 -15.561  -0.132  1.00  0.00     0.235 C 
HETATM   12  N   UNL     1      40.046 -14.869   0.156  1.00  0.00    -0.067 N 
HETATM   13  H   UNL     1      39.338 -15.324  -0.433  1.00  0.00     0.280 HD
HETATM   14  C   UNL     1      39.574 -14.937   1.583  1.00  0.00     0.235 C 
HETATM   15  C   UNL     1      39.640 -16.347   2.135  1.00  0.00     0.035 C 
BRANCH  12  16
HETATM   16  C   UNL     1      40.079 -13.404  -0.272  1.00  0.00     0.273 C 
BRANCH  16  17
HETATM   17  C   UNL     1      39.073 -12.522   0.410  1.00  0.00    -0.030 A 
HETATM   18  C   UNL     1      37.792 -12.343  -0.130  1.00  0.00     0.048 A 
HETATM   19  C   UNL     1      36.868 -11.523   0.519  1.00  0.00     0.102 A 
HETATM   20  C   UNL     1      37.223 -10.847   1.688  1.00  0.00     0.102 A 
HETATM   21  O   UNL     1      35.628 -11.427  -0.055  1.00  0.00    -0.346 OA
HETATM   22  O   UNL     1      36.376 -10.006   2.359  1.00  0.00    -0.346 OA
HETATM   23  C   UNL     1      38.489 -11.025   2.237  1.00  0.00     0.040 A 
HETATM   24  C   UNL     1      35.233  -9.661   1.567  1.00  0.00     0.202 C 
HETATM   25  C   UNL     1      34.671 -10.889   0.869  1.00  0.00     0.202 C 
HETATM   26  C   UNL     1      39.412 -11.858   1.602  1.00  0.00     0.012 A 
ENDBRANCH  16  17
ENDBRANCH  12  16
ENDBRANCH   5   9
BRANCH   5  27
HETATM   27  C   UNL     1      43.549 -17.015   2.750  1.00  0.00     0.080 C 
BRANCH  27  28
HETATM   28  C   UNL     1      43.875 -18.466   3.018  1.00  0.00    -0.052 A 
HETATM   29  C   UNL     1      43.746 -19.437   2.017  1.00  0.00     0.049 A 
HETATM   30  C   UNL     1      44.054 -20.767   2.290  1.00  0.00     0.116 A 
HETATM   31  F   UNL     1      43.914 -21.682   1.322  1.00  0.00    -0.206 F 
HETATM   32  C   UNL     1      44.499 -21.158   3.546  1.00  0.00     0.042 A 
HETATM   33  C   UNL     1      44.643 -20.202   4.548  1.00  0.00     0.003 A 
HETATM   34  C   UNL     1      44.334 -18.864   4.285  1.00  0.00     0.007 A 
ENDBRANCH  27  28
ENDBRANCH   5  27
BRANCH   1  35
HETATM   35  C   UNL     1      42.489 -13.701   5.497  1.00  0.00     0.140 C 
BRANCH  35  36
HETATM   36  C   UNL     1      41.289 -12.758   5.690  1.00  0.00    -0.004 C 
HETATM   37  C   UNL     1      39.958 -13.455   5.403  1.00  0.00     0.011 C 
HETATM   38  C   UNL     1      41.434 -11.545   4.768  1.00  0.00     0.011 C 
ENDBRANCH  35  36
ENDBRANCH   1  35
TORSDOF 7
ENDMDL
MODEL 8
REMARK VINA RESULT:      -8.8      3.706      8.331
REMARK  7 active torsions:
REMARK  status: ('A' for Active; 'I' for Inactive)
REMARK    1  A    between atoms: C_2  and  C_3 
REMARK    2  A    between atoms: C_3  and  N_4 
REMARK    3  A    between atoms: C_8  and  C_9 
REMARK    4  A    between atoms: C_8  and  C_27 
REMARK    5  A    between atoms: N_12  and  C_14 
REMARK    6  A    between atoms: C_14  and  C_15 
REMARK    7  A    between atoms: C_27  and  C_28 
ROOT
HETATM    1  N   UNL     1      42.106 -14.065   4.574  1.00  0.00    -0.268 N 
HETATM    2  C   UNL     1      42.866 -13.672   3.517  1.00  0.00     0.326 C 
HETATM    3  O   UNL     1      44.017 -13.276   3.529  1.00  0.00    -0.247 OA
HETATM    4  N   UNL     1      42.108 -13.795   2.373  1.00  0.00    -0.324 N 
HETATM    5  C   UNL     1      40.697 -14.015   2.658  1.00  0.00     0.123 C 
HETATM    6  C   UNL     1      40.853 -14.396   4.148  1.00  0.00     0.257 C 
HETATM    7  O   UNL     1      39.962 -14.864   4.845  1.00  0.00    -0.270 OA
HETATM    8  H   UNL     1      42.465 -13.380   1.517  1.00  0.00     0.165 HD
ENDROOT
BRANCH   5   9
HETATM    9  C   UNL     1      40.106 -15.103   1.700  1.00  0.00     0.027 C 
HETATM   10  C   UNL     1      40.036 -16.547   2.225  1.00  0.00     0.035 C 
HETATM   11  C   UNL     1      41.320 -17.362   2.130  1.00  0.00     0.235 C 
HETATM   12  N   UNL     1      41.972 -17.248   0.774  1.00  0.00    -0.067 N 
HETATM   13  H   UNL     1      41.419 -17.830   0.133  1.00  0.00     0.280 HD
HETATM   14  C   UNL     1      42.038 -15.859   0.198  1.00  0.00     0.235 C 
HETATM   15  C   UNL     1      40.703 -15.147   0.282  1.00  0.00     0.035 C 
BRANCH  12  16
HETATM   16  C   UNL     1      43.381 -17.837   0.777  1.00  0.00     0.273 C 
BRANCH  16  17
HETATM   17  C   UNL     1      43.748 -18.591   2.022  1.00  0.00    -0.030 A 
HETATM   18  C   UNL     1      43.868 -19.988   2.008  1.00  0.00     0.048 A 
HETATM   19  C   UNL     1      44.213 -20.671   3.175  1.00  0.00     0.102 A 
HETATM   20  C   UNL     1      44.407 -19.976   4.370  1.00  0.00     0.102 A 
HETATM   21  O   UNL     1      44.342 -22.031   3.069  1.00  0.00    -0.346 OA
HETATM   22  O   UNL     1      44.719 -20.587   5.555  1.00  0.00    -0.346 OA
HETATM   23  C   UNL     1      44.299 -18.589   4.393  1.00  0.00     0.040 A 
HETATM   24  C   UNL     1      44.510 -22.003   5.494  1.00  0.00     0.202 C 
HETATM   25  C   UNL     1      45.054 -22.572   4.192  1.00  0.00     0.202 C 
HETATM   26  C   UNL     1      43.971 -17.898   3.226  1.00  0.00     0.012 A 
ENDBRANCH  16  17
ENDBRANCH  12  16
ENDBRANCH   5   9
BRANCH   5  27
HETATM   27  C   UNL     1      39.923 -12.660   2.663  1.00  0.00     0.080 C 
BRANCH  27  28
HETATM   28  C   UNL     1      39.137 -12.355   1.408  1.00  0.00    -0.052 A 
HETATM   29  C   UNL     1      39.742 -11.749   0.301  1.00  0.00     0.049 A 
HETATM   30  C   UNL     1      38.995 -11.478  -0.843  1.00  0.00     0.116 A 
HETATM   31  F   UNL     1      39.590 -10.889  -1.888  1.00  0.00    -0.206 F 
HETATM   32  C   UNL     1      37.648 -11.808  -0.916  1.00  0.00     0.042 A 
HETATM   33  C   UNL     1      37.035 -12.422   0.174  1.00  0.00     0.003 A 
HETATM   34  C   UNL     1      37.775 -12.695   1.328  1.00  0.00     0.007 A 
ENDBRANCH  27  28
ENDBRANCH   5  27
BRANCH   1  35
HETATM   35  C   UNL     1      42.548 -14.035   5.960  1.00  0.00     0.140 C 
BRANCH  35  36
HETATM   36  C   UNL     1      43.652 -15.055   6.287  1.00  0.00    -0.004 C 
HETATM   37  C   UNL     1      43.102 -16.287   7.007  1.00  0.00     0.011 C 
HETATM   38  C   UNL     1      44.721 -14.395   7.160  1.00  0.00     0.011 C 
ENDBRANCH  35  36
ENDBRANCH   1  35
TORSDOF 7
ENDMDL
MODEL 9
REMARK VINA RESULT:      -8.8      4.701      8.495
REMARK  7 active torsions:
REMARK  status: ('A' for Active; 'I' for Inactive)
REMARK    1  A    between atoms: C_2  and  C_3 
REMARK    2  A    between atoms: C_3  and  N_4 
REMARK    3  A    between atoms: C_8  and  C_9 
REMARK    4  A    between atoms: C_8  and  C_27 
REMARK    5  A    between atoms: N_12  and  C_14 
REMARK    6  A    between atoms: C_14  and  C_15 
REMARK    7  A    between atoms: C_27  and  C_28 
ROOT
HETATM    1  N   UNL     1      42.702 -15.957   6.617  1.00  0.00    -0.268 N 
HETATM    2  C   UNL     1      43.273 -14.802   6.185  1.00  0.00     0.326 C 
HETATM    3  O   UNL     1      44.316 -14.298   6.557  1.00  0.00    -0.247 OA
HETATM    4  N   UNL     1      42.461 -14.257   5.214  1.00  0.00    -0.324 N 
HETATM    5  C   UNL     1      41.153 -14.896   5.156  1.00  0.00     0.123 C 
HETATM    6  C   UNL     1      41.510 -16.152   5.983  1.00  0.00     0.257 C 
HETATM    7  O   UNL     1      40.796 -17.140   6.093  1.00  0.00    -0.270 OA
HETATM    8  H   UNL     1      42.651 -13.307   4.910  1.00  0.00     0.165 HD
ENDROOT
BRANCH   5   9
HETATM    9  C   UNL     1      40.716 -15.118   3.670  1.00  0.00     0.027 C 
HETATM   10  C   UNL     1      40.497 -16.568   3.205  1.00  0.00     0.035 C 
HETATM   11  C   UNL     1      41.746 -17.344   2.805  1.00  0.00     0.235 C 
HETATM   12  N   UNL     1      42.645 -16.550   1.890  1.00  0.00    -0.067 N 
HETATM   13  H   UNL     1      42.202 -16.560   0.964  1.00  0.00     0.280 HD
HETATM   14  C   UNL     1      42.867 -15.114   2.282  1.00  0.00     0.235 C 
HETATM   15  C   UNL     1      41.567 -14.407   2.604  1.00  0.00     0.035 C 
BRANCH  12  16
HETATM   16  C   UNL     1      44.006 -17.220   1.721  1.00  0.00     0.273 C 
BRANCH  16  17
HETATM   17  C   UNL     1      44.062 -18.657   2.154  1.00  0.00    -0.030 A 
HETATM   18  C   UNL     1      44.546 -19.007   3.423  1.00  0.00     0.048 A 
HETATM   19  C   UNL     1      44.587 -20.347   3.809  1.00  0.00     0.102 A 
HETATM   20  C   UNL     1      44.182 -21.350   2.927  1.00  0.00     0.102 A 
HETATM   21  O   UNL     1      45.043 -20.602   5.076  1.00  0.00    -0.346 OA
HETATM   22  O   UNL     1      44.223 -22.684   3.232  1.00  0.00    -0.346 OA
HETATM   23  C   UNL     1      43.692 -21.013   1.669  1.00  0.00     0.040 A 
HETATM   24  C   UNL     1      45.010 -22.937   4.402  1.00  0.00     0.202 C 
HETATM   25  C   UNL     1      44.691 -21.929   5.495  1.00  0.00     0.202 C 
HETATM   26  C   UNL     1      43.631 -19.673   1.282  1.00  0.00     0.012 A 
ENDBRANCH  16  17
ENDBRANCH  12  16
ENDBRANCH   5   9
BRANCH   5  27
HETATM   27  C   UNL     1      40.124 -14.113   6.030  1.00  0.00     0.080 C 
BRANCH  27  28
HETATM   28  C   UNL     1      39.959 -12.650   5.687  1.00  0.00    -0.052 A 
HETATM   29  C   UNL     1      39.090 -12.235   4.670  1.00  0.00     0.049 A 
HETATM   30  C   UNL     1      38.956 -10.881   4.374  1.00  0.00     0.116 A 
HETATM   31  F   UNL     1      38.127 -10.506   3.392  1.00  0.00    -0.206 F 
HETATM   32  C   UNL     1      39.667  -9.918   5.079  1.00  0.00     0.042 A 
HETATM   33  C   UNL     1      40.526 -10.315   6.100  1.00  0.00     0.003 A 
HETATM   34  C   UNL     1      40.671 -11.672   6.404  1.00  0.00     0.007 A 
ENDBRANCH  27  28
ENDBRANCH   5  27
BRANCH   1  35
HETATM   35  C   UNL     1      43.245 -16.797   7.674  1.00  0.00     0.140 C 
BRANCH  35  36
HETATM   36  C   UNL     1      43.940 -18.072   7.165  1.00  0.00    -0.004 C 
HETATM   37  C   UNL     1      43.963 -19.176   8.224  1.00  0.00     0.011 C 
HETATM   38  C   UNL     1      45.374 -17.745   6.743  1.00  0.00     0.011 C 
ENDBRANCH  35  36
ENDBRANCH   1  35
TORSDOF 7
ENDMDL
MODEL 10
REMARK VINA RESULT:      -8.8      1.367      2.181
REMARK  7 active torsions:
REMARK  status: ('A' for Active; 'I' for Inactive)
REMARK    1  A    between atoms: C_2  and  C_3 
REMARK    2  A    between atoms: C_3  and  N_4 
REMARK    3  A    between atoms: C_8  and  C_9 
REMARK    4  A    between atoms: C_8  and  C_27 
REMARK    5  A    between atoms: N_12  and  C_14 
REMARK    6  A    between atoms: C_14  and  C_15 
REMARK    7  A    between atoms: C_27  and  C_28 
ROOT
HETATM    1  N   UNL     1      42.031 -15.487   4.908  1.00  0.00    -0.268 N 
HETATM    2  C   UNL     1      41.438 -16.615   5.383  1.00  0.00     0.326 C 
HETATM    3  O   UNL     1      40.848 -16.763   6.438  1.00  0.00    -0.247 OA
HETATM    4  N   UNL     1      41.608 -17.616   4.452  1.00  0.00    -0.324 N 
HETATM    5  C   UNL     1      42.579 -17.265   3.425  1.00  0.00     0.123 C 
HETATM    6  C   UNL     1      42.626 -15.746   3.708  1.00  0.00     0.257 C 
HETATM    7  O   UNL     1      43.171 -14.919   2.989  1.00  0.00    -0.270 OA
HETATM    8  H   UNL     1      41.378 -18.567   4.726  1.00  0.00     0.165 HD
ENDROOT
BRANCH   5   9
HETATM    9  C   UNL     1      42.072 -17.714   2.014  1.00  0.00     0.027 C 
HETATM   10  C   UNL     1      42.664 -16.998   0.787  1.00  0.00     0.035 C 
HETATM   11  C   UNL     1      42.044 -15.654   0.427  1.00  0.00     0.235 C 
HETATM   12  N   UNL     1      40.536 -15.701   0.424  1.00  0.00    -0.067 N 
HETATM   13  H   UNL     1      40.260 -16.189  -0.437  1.00  0.00     0.280 HD
HETATM   14  C   UNL     1      39.905 -16.419   1.586  1.00  0.00     0.235 C 
HETATM   15  C   UNL     1      40.545 -17.769   1.833  1.00  0.00     0.035 C 
BRANCH  12  16
HETATM   16  C   UNL     1      39.931 -14.302   0.334  1.00  0.00     0.273 C 
BRANCH  16  17
HETATM   17  C   UNL     1      40.682 -13.343  -0.545  1.00  0.00    -0.030 A 
HETATM   18  C   UNL     1      41.467 -12.323   0.010  1.00  0.00     0.048 A 
HETATM   19  C   UNL     1      42.160 -11.443  -0.823  1.00  0.00     0.102 A 
HETATM   20  C   UNL     1      42.050 -11.550  -2.211  1.00  0.00     0.102 A 
HETATM   21  O   UNL     1      42.930 -10.496  -0.203  1.00  0.00    -0.346 OA
HETATM   22  O   UNL     1      42.679 -10.703  -3.084  1.00  0.00    -0.346 OA
HETATM   23  C   UNL     1      41.280 -12.564  -2.771  1.00  0.00     0.040 A 
HETATM   24  C   UNL     1      43.185  -9.537  -2.422  1.00  0.00     0.202 C 
HETATM   25  C   UNL     1      43.870  -9.913  -1.117  1.00  0.00     0.202 C 
HETATM   26  C   UNL     1      40.598 -13.458  -1.945  1.00  0.00     0.012 A 
ENDBRANCH  16  17
ENDBRANCH  12  16
ENDBRANCH   5   9
BRANCH   5  27
HETATM   27  C   UNL     1      43.996 -17.795   3.808  1.00  0.00     0.080 C 
BRANCH  27  28
HETATM   28  C   UNL     1      44.187 -19.289   3.688  1.00  0.00    -0.052 A 
HETATM   29  C   UNL     1      44.475 -20.078   4.809  1.00  0.00     0.049 A 
HETATM   30  C   UNL     1      44.646 -21.453   4.670  1.00  0.00     0.116 A 
HETATM   31  F   UNL     1      44.931 -22.188   5.753  1.00  0.00    -0.206 F 
HETATM   32  C   UNL     1      44.527 -22.070   3.433  1.00  0.00     0.042 A 
HETATM   33  C   UNL     1      44.229 -21.301   2.311  1.00  0.00     0.003 A 
HETATM   34  C   UNL     1      44.059 -19.919   2.438  1.00  0.00     0.007 A 
ENDBRANCH  27  28
ENDBRANCH   5  27
BRANCH   1  35
HETATM   35  C   UNL     1      42.098 -14.227   5.632  1.00  0.00     0.140 C 
BRANCH  35  36
HETATM   36  C   UNL     1      40.939 -13.265   5.322  1.00  0.00    -0.004 C 
HETATM   37  C   UNL     1      39.895 -13.243   6.439  1.00  0.00     0.011 C 
HETATM   38  C   UNL     1      40.267 -13.674   4.009  1.00  0.00     0.011 C 
ENDBRANCH  35  36
ENDBRANCH   1  35
TORSDOF 7
ENDMDL
