MODEL 1
REMARK VINA RESULT:      -9.3      0.000      0.000
REMARK  8 active torsions:
REMARK  status: ('A' for Active; 'I' for Inactive)
REMARK    1  A    between atoms: C_4  and  C_5 
REMARK       I    between atoms: C_5  and  N_6 
REMARK    2  A    between atoms: N_6  and  C_7 
REMARK    3  A    between atoms: C_7  and  C_8 
REMARK    4  A    between atoms: C_8  and  C_9 
REMARK       I    between atoms: C_9  and  N_10 
REMARK    5  A    between atoms: N_10  and  N_11 
REMARK       I    between atoms: N_11  and  C_12 
REMARK    6  A    between atoms: C_12  and  C_13 
REMARK    7  A    between atoms: N_15  and  C_16 
REMARK    8  A    between atoms: C_24  and  O_25 
ROOT
HETATM    1  N   UNL     1      41.989 -13.305   6.437  1.00  0.00    -0.262 N 
HETATM    2  C   UNL     1      42.834 -13.755   5.436  1.00  0.00     0.293 C 
HETATM    3  O   UNL     1      43.142 -13.046   4.479  1.00  0.00    -0.264 OA
HETATM    4  H   UNL     1      41.901 -13.844   7.299  1.00  0.00     0.190 HD
ENDROOT
BRANCH   1   5
HETATM    5  N   UNL     1      41.622 -11.951   6.455  1.00  0.00    -0.267 N 
HETATM    6  C   UNL     1      40.329 -11.641   6.836  1.00  0.00     0.237 C 
HETATM    7  O   UNL     1      39.451 -12.488   6.976  1.00  0.00    -0.272 OA
HETATM    8  H   UNL     1      42.386 -11.294   6.612  1.00  0.00     0.190 HD
BRANCH   6   9
HETATM    9  C   UNL     1      40.099 -10.154   6.982  1.00  0.00     0.124 C 
BRANCH   9  10
HETATM   10  C   UNL     1      41.351  -9.455   7.495  1.00  0.00     0.132 C 
BRANCH  10  11
HETATM   11  N   UNL     1      41.492  -9.550   8.937  1.00  0.00    -0.356 N 
HETATM   12  C   UNL     1      42.517 -10.262   9.524  1.00  0.00     0.251 C 
HETATM   13  O   UNL     1      43.411 -10.804   8.882  1.00  0.00    -0.268 OA
HETATM   14  H   UNL     1      40.874  -8.994   9.513  1.00  0.00     0.162 HD
BRANCH  12  15
HETATM   15  C   UNL     1      42.521 -10.319  11.013  1.00  0.00     0.032 A 
HETATM   16  C   UNL     1      43.497  -9.668  11.778  1.00  0.00     0.017 A 
HETATM   17  C   UNL     1      43.454  -9.739  13.174  1.00  0.00     0.001 A 
HETATM   18  C   UNL     1      42.435 -10.451  13.807  1.00  0.00     0.000 A 
HETATM   19  C   UNL     1      41.452 -11.086  13.050  1.00  0.00     0.001 A 
HETATM   20  C   UNL     1      41.491 -11.018  11.656  1.00  0.00     0.017 A 
ENDBRANCH  12  15
ENDBRANCH  10  11
ENDBRANCH   9  10
ENDBRANCH   6   9
ENDBRANCH   1   5
BRANCH   2  21
HETATM   21  C   UNL     1      43.309 -15.129   5.645  1.00  0.00     0.181 A 
HETATM   22  N   UNL     1      43.304 -16.040   4.649  1.00  0.00    -0.159 NA
HETATM   23  N   UNL     1      43.829 -17.172   5.192  1.00  0.00    -0.242 N 
HETATM   24  C   UNL     1      44.137 -17.001   6.525  1.00  0.00     0.158 A 
HETATM   25  C   UNL     1      43.818 -15.707   6.827  1.00  0.00     0.119 A 
BRANCH  23  26
HETATM   26  C   UNL     1      44.011 -18.343   4.399  1.00  0.00     0.058 A 
HETATM   27  C   UNL     1      43.552 -18.356   3.071  1.00  0.00     0.033 A 
HETATM   28  C   UNL     1      43.730 -19.490   2.271  1.00  0.00     0.026 A 
HETATM   29  C   UNL     1      44.366 -20.613   2.794  1.00  0.00     0.034 A 
HETATM   30 CL   UNL     1      44.589 -22.006   1.811  1.00  0.00    -0.084 Cl
HETATM   31  C   UNL     1      44.823 -20.613   4.110  1.00  0.00     0.026 A 
HETATM   32  C   UNL     1      44.648 -19.482   4.915  1.00  0.00     0.033 A 
ENDBRANCH  23  26
BRANCH  25  33
HETATM   33  O   UNL     1      43.981 -15.148   8.035  1.00  0.00    -0.357 OA
HETATM   34  H   UNL     1      43.130 -15.047   8.495  1.00  0.00     0.218 HD
ENDBRANCH  25  33
ENDBRANCH   2  21
TORSDOF 8
ENDMDL
MODEL 2
REMARK VINA RESULT:      -9.3      4.103     10.220
REMARK  8 active torsions:
REMARK  status: ('A' for Active; 'I' for Inactive)
REMARK    1  A    between atoms: C_4  and  C_5 
REMARK       I    between atoms: C_5  and  N_6 
REMARK    2  A    between atoms: N_6  and  C_7 
REMARK    3  A    between atoms: C_7  and  C_8 
REMARK    4  A    between atoms: C_8  and  C_9 
REMARK       I    between atoms: C_9  and  N_10 
REMARK    5  A    between atoms: N_10  and  N_11 
REMARK       I    between atoms: N_11  and  C_12 
REMARK    6  A    between atoms: C_12  and  C_13 
REMARK    7  A    between atoms: N_15  and  C_16 
REMARK    8  A    between atoms: C_24  and  O_25 
ROOT
HETATM    1  N   UNL     1      43.811 -14.284   7.226  1.00  0.00    -0.262 N 
HETATM    2  C   UNL     1      44.988 -13.559   7.145  1.00  0.00     0.293 C 
HETATM    3  O   UNL     1      45.792 -13.726   6.229  1.00  0.00    -0.264 OA
HETATM    4  H   UNL     1      43.089 -13.996   7.888  1.00  0.00     0.190 HD
ENDROOT
BRANCH   1   5
HETATM    5  N   UNL     1      43.440 -15.096   6.144  1.00  0.00    -0.267 N 
HETATM    6  C   UNL     1      42.250 -14.808   5.502  1.00  0.00     0.237 C 
HETATM    7  O   UNL     1      41.428 -14.008   5.941  1.00  0.00    -0.272 OA
HETATM    8  H   UNL     1      44.213 -15.535   5.643  1.00  0.00     0.190 HD
BRANCH   6   9
HETATM    9  C   UNL     1      42.039 -15.636   4.255  1.00  0.00     0.124 C 
BRANCH   9  10
HETATM   10  C   UNL     1      43.364 -15.945   3.572  1.00  0.00     0.132 C 
BRANCH  10  11
HETATM   11  N   UNL     1      43.520 -17.356   3.266  1.00  0.00    -0.356 N 
HETATM   12  C   UNL     1      44.052 -18.245   4.177  1.00  0.00     0.251 C 
HETATM   13  O   UNL     1      44.368 -17.928   5.318  1.00  0.00    -0.268 OA
HETATM   14  H   UNL     1      43.133 -17.699   2.397  1.00  0.00     0.162 HD
BRANCH  12  15
HETATM   15  C   UNL     1      44.201 -19.656   3.720  1.00  0.00     0.032 A 
HETATM   16  C   UNL     1      44.679 -20.663   4.569  1.00  0.00     0.017 A 
HETATM   17  C   UNL     1      44.791 -21.976   4.102  1.00  0.00     0.001 A 
HETATM   18  C   UNL     1      44.419 -22.287   2.794  1.00  0.00     0.000 A 
HETATM   19  C   UNL     1      43.927 -21.292   1.952  1.00  0.00     0.001 A 
HETATM   20  C   UNL     1      43.813 -19.979   2.414  1.00  0.00     0.017 A 
ENDBRANCH  12  15
ENDBRANCH  10  11
ENDBRANCH   9  10
ENDBRANCH   6   9
ENDBRANCH   1   5
BRANCH   2  21
HETATM   21  C   UNL     1      45.157 -12.594   8.240  1.00  0.00     0.181 A 
HETATM   22  N   UNL     1      44.220 -12.439   9.200  1.00  0.00    -0.159 NA
HETATM   23  N   UNL     1      44.722 -11.497  10.045  1.00  0.00    -0.242 N 
HETATM   24  C   UNL     1      45.947 -11.030   9.617  1.00  0.00     0.158 A 
HETATM   25  C   UNL     1      46.240 -11.721   8.475  1.00  0.00     0.119 A 
BRANCH  23  26
HETATM   26  C   UNL     1      44.000 -11.110  11.212  1.00  0.00     0.058 A 
HETATM   27  C   UNL     1      43.410 -12.096  12.019  1.00  0.00     0.033 A 
HETATM   28  C   UNL     1      42.707 -11.738  13.175  1.00  0.00     0.026 A 
HETATM   29  C   UNL     1      42.591 -10.396  13.528  1.00  0.00     0.034 A 
HETATM   30 CL   UNL     1      41.731  -9.956  14.950  1.00  0.00    -0.084 Cl
HETATM   31  C   UNL     1      43.170  -9.408  12.734  1.00  0.00     0.026 A 
HETATM   32  C   UNL     1      43.875  -9.760  11.577  1.00  0.00     0.033 A 
ENDBRANCH  23  26
BRANCH  25  33
HETATM   33  O   UNL     1      47.361 -11.559   7.757  1.00  0.00    -0.357 OA
HETATM   34  H   UNL     1      47.738 -12.415   7.493  1.00  0.00     0.218 HD
ENDBRANCH  25  33
ENDBRANCH   2  21
TORSDOF 8
ENDMDL
MODEL 3
REMARK VINA RESULT:      -8.9      2.321      3.241
REMARK  8 active torsions:
REMARK  status: ('A' for Active; 'I' for Inactive)
REMARK    1  A    between atoms: C_4  and  C_5 
REMARK       I    between atoms: C_5  and  N_6 
REMARK    2  A    between atoms: N_6  and  C_7 
REMARK    3  A    between atoms: C_7  and  C_8 
REMARK    4  A    between atoms: C_8  and  C_9 
REMARK       I    between atoms: C_9  and  N_10 
REMARK    5  A    between atoms: N_10  and  N_11 
REMARK       I    between atoms: N_11  and  C_12 
REMARK    6  A    between atoms: C_12  and  C_13 
REMARK    7  A    between atoms: N_15  and  C_16 
REMARK    8  A    between atoms: C_24  and  O_25 
ROOT
HETATM    1  N   UNL     1      43.835 -14.445   7.058  1.00  0.00    -0.262 N 
HETATM    2  C   UNL     1      42.966 -13.957   6.096  1.00  0.00     0.293 C 
HETATM    3  O   UNL     1      42.498 -12.821   6.163  1.00  0.00    -0.264 OA
HETATM    4  H   UNL     1      44.343 -15.313   6.880  1.00  0.00     0.190 HD
ENDROOT
BRANCH   1   5
HETATM    5  N   UNL     1      44.334 -13.566   8.030  1.00  0.00    -0.267 N 
HETATM    6  C   UNL     1      45.548 -12.953   7.780  1.00  0.00     0.237 C 
HETATM    7  O   UNL     1      46.284 -13.279   6.852  1.00  0.00    -0.272 OA
HETATM    8  H   UNL     1      43.629 -13.114   8.612  1.00  0.00     0.190 HD
BRANCH   6   9
HETATM    9  C   UNL     1      45.902 -11.905   8.810  1.00  0.00     0.124 C 
BRANCH   9  10
HETATM   10  C   UNL     1      45.245 -12.211  10.150  1.00  0.00     0.132 C 
BRANCH  10  11
HETATM   11  N   UNL     1      44.690 -11.028  10.783  1.00  0.00    -0.356 N 
HETATM   12  C   UNL     1      43.761 -11.113  11.799  1.00  0.00     0.251 C 
HETATM   13  O   UNL     1      43.390 -12.178  12.282  1.00  0.00    -0.268 OA
HETATM   14  H   UNL     1      45.075 -10.129  10.530  1.00  0.00     0.162 HD
BRANCH  12  15
HETATM   15  C   UNL     1      43.235  -9.823  12.330  1.00  0.00     0.032 A 
HETATM   16  C   UNL     1      42.665  -8.855  11.493  1.00  0.00     0.017 A 
HETATM   17  C   UNL     1      42.173  -7.664  12.036  1.00  0.00     0.001 A 
HETATM   18  C   UNL     1      42.241  -7.442  13.411  1.00  0.00     0.000 A 
HETATM   19  C   UNL     1      42.792  -8.410  14.249  1.00  0.00     0.001 A 
HETATM   20  C   UNL     1      43.285  -9.601  13.711  1.00  0.00     0.017 A 
ENDBRANCH  12  15
ENDBRANCH  10  11
ENDBRANCH   9  10
ENDBRANCH   6   9
ENDBRANCH   1   5
BRANCH   2  21
HETATM   21  C   UNL     1      42.683 -14.916   5.021  1.00  0.00     0.181 A 
HETATM   22  N   UNL     1      43.347 -16.088   4.923  1.00  0.00    -0.159 NA
HETATM   23  N   UNL     1      42.810 -16.717   3.842  1.00  0.00    -0.242 N 
HETATM   24  C   UNL     1      41.840 -15.948   3.235  1.00  0.00     0.158 A 
HETATM   25  C   UNL     1      41.743 -14.803   3.976  1.00  0.00     0.119 A 
BRANCH  23  26
HETATM   26  C   UNL     1      43.255 -18.018   3.464  1.00  0.00     0.058 A 
HETATM   27  C   UNL     1      42.845 -18.559   2.234  1.00  0.00     0.033 A 
HETATM   28  C   UNL     1      43.280 -19.828   1.839  1.00  0.00     0.026 A 
HETATM   29  C   UNL     1      44.123 -20.562   2.669  1.00  0.00     0.034 A 
HETATM   30 CL   UNL     1      44.660 -22.121   2.183  1.00  0.00    -0.084 Cl
HETATM   31  C   UNL     1      44.534 -20.038   3.893  1.00  0.00     0.026 A 
HETATM   32  C   UNL     1      44.103 -18.768   4.293  1.00  0.00     0.033 A 
ENDBRANCH  23  26
BRANCH  25  33
HETATM   33  O   UNL     1      40.895 -13.799   3.711  1.00  0.00    -0.357 OA
HETATM   34  H   UNL     1      40.556 -13.398   4.529  1.00  0.00     0.218 HD
ENDBRANCH  25  33
ENDBRANCH   2  21
TORSDOF 8
ENDMDL
MODEL 4
REMARK VINA RESULT:      -8.7      1.329      1.793
REMARK  8 active torsions:
REMARK  status: ('A' for Active; 'I' for Inactive)
REMARK    1  A    between atoms: C_4  and  C_5 
REMARK       I    between atoms: C_5  and  N_6 
REMARK    2  A    between atoms: N_6  and  C_7 
REMARK    3  A    between atoms: C_7  and  C_8 
REMARK    4  A    between atoms: C_8  and  C_9 
REMARK       I    between atoms: C_9  and  N_10 
REMARK    5  A    between atoms: N_10  and  N_11 
REMARK       I    between atoms: N_11  and  C_12 
REMARK    6  A    between atoms: C_12  and  C_13 
REMARK    7  A    between atoms: N_15  and  C_16 
REMARK    8  A    between atoms: C_24  and  O_25 
ROOT
HETATM    1  N   UNL     1      42.436 -13.129   5.995  1.00  0.00    -0.262 N 
HETATM    2  C   UNL     1      41.746 -14.251   5.567  1.00  0.00     0.293 C 
HETATM    3  O   UNL     1      40.629 -14.531   5.999  1.00  0.00    -0.264 OA
HETATM    4  H   UNL     1      43.270 -12.830   5.490  1.00  0.00     0.190 HD
ENDROOT
BRANCH   1   5
HETATM    5  N   UNL     1      41.771 -12.193   6.802  1.00  0.00    -0.267 N 
HETATM    6  C   UNL     1      41.250 -11.070   6.187  1.00  0.00     0.237 C 
HETATM    7  O   UNL     1      41.498 -10.768   5.022  1.00  0.00    -0.272 OA
HETATM    8  H   UNL     1      41.348 -12.571   7.650  1.00  0.00     0.190 HD
BRANCH   6   9
HETATM    9  C   UNL     1      40.416 -10.222   7.119  1.00  0.00     0.124 C 
BRANCH   9  10
HETATM   10  C   UNL     1      41.252  -9.117   7.750  1.00  0.00     0.132 C 
BRANCH  10  11
HETATM   11  N   UNL     1      41.403  -9.280   9.185  1.00  0.00    -0.356 N 
HETATM   12  C   UNL     1      42.427 -10.027   9.730  1.00  0.00     0.251 C 
HETATM   13  O   UNL     1      43.310 -10.546   9.057  1.00  0.00    -0.268 OA
HETATM   14  H   UNL     1      40.795  -8.746   9.791  1.00  0.00     0.162 HD
BRANCH  12  15
HETATM   15  C   UNL     1      42.441 -10.154  11.215  1.00  0.00     0.032 A 
HETATM   16  C   UNL     1      43.430  -9.551  12.001  1.00  0.00     0.017 A 
HETATM   17  C   UNL     1      43.397  -9.685  13.392  1.00  0.00     0.001 A 
HETATM   18  C   UNL     1      42.374 -10.414  14.000  1.00  0.00     0.000 A 
HETATM   19  C   UNL     1      41.378 -11.002  13.222  1.00  0.00     0.001 A 
HETATM   20  C   UNL     1      41.407 -10.870  11.833  1.00  0.00     0.017 A 
ENDBRANCH  12  15
ENDBRANCH  10  11
ENDBRANCH   9  10
ENDBRANCH   6   9
ENDBRANCH   1   5
BRANCH   2  21
HETATM   21  C   UNL     1      42.476 -15.041   4.567  1.00  0.00     0.181 A 
HETATM   22  N   UNL     1      42.633 -16.376   4.694  1.00  0.00    -0.159 NA
HETATM   23  N   UNL     1      43.325 -16.765   3.588  1.00  0.00    -0.242 N 
HETATM   24  C   UNL     1      43.637 -15.693   2.779  1.00  0.00     0.158 A 
HETATM   25  C   UNL     1      43.100 -14.590   3.384  1.00  0.00     0.119 A 
BRANCH  23  26
HETATM   26  C   UNL     1      43.636 -18.139   3.372  1.00  0.00     0.058 A 
HETATM   27  C   UNL     1      43.275 -18.748   2.158  1.00  0.00     0.033 A 
HETATM   28  C   UNL     1      43.581 -20.092   1.922  1.00  0.00     0.026 A 
HETATM   29  C   UNL     1      44.248 -20.833   2.895  1.00  0.00     0.034 A 
HETATM   30 CL   UNL     1      44.628 -22.484   2.604  1.00  0.00    -0.084 Cl
HETATM   31  C   UNL     1      44.610 -20.241   4.103  1.00  0.00     0.026 A 
HETATM   32  C   UNL     1      44.306 -18.896   4.345  1.00  0.00     0.033 A 
ENDBRANCH  23  26
BRANCH  25  33
HETATM   33  O   UNL     1      43.181 -13.344   2.898  1.00  0.00    -0.357 OA
HETATM   34  H   UNL     1      42.299 -12.979   2.713  1.00  0.00     0.218 HD
ENDBRANCH  25  33
ENDBRANCH   2  21
TORSDOF 8
ENDMDL
MODEL 5
REMARK VINA RESULT:      -8.7      2.186      3.421
REMARK  8 active torsions:
REMARK  status: ('A' for Active; 'I' for Inactive)
REMARK    1  A    between atoms: C_4  and  C_5 
REMARK       I    between atoms: C_5  and  N_6 
REMARK    2  A    between atoms: N_6  and  C_7 
REMARK    3  A    between atoms: C_7  and  C_8 
REMARK    4  A    between atoms: C_8  and  C_9 
REMARK       I    between atoms: C_9  and  N_10 
REMARK    5  A    between atoms: N_10  and  N_11 
REMARK       I    between atoms: N_11  and  C_12 
REMARK    6  A    between atoms: C_12  and  C_13 
REMARK    7  A    between atoms: N_15  and  C_16 
REMARK    8  A    between atoms: C_24  and  O_25 
ROOT
HETATM    1  N   UNL     1      43.994 -14.212   7.129  1.00  0.00    -0.262 N 
HETATM    2  C   UNL     1      43.170 -13.781   6.104  1.00  0.00     0.293 C 
HETATM    3  O   UNL     1      42.422 -12.812   6.237  1.00  0.00    -0.264 OA
HETATM    4  H   UNL     1      44.726 -14.896   6.930  1.00  0.00     0.190 HD
ENDROOT
BRANCH   1   5
HETATM    5  N   UNL     1      44.116 -13.420   8.281  1.00  0.00    -0.267 N 
HETATM    6  C   UNL     1      45.267 -12.669   8.426  1.00  0.00     0.237 C 
HETATM    7  O   UNL     1      46.250 -12.802   7.702  1.00  0.00    -0.272 OA
HETATM    8  H   UNL     1      43.234 -13.115   8.694  1.00  0.00     0.190 HD
BRANCH   6   9
HETATM    9  C   UNL     1      45.212 -11.732   9.611  1.00  0.00     0.124 C 
BRANCH   9  10
HETATM   10  C   UNL     1      44.182 -12.198  10.631  1.00  0.00     0.132 C 
BRANCH  10  11
HETATM   11  N   UNL     1      42.891 -11.556  10.455  1.00  0.00    -0.356 N 
HETATM   12  C   UNL     1      42.067 -11.273  11.524  1.00  0.00     0.251 C 
HETATM   13  O   UNL     1      42.385 -11.478  12.690  1.00  0.00    -0.268 OA
HETATM   14  H   UNL     1      42.647 -11.225   9.532  1.00  0.00     0.162 HD
BRANCH  12  15
HETATM   15  C   UNL     1      40.749 -10.656  11.202  1.00  0.00     0.032 A 
HETATM   16  C   UNL     1      39.999  -9.965  12.163  1.00  0.00     0.017 A 
HETATM   17  C   UNL     1      38.774  -9.391  11.814  1.00  0.00     0.001 A 
HETATM   18  C   UNL     1      38.299  -9.498  10.507  1.00  0.00     0.000 A 
HETATM   19  C   UNL     1      39.049 -10.170   9.543  1.00  0.00     0.001 A 
HETATM   20  C   UNL     1      40.274 -10.745   9.888  1.00  0.00     0.017 A 
ENDBRANCH  12  15
ENDBRANCH  10  11
ENDBRANCH   9  10
ENDBRANCH   6   9
ENDBRANCH   1   5
BRANCH   2  21
HETATM   21  C   UNL     1      43.290 -14.582   4.880  1.00  0.00     0.181 A 
HETATM   22  N   UNL     1      43.498 -15.915   4.922  1.00  0.00    -0.159 NA
HETATM   23  N   UNL     1      43.528 -16.317   3.621  1.00  0.00    -0.242 N 
HETATM   24  C   UNL     1      43.375 -15.255   2.757  1.00  0.00     0.158 A 
HETATM   25  C   UNL     1      43.217 -14.145   3.540  1.00  0.00     0.119 A 
BRANCH  23  26
HETATM   26  C   UNL     1      43.694 -17.694   3.290  1.00  0.00     0.058 A 
HETATM   27  C   UNL     1      43.393 -18.134   1.991  1.00  0.00     0.033 A 
HETATM   28  C   UNL     1      43.560 -19.479   1.642  1.00  0.00     0.026 A 
HETATM   29  C   UNL     1      44.026 -20.387   2.589  1.00  0.00     0.034 A 
HETATM   30 CL   UNL     1      44.234 -22.040   2.161  1.00  0.00    -0.084 Cl
HETATM   31  C   UNL     1      44.325 -19.964   3.882  1.00  0.00     0.026 A 
HETATM   32  C   UNL     1      44.161 -18.620   4.237  1.00  0.00     0.033 A 
ENDBRANCH  23  26
BRANCH  25  33
HETATM   33  O   UNL     1      43.030 -12.905   3.068  1.00  0.00    -0.357 OA
HETATM   34  H   UNL     1      43.059 -12.247   3.783  1.00  0.00     0.218 HD
ENDBRANCH  25  33
ENDBRANCH   2  21
TORSDOF 8
ENDMDL
MODEL 6
REMARK VINA RESULT:      -8.4      5.230      9.049
REMARK  8 active torsions:
REMARK  status: ('A' for Active; 'I' for Inactive)
REMARK    1  A    between atoms: C_4  and  C_5 
REMARK       I    between atoms: C_5  and  N_6 
REMARK    2  A    between atoms: N_6  and  C_7 
REMARK    3  A    between atoms: C_7  and  C_8 
REMARK    4  A    between atoms: C_8  and  C_9 
REMARK       I    between atoms: C_9  and  N_10 
REMARK    5  A    between atoms: N_10  and  N_11 
REMARK       I    between atoms: N_11  and  C_12 
REMARK    6  A    between atoms: C_12  and  C_13 
REMARK    7  A    between atoms: N_15  and  C_16 
REMARK    8  A    between atoms: C_24  and  O_25 
ROOT
HETATM    1  N   UNL     1      41.999 -14.992   4.052  1.00  0.00    -0.262 N 
HETATM    2  C   UNL     1      42.428 -13.759   3.588  1.00  0.00     0.293 C 
HETATM    3  O   UNL     1      43.266 -13.093   4.194  1.00  0.00    -0.264 OA
HETATM    4  H   UNL     1      41.447 -15.593   3.440  1.00  0.00     0.190 HD
ENDROOT
BRANCH   1   5
HETATM    5  N   UNL     1      42.667 -15.576   5.139  1.00  0.00    -0.267 N 
HETATM    6  C   UNL     1      41.896 -16.150   6.133  1.00  0.00     0.237 C 
HETATM    7  O   UNL     1      40.678 -16.010   6.201  1.00  0.00    -0.272 OA
HETATM    8  H   UNL     1      43.606 -15.919   4.940  1.00  0.00     0.190 HD
BRANCH   6   9
HETATM    9  C   UNL     1      42.719 -16.892   7.161  1.00  0.00     0.124 C 
BRANCH   9  10
HETATM   10  C   UNL     1      44.142 -17.113   6.666  1.00  0.00     0.132 C 
BRANCH  10  11
HETATM   11  N   UNL     1      44.335 -18.432   6.089  1.00  0.00    -0.356 N 
HETATM   12  C   UNL     1      44.241 -18.654   4.731  1.00  0.00     0.251 C 
HETATM   13  O   UNL     1      44.056 -17.757   3.915  1.00  0.00    -0.268 OA
HETATM   14  H   UNL     1      44.642 -19.177   6.699  1.00  0.00     0.162 HD
BRANCH  12  15
HETATM   15  C   UNL     1      44.413 -20.062   4.273  1.00  0.00     0.032 A 
HETATM   16  C   UNL     1      44.679 -21.106   5.169  1.00  0.00     0.017 A 
HETATM   17  C   UNL     1      44.821 -22.414   4.697  1.00  0.00     0.001 A 
HETATM   18  C   UNL     1      44.689 -22.683   3.335  1.00  0.00     0.000 A 
HETATM   19  C   UNL     1      44.408 -21.651   2.442  1.00  0.00     0.001 A 
HETATM   20  C   UNL     1      44.265 -20.343   2.909  1.00  0.00     0.017 A 
ENDBRANCH  12  15
ENDBRANCH  10  11
ENDBRANCH   9  10
ENDBRANCH   6   9
ENDBRANCH   1   5
BRANCH   2  21
HETATM   21  C   UNL     1      41.792 -13.355   2.328  1.00  0.00     0.181 A 
HETATM   22  N   UNL     1      41.519 -14.248   1.353  1.00  0.00    -0.159 NA
HETATM   23  N   UNL     1      40.919 -13.531   0.363  1.00  0.00    -0.242 N 
HETATM   24  C   UNL     1      40.837 -12.193   0.684  1.00  0.00     0.158 A 
HETATM   25  C   UNL     1      41.382 -12.065   1.931  1.00  0.00     0.119 A 
BRANCH  23  26
HETATM   26  C   UNL     1      40.454 -14.174  -0.821  1.00  0.00     0.058 A 
HETATM   27  C   UNL     1      39.272 -13.726  -1.434  1.00  0.00     0.033 A 
HETATM   28  C   UNL     1      38.806 -14.336  -2.603  1.00  0.00     0.026 A 
HETATM   29  C   UNL     1      39.516 -15.394  -3.164  1.00  0.00     0.034 A 
HETATM   30 CL   UNL     1      38.946 -16.142  -4.603  1.00  0.00    -0.084 Cl
HETATM   31  C   UNL     1      40.689 -15.849  -2.564  1.00  0.00     0.026 A 
HETATM   32  C   UNL     1      41.161 -15.243  -1.395  1.00  0.00     0.033 A 
ENDBRANCH  23  26
BRANCH  25  33
HETATM   33  O   UNL     1      41.480 -10.908   2.600  1.00  0.00    -0.357 OA
HETATM   34  H   UNL     1      40.897 -10.899   3.378  1.00  0.00     0.218 HD
ENDBRANCH  25  33
ENDBRANCH   2  21
TORSDOF 8
ENDMDL
MODEL 7
REMARK VINA RESULT:      -8.2      5.594      9.472
REMARK  8 active torsions:
REMARK  status: ('A' for Active; 'I' for Inactive)
REMARK    1  A    between atoms: C_4  and  C_5 
REMARK       I    between atoms: C_5  and  N_6 
REMARK    2  A    between atoms: N_6  and  C_7 
REMARK    3  A    between atoms: C_7  and  C_8 
REMARK    4  A    between atoms: C_8  and  C_9 
REMARK       I    between atoms: C_9  and  N_10 
REMARK    5  A    between atoms: N_10  and  N_11 
REMARK       I    between atoms: N_11  and  C_12 
REMARK    6  A    between atoms: C_12  and  C_13 
REMARK    7  A    between atoms: N_15  and  C_16 
REMARK    8  A    between atoms: C_24  and  O_25 
ROOT
HETATM    1  N   UNL     1      41.580 -14.978   4.556  1.00  0.00    -0.262 N 
HETATM    2  C   UNL     1      42.430 -14.619   3.524  1.00  0.00     0.293 C 
HETATM    3  O   UNL     1      43.641 -14.488   3.696  1.00  0.00    -0.264 OA
HETATM    4  H   UNL     1      40.620 -15.254   4.343  1.00  0.00     0.190 HD
ENDROOT
BRANCH   1   5
HETATM    5  N   UNL     1      42.134 -15.378   5.782  1.00  0.00    -0.267 N 
HETATM    6  C   UNL     1      42.066 -16.719   6.111  1.00  0.00     0.237 C 
HETATM    7  O   UNL     1      41.393 -17.530   5.481  1.00  0.00    -0.272 OA
HETATM    8  H   UNL     1      42.891 -14.790   6.130  1.00  0.00     0.190 HD
BRANCH   6   9
HETATM    9  C   UNL     1      42.839 -17.057   7.365  1.00  0.00     0.124 C 
BRANCH   9  10
HETATM   10  C   UNL     1      44.233 -17.568   7.027  1.00  0.00     0.132 C 
BRANCH  10  11
HETATM   11  N   UNL     1      44.260 -18.353   5.805  1.00  0.00    -0.356 N 
HETATM   12  C   UNL     1      44.137 -19.727   5.819  1.00  0.00     0.251 C 
HETATM   13  O   UNL     1      43.934 -20.372   6.842  1.00  0.00    -0.268 OA
HETATM   14  H   UNL     1      44.270 -17.859   4.923  1.00  0.00     0.162 HD
BRANCH  12  15
HETATM   15  C   UNL     1      44.228 -20.416   4.501  1.00  0.00     0.032 A 
HETATM   16  C   UNL     1      44.626 -21.755   4.390  1.00  0.00     0.017 A 
HETATM   17  C   UNL     1      44.685 -22.365   3.134  1.00  0.00     0.001 A 
HETATM   18  C   UNL     1      44.341 -21.645   1.990  1.00  0.00     0.000 A 
HETATM   19  C   UNL     1      43.929 -20.318   2.097  1.00  0.00     0.001 A 
HETATM   20  C   UNL     1      43.868 -19.704   3.350  1.00  0.00     0.017 A 
ENDBRANCH  12  15
ENDBRANCH  10  11
ENDBRANCH   9  10
ENDBRANCH   6   9
ENDBRANCH   1   5
BRANCH   2  21
HETATM   21  C   UNL     1      41.743 -14.426   2.241  1.00  0.00     0.181 A 
HETATM   22  N   UNL     1      42.286 -13.686   1.250  1.00  0.00    -0.159 NA
HETATM   23  N   UNL     1      41.395 -13.750   0.222  1.00  0.00    -0.242 N 
HETATM   24  C   UNL     1      40.283 -14.491   0.558  1.00  0.00     0.158 A 
HETATM   25  C   UNL     1      40.490 -14.933   1.835  1.00  0.00     0.119 A 
BRANCH  23  26
HETATM   26  C   UNL     1      41.671 -13.104  -1.019  1.00  0.00     0.058 A 
HETATM   27  C   UNL     1      41.125 -13.622  -2.205  1.00  0.00     0.033 A 
HETATM   28  C   UNL     1      41.373 -12.997  -3.432  1.00  0.00     0.026 A 
HETATM   29  C   UNL     1      42.168 -11.855  -3.478  1.00  0.00     0.034 A 
HETATM   30 CL   UNL     1      42.472 -11.083  -4.985  1.00  0.00    -0.084 Cl
HETATM   31  C   UNL     1      42.718 -11.332  -2.309  1.00  0.00     0.026 A 
HETATM   32  C   UNL     1      42.472 -11.953  -1.079  1.00  0.00     0.033 A 
ENDBRANCH  23  26
BRANCH  25  33
HETATM   33  O   UNL     1      39.631 -15.700   2.521  1.00  0.00    -0.357 OA
HETATM   34  H   UNL     1      40.060 -16.108   3.292  1.00  0.00     0.218 HD
ENDBRANCH  25  33
ENDBRANCH   2  21
TORSDOF 8
ENDMDL
MODEL 8
REMARK VINA RESULT:      -8.1      2.205      3.111
REMARK  8 active torsions:
REMARK  status: ('A' for Active; 'I' for Inactive)
REMARK    1  A    between atoms: C_4  and  C_5 
REMARK       I    between atoms: C_5  and  N_6 
REMARK    2  A    between atoms: N_6  and  C_7 
REMARK    3  A    between atoms: C_7  and  C_8 
REMARK    4  A    between atoms: C_8  and  C_9 
REMARK       I    between atoms: C_9  and  N_10 
REMARK    5  A    between atoms: N_10  and  N_11 
REMARK       I    between atoms: N_11  and  C_12 
REMARK    6  A    between atoms: C_12  and  C_13 
REMARK    7  A    between atoms: N_15  and  C_16 
REMARK    8  A    between atoms: C_24  and  O_25 
ROOT
HETATM    1  N   UNL     1      40.977 -14.237   3.180  1.00  0.00    -0.262 N 
HETATM    2  C   UNL     1      42.257 -14.308   2.656  1.00  0.00     0.293 C 
HETATM    3  O   UNL     1      42.972 -13.312   2.553  1.00  0.00    -0.264 OA
HETATM    4  H   UNL     1      40.485 -15.099   3.419  1.00  0.00     0.190 HD
ENDROOT
BRANCH   1   5
HETATM    5  N   UNL     1      40.553 -13.039   3.774  1.00  0.00    -0.267 N 
HETATM    6  C   UNL     1      40.272 -13.057   5.127  1.00  0.00     0.237 C 
HETATM    7  O   UNL     1      40.197 -14.093   5.783  1.00  0.00    -0.272 OA
HETATM    8  H   UNL     1      40.880 -12.187   3.318  1.00  0.00     0.190 HD
BRANCH   6   9
HETATM    9  C   UNL     1      39.990 -11.682   5.688  1.00  0.00     0.124 C 
BRANCH   9  10
HETATM   10  C   UNL     1      41.282 -10.972   6.070  1.00  0.00     0.132 C 
BRANCH  10  11
HETATM   11  N   UNL     1      41.743 -11.328   7.401  1.00  0.00    -0.356 N 
HETATM   12  C   UNL     1      42.092 -10.371   8.332  1.00  0.00     0.251 C 
HETATM   13  O   UNL     1      41.978  -9.167   8.131  1.00  0.00    -0.268 OA
HETATM   14  H   UNL     1      41.708 -12.301   7.672  1.00  0.00     0.162 HD
BRANCH  12  15
HETATM   15  C   UNL     1      42.593 -10.870   9.644  1.00  0.00     0.032 A 
HETATM   16  C   UNL     1      43.874 -11.420   9.787  1.00  0.00     0.017 A 
HETATM   17  C   UNL     1      44.308 -11.865  11.039  1.00  0.00     0.001 A 
HETATM   18  C   UNL     1      43.470 -11.754  12.149  1.00  0.00     0.000 A 
HETATM   19  C   UNL     1      42.201 -11.192  12.014  1.00  0.00     0.001 A 
HETATM   20  C   UNL     1      41.764 -10.746  10.765  1.00  0.00     0.017 A 
ENDBRANCH  12  15
ENDBRANCH  10  11
ENDBRANCH   9  10
ENDBRANCH   6   9
ENDBRANCH   1   5
BRANCH   2  21
HETATM   21  C   UNL     1      42.652 -15.664   2.256  1.00  0.00     0.181 A 
HETATM   22  N   UNL     1      43.147 -16.550   3.147  1.00  0.00    -0.159 NA
HETATM   23  N   UNL     1      43.373 -17.689   2.435  1.00  0.00    -0.242 N 
HETATM   24  C   UNL     1      43.060 -17.527   1.103  1.00  0.00     0.158 A 
HETATM   25  C   UNL     1      42.595 -16.248   0.973  1.00  0.00     0.119 A 
BRANCH  23  26
HETATM   26  C   UNL     1      43.867 -18.862   3.079  1.00  0.00     0.058 A 
HETATM   27  C   UNL     1      44.167 -18.824   4.451  1.00  0.00     0.033 A 
HETATM   28  C   UNL     1      44.641 -19.966   5.104  1.00  0.00     0.026 A 
HETATM   29  C   UNL     1      44.818 -21.149   4.390  1.00  0.00     0.034 A 
HETATM   30 CL   UNL     1      45.398 -22.555   5.193  1.00  0.00    -0.084 Cl
HETATM   31  C   UNL     1      44.526 -21.199   3.029  1.00  0.00     0.026 A 
HETATM   32  C   UNL     1      44.051 -20.059   2.370  1.00  0.00     0.033 A 
ENDBRANCH  23  26
BRANCH  25  33
HETATM   33  O   UNL     1      42.177 -15.707  -0.180  1.00  0.00    -0.357 OA
HETATM   34  H   UNL     1      42.925 -15.383  -0.710  1.00  0.00     0.218 HD
ENDBRANCH  25  33
ENDBRANCH   2  21
TORSDOF 8
ENDMDL
MODEL 9
REMARK VINA RESULT:      -8.1      4.837      8.551
REMARK  8 active torsions:
REMARK  status: ('A' for Active; 'I' for Inactive)
REMARK    1  A    between atoms: C_4  and  C_5 
REMARK       I    between atoms: C_5  and  N_6 
REMARK    2  A    between atoms: N_6  and  C_7 
REMARK    3  A    between atoms: C_7  and  C_8 
REMARK    4  A    between atoms: C_8  and  C_9 
REMARK       I    between atoms: C_9  and  N_10 
REMARK    5  A    between atoms: N_10  and  N_11 
REMARK       I    between atoms: N_11  and  C_12 
REMARK    6  A    between atoms: C_12  and  C_13 
REMARK    7  A    between atoms: N_15  and  C_16 
REMARK    8  A    between atoms: C_24  and  O_25 
ROOT
HETATM    1  N   UNL     1      42.183 -13.050   2.747  1.00  0.00    -0.262 N 
HETATM    2  C   UNL     1      42.379 -13.169   4.112  1.00  0.00     0.293 C 
HETATM    3  O   UNL     1      42.174 -12.231   4.881  1.00  0.00    -0.264 OA
HETATM    4  H   UNL     1      42.186 -13.889   2.165  1.00  0.00     0.190 HD
ENDROOT
BRANCH   1   5
HETATM    5  N   UNL     1      41.564 -11.894   2.249  1.00  0.00    -0.267 N 
HETATM    6  C   UNL     1      41.829 -11.536   0.940  1.00  0.00     0.237 C 
HETATM    7  O   UNL     1      42.707 -12.067   0.264  1.00  0.00    -0.272 OA
HETATM    8  H   UNL     1      40.678 -11.649   2.691  1.00  0.00     0.190 HD
BRANCH   6   9
HETATM    9  C   UNL     1      40.981 -10.379   0.463  1.00  0.00     0.124 C 
BRANCH   9  10
HETATM   10  C   UNL     1      39.564 -10.835   0.141  1.00  0.00     0.132 C 
BRANCH  10  11
HETATM   11  N   UNL     1      39.527 -11.858  -0.890  1.00  0.00    -0.356 N 
HETATM   12  C   UNL     1      39.355 -13.192  -0.588  1.00  0.00     0.251 C 
HETATM   13  O   UNL     1      39.157 -13.602   0.551  1.00  0.00    -0.268 OA
HETATM   14  H   UNL     1      39.531 -11.559  -1.856  1.00  0.00     0.162 HD
BRANCH  12  15
HETATM   15  C   UNL     1      39.384 -14.144  -1.734  1.00  0.00     0.032 A 
HETATM   16  C   UNL     1      40.495 -14.956  -1.996  1.00  0.00     0.017 A 
HETATM   17  C   UNL     1      40.474 -15.843  -3.076  1.00  0.00     0.001 A 
HETATM   18  C   UNL     1      39.343 -15.928  -3.889  1.00  0.00     0.000 A 
HETATM   19  C   UNL     1      38.229 -15.134  -3.622  1.00  0.00     0.001 A 
HETATM   20  C   UNL     1      38.246 -14.247  -2.544  1.00  0.00     0.017 A 
ENDBRANCH  12  15
ENDBRANCH  10  11
ENDBRANCH   9  10
ENDBRANCH   6   9
ENDBRANCH   1   5
BRANCH   2  21
HETATM   21  C   UNL     1      42.839 -14.501   4.524  1.00  0.00     0.181 A 
HETATM   22  N   UNL     1      42.910 -15.528   3.651  1.00  0.00    -0.159 NA
HETATM   23  N   UNL     1      43.394 -16.580   4.368  1.00  0.00    -0.242 N 
HETATM   24  C   UNL     1      43.601 -16.242   5.689  1.00  0.00     0.158 A 
HETATM   25  C   UNL     1      43.258 -14.924   5.804  1.00  0.00     0.119 A 
BRANCH  23  26
HETATM   26  C   UNL     1      43.637 -17.837   3.741  1.00  0.00     0.058 A 
HETATM   27  C   UNL     1      44.222 -18.878   4.481  1.00  0.00     0.033 A 
HETATM   28  C   UNL     1      44.457 -20.123   3.888  1.00  0.00     0.026 A 
HETATM   29  C   UNL     1      44.110 -20.332   2.556  1.00  0.00     0.034 A 
HETATM   30 CL   UNL     1      44.396 -21.863   1.827  1.00  0.00    -0.084 Cl
HETATM   31  C   UNL     1      43.532 -19.307   1.811  1.00  0.00     0.026 A 
HETATM   32  C   UNL     1      43.293 -18.059   2.398  1.00  0.00     0.033 A 
ENDBRANCH  23  26
BRANCH  25  33
HETATM   33  O   UNL     1      43.329 -14.218   6.941  1.00  0.00    -0.357 OA
HETATM   34  H   UNL     1      44.211 -13.826   7.059  1.00  0.00     0.218 HD
ENDBRANCH  25  33
ENDBRANCH   2  21
TORSDOF 8
ENDMDL
MODEL 10
REMARK VINA RESULT:      -8.0      1.854      3.030
REMARK  8 active torsions:
REMARK  status: ('A' for Active; 'I' for Inactive)
REMARK    1  A    between atoms: C_4  and  C_5 
REMARK       I    between atoms: C_5  and  N_6 
REMARK    2  A    between atoms: N_6  and  C_7 
REMARK    3  A    between atoms: C_7  and  C_8 
REMARK    4  A    between atoms: C_8  and  C_9 
REMARK       I    between atoms: C_9  and  N_10 
REMARK    5  A    between atoms: N_10  and  N_11 
REMARK       I    between atoms: N_11  and  C_12 
REMARK    6  A    between atoms: C_12  and  C_13 
REMARK    7  A    between atoms: N_15  and  C_16 
REMARK    8  A    between atoms: C_24  and  O_25 
ROOT
HETATM    1  N   UNL     1      42.774 -13.452   4.064  1.00  0.00    -0.262 N 
HETATM    2  C   UNL     1      42.964 -13.825   5.384  1.00  0.00     0.293 C 
HETATM    3  O   UNL     1      42.826 -13.027   6.310  1.00  0.00    -0.264 OA
HETATM    4  H   UNL     1      42.718 -14.173   3.342  1.00  0.00     0.190 HD
ENDROOT
BRANCH   1   5
HETATM    5  N   UNL     1      42.236 -12.186   3.788  1.00  0.00    -0.267 N 
HETATM    6  C   UNL     1      41.100 -12.128   3.003  1.00  0.00     0.237 C 
HETATM    7  O   UNL     1      40.655 -13.098   2.394  1.00  0.00    -0.272 OA
HETATM    8  H   UNL     1      42.427 -11.470   4.488  1.00  0.00     0.190 HD
BRANCH   6   9
HETATM    9  C   UNL     1      40.517 -10.736   2.914  1.00  0.00     0.124 C 
BRANCH   9  10
HETATM   10  C   UNL     1      39.399 -10.545   3.931  1.00  0.00     0.132 C 
BRANCH  10  11
HETATM   11  N   UNL     1      39.899 -10.361   5.282  1.00  0.00    -0.356 N 
HETATM   12  C   UNL     1      39.564 -11.221   6.307  1.00  0.00     0.251 C 
HETATM   13  O   UNL     1      38.885 -12.228   6.142  1.00  0.00    -0.268 OA
HETATM   14  H   UNL     1      40.587  -9.637   5.439  1.00  0.00     0.162 HD
BRANCH  12  15
HETATM   15  C   UNL     1      40.106 -10.892   7.656  1.00  0.00     0.032 A 
HETATM   16  C   UNL     1      39.448 -11.274   8.832  1.00  0.00     0.017 A 
HETATM   17  C   UNL     1      39.998 -10.955  10.076  1.00  0.00     0.001 A 
HETATM   18  C   UNL     1      41.208 -10.263  10.149  1.00  0.00     0.000 A 
HETATM   19  C   UNL     1      41.875  -9.896   8.981  1.00  0.00     0.001 A 
HETATM   20  C   UNL     1      41.328 -10.213   7.736  1.00  0.00     0.017 A 
ENDBRANCH  12  15
ENDBRANCH  10  11
ENDBRANCH   9  10
ENDBRANCH   6   9
ENDBRANCH   1   5
BRANCH   2  21
HETATM   21  C   UNL     1      43.331 -15.238   5.546  1.00  0.00     0.181 A 
HETATM   22  N   UNL     1      43.304 -16.101   4.509  1.00  0.00    -0.159 NA
HETATM   23  N   UNL     1      43.723 -17.292   5.019  1.00  0.00    -0.242 N 
HETATM   24  C   UNL     1      43.984 -17.203   6.369  1.00  0.00     0.158 A 
HETATM   25  C   UNL     1      43.745 -15.903   6.719  1.00  0.00     0.119 A 
BRANCH  23  26
HETATM   26  C   UNL     1      43.855 -18.436   4.179  1.00  0.00     0.058 A 
HETATM   27  C   UNL     1      43.306 -18.413   2.886  1.00  0.00     0.033 A 
HETATM   28  C   UNL     1      43.434 -19.520   2.041  1.00  0.00     0.026 A 
HETATM   29  C   UNL     1      44.110 -20.654   2.484  1.00  0.00     0.034 A 
HETATM   30 CL   UNL     1      44.272 -22.015   1.446  1.00  0.00    -0.084 Cl
HETATM   31  C   UNL     1      44.657 -20.692   3.765  1.00  0.00     0.026 A 
HETATM   32  C   UNL     1      44.532 -19.586   4.615  1.00  0.00     0.033 A 
ENDBRANCH  23  26
BRANCH  25  33
HETATM   33  O   UNL     1      43.895 -15.412   7.957  1.00  0.00    -0.357 OA
HETATM   34  H   UNL     1      44.604 -15.874   8.437  1.00  0.00     0.218 HD
ENDBRANCH  25  33
ENDBRANCH   2  21
TORSDOF 8
ENDMDL
