MODEL 1
REMARK VINA RESULT:      -7.5      0.000      0.000
REMARK  3 active torsions:
REMARK  status: ('A' for Active; 'I' for Inactive)
REMARK    1  A    between atoms: C_3  and  N_4 
REMARK       I    between atoms: N_4  and  C_5 
REMARK       I    between atoms: C_5  and  N_6 
REMARK    2  A    between atoms: N_6  and  C_7 
REMARK    3  A    between atoms: C_7  and  C_8 
ROOT
HETATM    1  C   UNL     1      43.249 -17.649   3.839  1.00  0.00    -0.036 A 
HETATM    2  C   UNL     1      42.814 -18.027   2.561  1.00  0.00     0.011 A 
HETATM    3  C   UNL     1      43.160 -19.273   2.024  1.00  0.00     0.023 A 
HETATM    4  C   UNL     1      43.951 -20.162   2.755  1.00  0.00     0.044 A 
HETATM    5  C   UNL     1      44.305 -21.437   2.205  1.00  0.00     0.099 C 
HETATM    6  N   UNL     1      44.595 -22.471   1.763  1.00  0.00    -0.191 NA
HETATM    7  C   UNL     1      44.398 -19.799   4.026  1.00  0.00     0.023 A 
HETATM    8  C   UNL     1      44.050 -18.554   4.560  1.00  0.00     0.011 A 
ENDROOT
BRANCH   1   9
HETATM    9  C   UNL     1      42.921 -16.304   4.467  1.00  0.00     0.115 C 
HETATM   10  C   UNL     1      43.468 -16.188   5.891  1.00  0.00     0.037 C 
BRANCH   9  11
HETATM   11  N   UNL     1      43.167 -15.150   3.603  1.00  0.00    -0.335 N 
HETATM   12  C   UNL     1      42.430 -14.423   2.724  1.00  0.00     0.321 C 
HETATM   13  N   UNL     1      41.184 -14.887   2.431  1.00  0.00    -0.307 N 
HETATM   14  O   UNL     1      42.955 -13.420   2.255  1.00  0.00    -0.247 OA
HETATM   15  H   UNL     1      41.116 -15.889   2.469  1.00  0.00     0.170 HD
HETATM   16  H   UNL     1      44.042 -14.670   3.779  1.00  0.00     0.165 HD
BRANCH  13  17
HETATM   17  C   UNL     1      40.209 -14.263   1.613  1.00  0.00     0.059 A 
HETATM   18  C   UNL     1      40.119 -14.325   0.215  1.00  0.00    -0.032 A 
HETATM   19  C   UNL     1      41.108 -15.010  -0.684  1.00  0.00     0.050 C 
HETATM   20  C   UNL     1      39.036 -13.680  -0.410  1.00  0.00     0.028 A 
HETATM   21  C   UNL     1      38.134 -12.953   0.350  1.00  0.00     0.117 A 
HETATM   22  N   UNL     1      38.233 -12.815   1.683  1.00  0.00    -0.271 NA
HETATM   23  C   UNL     1      39.261 -13.468   2.274  1.00  0.00     0.146 A 
ENDBRANCH  13  17
ENDBRANCH   9  11
ENDBRANCH   1   9
TORSDOF 3
ENDMDL
MODEL 2
REMARK VINA RESULT:      -7.4      0.946      2.037
REMARK  3 active torsions:
REMARK  status: ('A' for Active; 'I' for Inactive)
REMARK    1  A    between atoms: C_3  and  N_4 
REMARK       I    between atoms: N_4  and  C_5 
REMARK       I    between atoms: C_5  and  N_6 
REMARK    2  A    between atoms: N_6  and  C_7 
REMARK    3  A    between atoms: C_7  and  C_8 
ROOT
HETATM    1  C   UNL     1      43.460 -17.557   3.973  1.00  0.00    -0.036 A 
HETATM    2  C   UNL     1      44.180 -18.552   4.648  1.00  0.00     0.011 A 
HETATM    3  C   UNL     1      44.430 -19.791   4.045  1.00  0.00     0.023 A 
HETATM    4  C   UNL     1      43.959 -20.058   2.757  1.00  0.00     0.044 A 
HETATM    5  C   UNL     1      44.214 -21.327   2.141  1.00  0.00     0.099 C 
HETATM    6  N   UNL     1      44.418 -22.353   1.638  1.00  0.00    -0.191 NA
HETATM    7  C   UNL     1      43.234 -19.081   2.076  1.00  0.00     0.023 A 
HETATM    8  C   UNL     1      42.987 -17.843   2.679  1.00  0.00     0.011 A 
ENDROOT
BRANCH   1   9
HETATM    9  C   UNL     1      43.142 -16.201   4.582  1.00  0.00     0.115 C 
HETATM   10  C   UNL     1      43.809 -16.016   5.947  1.00  0.00     0.037 C 
BRANCH   9  11
HETATM   11  N   UNL     1      43.272 -15.072   3.662  1.00  0.00    -0.335 N 
HETATM   12  C   UNL     1      42.409 -14.259   2.999  1.00  0.00     0.321 C 
HETATM   13  N   UNL     1      41.088 -14.579   3.060  1.00  0.00    -0.307 N 
HETATM   14  O   UNL     1      42.896 -13.315   2.387  1.00  0.00    -0.247 OA
HETATM   15  H   UNL     1      40.924 -15.567   3.135  1.00  0.00     0.170 HD
HETATM   16  H   UNL     1      44.209 -14.693   3.588  1.00  0.00     0.165 HD
BRANCH  13  17
HETATM   17  C   UNL     1      40.003 -13.843   2.522  1.00  0.00     0.059 A 
HETATM   18  C   UNL     1      39.452 -12.660   3.035  1.00  0.00    -0.032 A 
HETATM   19  C   UNL     1      39.871 -11.997   4.317  1.00  0.00     0.050 C 
HETATM   20  C   UNL     1      38.409 -12.046   2.318  1.00  0.00     0.028 A 
HETATM   21  C   UNL     1      37.911 -12.650   1.174  1.00  0.00     0.117 A 
HETATM   22  N   UNL     1      38.368 -13.820   0.696  1.00  0.00    -0.271 NA
HETATM   23  C   UNL     1      39.394 -14.380   1.379  1.00  0.00     0.146 A 
ENDBRANCH  13  17
ENDBRANCH   9  11
ENDBRANCH   1   9
TORSDOF 3
ENDMDL
MODEL 3
REMARK VINA RESULT:      -7.4      1.879      2.415
REMARK  3 active torsions:
REMARK  status: ('A' for Active; 'I' for Inactive)
REMARK    1  A    between atoms: C_3  and  N_4 
REMARK       I    between atoms: N_4  and  C_5 
REMARK       I    between atoms: C_5  and  N_6 
REMARK    2  A    between atoms: N_6  and  C_7 
REMARK    3  A    between atoms: C_7  and  C_8 
ROOT
HETATM    1  C   UNL     1      43.517 -17.954   4.606  1.00  0.00    -0.036 A 
HETATM    2  C   UNL     1      42.859 -18.049   3.372  1.00  0.00     0.011 A 
HETATM    3  C   UNL     1      43.054 -19.156   2.537  1.00  0.00     0.023 A 
HETATM    4  C   UNL     1      43.915 -20.187   2.921  1.00  0.00     0.044 A 
HETATM    5  C   UNL     1      44.115 -21.320   2.066  1.00  0.00     0.099 C 
HETATM    6  N   UNL     1      44.280 -22.239   1.376  1.00  0.00    -0.191 NA
HETATM    7  C   UNL     1      44.583 -20.104   4.142  1.00  0.00     0.023 A 
HETATM    8  C   UNL     1      44.385 -18.998   4.975  1.00  0.00     0.011 A 
ENDROOT
BRANCH   1   9
HETATM    9  C   UNL     1      43.358 -16.769   5.545  1.00  0.00     0.115 C 
HETATM   10  C   UNL     1      44.037 -17.014   6.895  1.00  0.00     0.037 C 
BRANCH   9  11
HETATM   11  N   UNL     1      43.622 -15.467   4.936  1.00  0.00    -0.335 N 
HETATM   12  C   UNL     1      42.877 -14.376   4.620  1.00  0.00     0.321 C 
HETATM   13  N   UNL     1      41.529 -14.486   4.767  1.00  0.00    -0.307 N 
HETATM   14  O   UNL     1      43.481 -13.390   4.213  1.00  0.00    -0.247 OA
HETATM   15  H   UNL     1      41.188 -15.417   4.606  1.00  0.00     0.170 HD
HETATM   16  H   UNL     1      44.605 -15.236   4.841  1.00  0.00     0.165 HD
BRANCH  13  17
HETATM   17  C   UNL     1      40.561 -13.467   4.579  1.00  0.00     0.059 A 
HETATM   18  C   UNL     1      40.077 -12.981   3.357  1.00  0.00    -0.032 A 
HETATM   19  C   UNL     1      40.569 -13.407   2.002  1.00  0.00     0.050 C 
HETATM   20  C   UNL     1      39.068 -12.001   3.384  1.00  0.00     0.028 A 
HETATM   21  C   UNL     1      38.630 -11.496   4.597  1.00  0.00     0.117 A 
HETATM   22  N   UNL     1      39.125 -11.888   5.784  1.00  0.00    -0.271 NA
HETATM   23  C   UNL     1      40.070 -12.856   5.742  1.00  0.00     0.146 A 
ENDBRANCH  13  17
ENDBRANCH   9  11
ENDBRANCH   1   9
TORSDOF 3
ENDMDL
MODEL 4
REMARK VINA RESULT:      -7.3      1.131      1.745
REMARK  3 active torsions:
REMARK  status: ('A' for Active; 'I' for Inactive)
REMARK    1  A    between atoms: C_3  and  N_4 
REMARK       I    between atoms: N_4  and  C_5 
REMARK       I    between atoms: C_5  and  N_6 
REMARK    2  A    between atoms: N_6  and  C_7 
REMARK    3  A    between atoms: C_7  and  C_8 
ROOT
HETATM    1  C   UNL     1      42.864 -17.680   3.642  1.00  0.00    -0.036 A 
HETATM    2  C   UNL     1      42.466 -18.189   2.398  1.00  0.00     0.011 A 
HETATM    3  C   UNL     1      42.948 -19.421   1.938  1.00  0.00     0.023 A 
HETATM    4  C   UNL     1      43.841 -20.164   2.714  1.00  0.00     0.044 A 
HETATM    5  C   UNL     1      44.333 -21.425   2.243  1.00  0.00     0.099 C 
HETATM    6  N   UNL     1      44.735 -22.446   1.865  1.00  0.00    -0.191 NA
HETATM    7  C   UNL     1      44.252 -19.669   3.951  1.00  0.00     0.023 A 
HETATM    8  C   UNL     1      43.769 -18.439   4.409  1.00  0.00     0.011 A 
ENDROOT
BRANCH   1   9
HETATM    9  C   UNL     1      42.390 -16.342   4.185  1.00  0.00     0.115 C 
HETATM   10  C   UNL     1      42.611 -16.226   5.695  1.00  0.00     0.037 C 
BRANCH   9  11
HETATM   11  N   UNL     1      42.804 -15.182   3.399  1.00  0.00    -0.335 N 
HETATM   12  C   UNL     1      42.336 -14.543   2.295  1.00  0.00     0.321 C 
HETATM   13  N   UNL     1      41.304 -15.131   1.632  1.00  0.00    -0.307 N 
HETATM   14  O   UNL     1      42.896 -13.499   1.979  1.00  0.00    -0.247 OA
HETATM   15  H   UNL     1      41.316 -16.134   1.691  1.00  0.00     0.170 HD
HETATM   16  H   UNL     1      43.525 -14.615   3.830  1.00  0.00     0.165 HD
BRANCH  13  17
HETATM   17  C   UNL     1      40.602 -14.618   0.513  1.00  0.00     0.059 A 
HETATM   18  C   UNL     1      39.454 -13.812   0.537  1.00  0.00    -0.032 A 
HETATM   19  C   UNL     1      38.705 -13.412   1.776  1.00  0.00     0.050 C 
HETATM   20  C   UNL     1      38.938 -13.354  -0.690  1.00  0.00     0.028 A 
HETATM   21  C   UNL     1      39.525 -13.758  -1.879  1.00  0.00     0.117 A 
HETATM   22  N   UNL     1      40.581 -14.587  -1.938  1.00  0.00    -0.271 NA
HETATM   23  C   UNL     1      41.086 -14.992  -0.749  1.00  0.00     0.146 A 
ENDBRANCH  13  17
ENDBRANCH   9  11
ENDBRANCH   1   9
TORSDOF 3
ENDMDL
MODEL 5
REMARK VINA RESULT:      -7.2      2.118      3.402
REMARK  3 active torsions:
REMARK  status: ('A' for Active; 'I' for Inactive)
REMARK    1  A    between atoms: C_3  and  N_4 
REMARK       I    between atoms: N_4  and  C_5 
REMARK       I    between atoms: C_5  and  N_6 
REMARK    2  A    between atoms: N_6  and  C_7 
REMARK    3  A    between atoms: C_7  and  C_8 
ROOT
HETATM    1  C   UNL     1      43.283 -18.252   2.266  1.00  0.00    -0.036 A 
HETATM    2  C   UNL     1      43.521 -18.085   3.637  1.00  0.00     0.011 A 
HETATM    3  C   UNL     1      44.050 -19.129   4.407  1.00  0.00     0.023 A 
HETATM    4  C   UNL     1      44.346 -20.361   3.819  1.00  0.00     0.044 A 
HETATM    5  C   UNL     1      44.886 -21.428   4.607  1.00  0.00     0.099 C 
HETATM    6  N   UNL     1      45.324 -22.297   5.241  1.00  0.00    -0.191 NA
HETATM    7  C   UNL     1      44.108 -20.545   2.457  1.00  0.00     0.023 A 
HETATM    8  C   UNL     1      43.581 -19.501   1.689  1.00  0.00     0.011 A 
ENDROOT
BRANCH   1   9
HETATM    9  C   UNL     1      42.695 -17.163   1.384  1.00  0.00     0.115 C 
HETATM   10  C   UNL     1      41.201 -17.377   1.130  1.00  0.00     0.037 C 
BRANCH   9  11
HETATM   11  N   UNL     1      43.081 -15.803   1.754  1.00  0.00    -0.335 N 
HETATM   12  C   UNL     1      42.553 -14.823   2.533  1.00  0.00     0.321 C 
HETATM   13  N   UNL     1      41.306 -15.038   3.033  1.00  0.00    -0.307 N 
HETATM   14  O   UNL     1      43.238 -13.822   2.706  1.00  0.00    -0.247 OA
HETATM   15  H   UNL     1      40.728 -15.595   2.430  1.00  0.00     0.170 HD
HETATM   16  H   UNL     1      44.028 -15.548   1.497  1.00  0.00     0.165 HD
BRANCH  13  17
HETATM   17  C   UNL     1      40.588 -14.205   3.928  1.00  0.00     0.059 A 
HETATM   18  C   UNL     1      40.376 -14.426   5.297  1.00  0.00    -0.032 A 
HETATM   19  C   UNL     1      40.812 -15.650   6.051  1.00  0.00     0.050 C 
HETATM   20  C   UNL     1      39.682 -13.445   6.029  1.00  0.00     0.028 A 
HETATM   21  C   UNL     1      39.173 -12.332   5.380  1.00  0.00     0.117 A 
HETATM   22  N   UNL     1      39.296 -12.127   4.057  1.00  0.00    -0.271 NA
HETATM   23  C   UNL     1      39.995 -13.062   3.373  1.00  0.00     0.146 A 
ENDBRANCH  13  17
ENDBRANCH   9  11
ENDBRANCH   1   9
TORSDOF 3
ENDMDL
MODEL 6
REMARK VINA RESULT:      -7.2      2.633      6.845
REMARK  3 active torsions:
REMARK  status: ('A' for Active; 'I' for Inactive)
REMARK    1  A    between atoms: C_3  and  N_4 
REMARK       I    between atoms: N_4  and  C_5 
REMARK       I    between atoms: C_5  and  N_6 
REMARK    2  A    between atoms: N_6  and  C_7 
REMARK    3  A    between atoms: C_7  and  C_8 
ROOT
HETATM    1  C   UNL     1      42.333 -15.778   4.510  1.00  0.00    -0.036 A 
HETATM    2  C   UNL     1      43.066 -14.837   3.773  1.00  0.00     0.011 A 
HETATM    3  C   UNL     1      42.774 -14.595   2.425  1.00  0.00     0.023 A 
HETATM    4  C   UNL     1      41.745 -15.293   1.788  1.00  0.00     0.044 A 
HETATM    5  C   UNL     1      41.447 -15.045   0.409  1.00  0.00     0.099 C 
HETATM    6  N   UNL     1      41.202 -14.848  -0.709  1.00  0.00    -0.191 NA
HETATM    7  C   UNL     1      41.011 -16.238   2.505  1.00  0.00     0.023 A 
HETATM    8  C   UNL     1      41.304 -16.477   3.852  1.00  0.00     0.011 A 
ENDROOT
BRANCH   1   9
HETATM    9  C   UNL     1      42.615 -16.097   5.969  1.00  0.00     0.115 C 
HETATM   10  C   UNL     1      41.394 -16.695   6.671  1.00  0.00     0.037 C 
BRANCH   9  11
HETATM   11  N   UNL     1      43.880 -16.789   6.209  1.00  0.00    -0.335 N 
HETATM   12  C   UNL     1      44.445 -17.950   5.787  1.00  0.00     0.321 C 
HETATM   13  N   UNL     1      43.661 -18.787   5.053  1.00  0.00    -0.307 N 
HETATM   14  O   UNL     1      45.607 -18.155   6.118  1.00  0.00    -0.247 OA
HETATM   15  H   UNL     1      42.689 -18.737   5.301  1.00  0.00     0.170 HD
HETATM   16  H   UNL     1      44.581 -16.235   6.689  1.00  0.00     0.165 HD
BRANCH  13  17
HETATM   17  C   UNL     1      44.048 -20.005   4.441  1.00  0.00     0.059 A 
HETATM   18  C   UNL     1      44.064 -20.288   3.068  1.00  0.00    -0.032 A 
HETATM   19  C   UNL     1      43.585 -19.359   1.989  1.00  0.00     0.050 C 
HETATM   20  C   UNL     1      44.541 -21.545   2.654  1.00  0.00     0.028 A 
HETATM   21  C   UNL     1      44.915 -22.487   3.600  1.00  0.00     0.117 A 
HETATM   22  N   UNL     1      44.843 -22.272   4.925  1.00  0.00    -0.271 NA
HETATM   23  C   UNL     1      44.414 -21.046   5.306  1.00  0.00     0.146 A 
ENDBRANCH  13  17
ENDBRANCH   9  11
ENDBRANCH   1   9
TORSDOF 3
ENDMDL
MODEL 7
REMARK VINA RESULT:      -7.1      2.925      3.844
REMARK  3 active torsions:
REMARK  status: ('A' for Active; 'I' for Inactive)
REMARK    1  A    between atoms: C_3  and  N_4 
REMARK       I    between atoms: N_4  and  C_5 
REMARK       I    between atoms: C_5  and  N_6 
REMARK    2  A    between atoms: N_6  and  C_7 
REMARK    3  A    between atoms: C_7  and  C_8 
ROOT
HETATM    1  C   UNL     1      42.222 -16.802   1.498  1.00  0.00    -0.036 A 
HETATM    2  C   UNL     1      43.391 -17.336   0.937  1.00  0.00     0.011 A 
HETATM    3  C   UNL     1      44.107 -18.345   1.594  1.00  0.00     0.023 A 
HETATM    4  C   UNL     1      43.669 -18.833   2.827  1.00  0.00     0.044 A 
HETATM    5  C   UNL     1      44.403 -19.864   3.499  1.00  0.00     0.099 C 
HETATM    6  N   UNL     1      44.994 -20.700   4.048  1.00  0.00    -0.191 NA
HETATM    7  C   UNL     1      42.513 -18.307   3.403  1.00  0.00     0.023 A 
HETATM    8  C   UNL     1      41.798 -17.301   2.744  1.00  0.00     0.011 A 
ENDROOT
BRANCH   1   9
HETATM    9  C   UNL     1      41.413 -15.696   0.842  1.00  0.00     0.115 C 
HETATM   10  C   UNL     1      41.426 -14.409   1.669  1.00  0.00     0.037 C 
BRANCH   9  11
HETATM   11  N   UNL     1      41.661 -15.525  -0.589  1.00  0.00    -0.335 N 
HETATM   12  C   UNL     1      40.930 -15.108  -1.656  1.00  0.00     0.321 C 
HETATM   13  N   UNL     1      39.602 -14.892  -1.447  1.00  0.00    -0.307 N 
HETATM   14  O   UNL     1      41.524 -14.981  -2.720  1.00  0.00    -0.247 OA
HETATM   15  H   UNL     1      39.209 -15.492  -0.745  1.00  0.00     0.170 HD
HETATM   16  H   UNL     1      42.635 -15.591  -0.860  1.00  0.00     0.165 HD
BRANCH  13  17
HETATM   17  C   UNL     1      38.662 -14.382  -2.378  1.00  0.00     0.059 A 
HETATM   18  C   UNL     1      38.195 -15.019  -3.536  1.00  0.00    -0.032 A 
HETATM   19  C   UNL     1      38.681 -16.346  -4.048  1.00  0.00     0.050 C 
HETATM   20  C   UNL     1      37.212 -14.367  -4.303  1.00  0.00     0.028 A 
HETATM   21  C   UNL     1      36.782 -13.101  -3.940  1.00  0.00     0.117 A 
HETATM   22  N   UNL     1      37.262 -12.434  -2.877  1.00  0.00    -0.271 NA
HETATM   23  C   UNL     1      38.183 -13.088  -2.131  1.00  0.00     0.146 A 
ENDBRANCH  13  17
ENDBRANCH   9  11
ENDBRANCH   1   9
TORSDOF 3
ENDMDL
MODEL 8
REMARK VINA RESULT:      -7.0      3.131      4.191
REMARK  3 active torsions:
REMARK  status: ('A' for Active; 'I' for Inactive)
REMARK    1  A    between atoms: C_3  and  N_4 
REMARK       I    between atoms: N_4  and  C_5 
REMARK       I    between atoms: C_5  and  N_6 
REMARK    2  A    between atoms: N_6  and  C_7 
REMARK    3  A    between atoms: C_7  and  C_8 
ROOT
HETATM    1  C   UNL     1      43.617 -17.545   4.610  1.00  0.00    -0.036 A 
HETATM    2  C   UNL     1      43.402 -17.629   3.227  1.00  0.00     0.011 A 
HETATM    3  C   UNL     1      43.649 -18.820   2.533  1.00  0.00     0.023 A 
HETATM    4  C   UNL     1      44.119 -19.948   3.209  1.00  0.00     0.044 A 
HETATM    5  C   UNL     1      44.371 -21.166   2.498  1.00  0.00     0.099 C 
HETATM    6  N   UNL     1      44.577 -22.155   1.926  1.00  0.00    -0.191 NA
HETATM    7  C   UNL     1      44.345 -19.879   4.584  1.00  0.00     0.023 A 
HETATM    8  C   UNL     1      44.097 -18.689   5.276  1.00  0.00     0.011 A 
ENDROOT
BRANCH   1   9
HETATM    9  C   UNL     1      43.385 -16.277   5.414  1.00  0.00     0.115 C 
HETATM   10  C   UNL     1      44.278 -16.213   6.654  1.00  0.00     0.037 C 
BRANCH   9  11
HETATM   11  N   UNL     1      43.326 -15.052   4.618  1.00  0.00    -0.335 N 
HETATM   12  C   UNL     1      42.849 -13.794   4.809  1.00  0.00     0.321 C 
HETATM   13  N   UNL     1      42.132 -13.572   5.944  1.00  0.00    -0.307 N 
HETATM   14  O   UNL     1      43.089 -12.971   3.933  1.00  0.00    -0.247 OA
HETATM   15  H   UNL     1      41.620 -14.379   6.253  1.00  0.00     0.170 HD
HETATM   16  H   UNL     1      43.888 -15.069   3.774  1.00  0.00     0.165 HD
BRANCH  13  17
HETATM   17  C   UNL     1      41.606 -12.336   6.396  1.00  0.00     0.059 A 
HETATM   18  C   UNL     1      40.348 -11.796   6.094  1.00  0.00    -0.032 A 
HETATM   19  C   UNL     1      39.348 -12.408   5.154  1.00  0.00     0.050 C 
HETATM   20  C   UNL     1      39.988 -10.574   6.693  1.00  0.00     0.028 A 
HETATM   21  C   UNL     1      40.896  -9.908   7.501  1.00  0.00     0.117 A 
HETATM   22  N   UNL     1      42.136 -10.363   7.751  1.00  0.00    -0.271 NA
HETATM   23  C   UNL     1      42.454 -11.555   7.195  1.00  0.00     0.146 A 
ENDBRANCH  13  17
ENDBRANCH   9  11
ENDBRANCH   1   9
TORSDOF 3
ENDMDL
MODEL 9
REMARK VINA RESULT:      -6.9      2.020      3.159
REMARK  3 active torsions:
REMARK  status: ('A' for Active; 'I' for Inactive)
REMARK    1  A    between atoms: C_3  and  N_4 
REMARK       I    between atoms: N_4  and  C_5 
REMARK       I    between atoms: C_5  and  N_6 
REMARK    2  A    between atoms: N_6  and  C_7 
REMARK    3  A    between atoms: C_7  and  C_8 
ROOT
HETATM    1  C   UNL     1      43.333 -18.205   2.340  1.00  0.00    -0.036 A 
HETATM    2  C   UNL     1      43.635 -18.046   3.699  1.00  0.00     0.011 A 
HETATM    3  C   UNL     1      44.151 -19.110   4.450  1.00  0.00     0.023 A 
HETATM    4  C   UNL     1      44.369 -20.354   3.854  1.00  0.00     0.044 A 
HETATM    5  C   UNL     1      44.897 -21.443   4.623  1.00  0.00     0.099 C 
HETATM    6  N   UNL     1      45.324 -22.327   5.242  1.00  0.00    -0.191 NA
HETATM    7  C   UNL     1      44.067 -20.531   2.504  1.00  0.00     0.023 A 
HETATM    8  C   UNL     1      43.553 -19.467   1.756  1.00  0.00     0.011 A 
ENDROOT
BRANCH   1   9
HETATM    9  C   UNL     1      42.754 -17.094   1.479  1.00  0.00     0.115 C 
HETATM   10  C   UNL     1      41.252 -17.272   1.247  1.00  0.00     0.037 C 
BRANCH   9  11
HETATM   11  N   UNL     1      43.176 -15.746   1.858  1.00  0.00    -0.335 N 
HETATM   12  C   UNL     1      42.640 -14.732   2.585  1.00  0.00     0.321 C 
HETATM   13  N   UNL     1      41.352 -14.881   2.997  1.00  0.00    -0.307 N 
HETATM   14  O   UNL     1      43.356 -13.759   2.792  1.00  0.00    -0.247 OA
HETATM   15  H   UNL     1      40.793 -15.422   2.361  1.00  0.00     0.170 HD
HETATM   16  H   UNL     1      44.150 -15.539   1.666  1.00  0.00     0.165 HD
BRANCH  13  17
HETATM   17  C   UNL     1      40.611 -14.003   3.827  1.00  0.00     0.059 A 
HETATM   18  C   UNL     1      39.924 -12.848   3.429  1.00  0.00    -0.032 A 
HETATM   19  C   UNL     1      39.919 -12.283   2.036  1.00  0.00     0.050 C 
HETATM   20  C   UNL     1      39.195 -12.139   4.401  1.00  0.00     0.028 A 
HETATM   21  C   UNL     1      39.228 -12.552   5.724  1.00  0.00     0.117 A 
HETATM   22  N   UNL     1      39.935 -13.612   6.150  1.00  0.00    -0.271 NA
HETATM   23  C   UNL     1      40.603 -14.302   5.198  1.00  0.00     0.146 A 
ENDBRANCH  13  17
ENDBRANCH   9  11
ENDBRANCH   1   9
TORSDOF 3
ENDMDL
MODEL 10
REMARK VINA RESULT:      -6.9      3.727      6.279
REMARK  3 active torsions:
REMARK  status: ('A' for Active; 'I' for Inactive)
REMARK    1  A    between atoms: C_3  and  N_4 
REMARK       I    between atoms: N_4  and  C_5 
REMARK       I    between atoms: C_5  and  N_6 
REMARK    2  A    between atoms: N_6  and  C_7 
REMARK    3  A    between atoms: C_7  and  C_8 
ROOT
HETATM    1  C   UNL     1      43.588 -17.442   4.025  1.00  0.00    -0.036 A 
HETATM    2  C   UNL     1      43.257 -17.570   2.669  1.00  0.00     0.011 A 
HETATM    3  C   UNL     1      43.430 -18.788   1.999  1.00  0.00     0.023 A 
HETATM    4  C   UNL     1      43.943 -19.898   2.673  1.00  0.00     0.044 A 
HETATM    5  C   UNL     1      44.121 -21.144   1.987  1.00  0.00     0.099 C 
HETATM    6  N   UNL     1      44.266 -22.155   1.435  1.00  0.00    -0.191 NA
HETATM    7  C   UNL     1      44.284 -19.786   4.021  1.00  0.00     0.023 A 
HETATM    8  C   UNL     1      44.109 -18.569   4.689  1.00  0.00     0.011 A 
ENDROOT
BRANCH   1   9
HETATM    9  C   UNL     1      43.439 -16.143   4.800  1.00  0.00     0.115 C 
HETATM   10  C   UNL     1      42.216 -15.343   4.346  1.00  0.00     0.037 C 
BRANCH   9  11
HETATM   11  N   UNL     1      43.603 -16.273   6.247  1.00  0.00    -0.335 N 
HETATM   12  C   UNL     1      44.038 -15.465   7.249  1.00  0.00     0.321 C 
HETATM   13  N   UNL     1      44.581 -14.271   6.887  1.00  0.00    -0.307 N 
HETATM   14  O   UNL     1      43.922 -15.889   8.393  1.00  0.00    -0.247 OA
HETATM   15  H   UNL     1      45.049 -14.302   5.999  1.00  0.00     0.170 HD
HETATM   16  H   UNL     1      43.170 -17.097   6.649  1.00  0.00     0.165 HD
BRANCH  13  17
HETATM   17  C   UNL     1      45.026 -13.237   7.749  1.00  0.00     0.059 A 
HETATM   18  C   UNL     1      46.278 -12.607   7.730  1.00  0.00    -0.032 A 
HETATM   19  C   UNL     1      47.420 -12.980   6.827  1.00  0.00     0.050 C 
HETATM   20  C   UNL     1      46.507 -11.555   8.637  1.00  0.00     0.028 A 
HETATM   21  C   UNL     1      45.531 -11.216   9.560  1.00  0.00     0.117 A 
HETATM   22  N   UNL     1      44.349 -11.849   9.652  1.00  0.00    -0.271 NA
HETATM   23  C   UNL     1      44.131 -12.835   8.751  1.00  0.00     0.146 A 
ENDBRANCH  13  17
ENDBRANCH   9  11
ENDBRANCH   1   9
TORSDOF 3
ENDMDL
