MODEL 1
REMARK VINA RESULT:      -8.7      0.000      0.000
REMARK  9 active torsions:
REMARK  status: ('A' for Active; 'I' for Inactive)
REMARK    1  A    between atoms: C_2  and  N_3 
REMARK    2  A    between atoms: C_2  and  C_23 
REMARK       I    between atoms: N_3  and  C_4 
REMARK       I    between atoms: C_4  and  N_5 
REMARK    3  A    between atoms: N_5  and  C_6 
REMARK    4  A    between atoms: C_6  and  C_7 
REMARK    5  A    between atoms: C_7  and  N_8 
REMARK    6  A    between atoms: C_7  and  C_14 
REMARK    7  A    between atoms: C_16  and  O_17 
REMARK    8  A    between atoms: C_23  and  C_24 
REMARK    9  A    between atoms: C_27  and  O_28 
ROOT
HETATM    1  N   UNL     1      39.640 -14.837   0.437  1.00  0.00    -0.339 N 
HETATM    2  C   UNL     1      40.873 -14.896   1.011  1.00  0.00     0.316 C 
HETATM    3  N   UNL     1      41.252 -16.172   1.302  1.00  0.00    -0.341 N 
HETATM    4  O   UNL     1      41.608 -13.945   1.247  1.00  0.00    -0.248 OA
HETATM    5  H   UNL     1      39.080 -15.673   0.536  1.00  0.00     0.164 HD
HETATM    6  H   UNL     1      40.719 -16.930   0.891  1.00  0.00     0.164 HD
ENDROOT
BRANCH   3   7
HETATM    7  C   UNL     1      42.411 -16.499   2.123  1.00  0.00     0.162 C 
BRANCH   7   8
HETATM    8  C   UNL     1      42.176 -17.484   3.312  1.00  0.00     0.238 C 
BRANCH   8   9
HETATM    9  N   UNL     1      42.348 -16.793   4.660  1.00  0.00    -0.061 N 
HETATM   10  H   UNL     1      43.208 -17.199   5.082  1.00  0.00     0.280 HD
HETATM   11  C   UNL     1      41.208 -16.942   5.650  1.00  0.00     0.236 C 
HETATM   12  C   UNL     1      40.681 -15.535   5.853  1.00  0.00     0.029 C 
HETATM   13  C   UNL     1      41.927 -14.687   5.742  1.00  0.00     0.029 C 
HETATM   14  C   UNL     1      42.645 -15.302   4.558  1.00  0.00     0.236 C 
ENDBRANCH   8   9
BRANCH   8  15
HETATM   15  C   UNL     1      42.988 -18.754   3.107  1.00  0.00    -0.023 A 
HETATM   16  C   UNL     1      43.746 -19.257   4.187  1.00  0.00     0.046 A 
HETATM   17  C   UNL     1      44.500 -20.423   4.052  1.00  0.00     0.068 A 
HETATM   18  C   UNL     1      44.512 -21.088   2.826  1.00  0.00     0.037 A 
HETATM   19  C   UNL     1      43.758 -20.614   1.753  1.00  0.00     0.003 A 
HETATM   20  C   UNL     1      42.991 -19.458   1.893  1.00  0.00     0.009 A 
BRANCH  17  21
HETATM   21  O   UNL     1      45.266 -20.997   5.025  1.00  0.00    -0.356 OA
HETATM   22  C   UNL     1      45.139 -22.402   5.215  1.00  0.00     0.210 C 
ENDBRANCH  17  21
ENDBRANCH   8  15
ENDBRANCH   7   8
ENDBRANCH   3   7
BRANCH   1  23
HETATM   23  C   UNL     1      38.829 -13.614   0.366  1.00  0.00     0.086 C 
HETATM   24  C   UNL     1      37.364 -13.829   0.742  1.00  0.00     0.032 C 
BRANCH  23  25
HETATM   25  C   UNL     1      38.955 -12.926  -1.013  1.00  0.00     0.063 C 
BRANCH  25  26
HETATM   26  C   UNL     1      38.933 -13.919  -2.157  1.00  0.00    -0.056 A 
HETATM   27  C   UNL     1      37.718 -14.365  -2.697  1.00  0.00     0.010 A 
HETATM   28  C   UNL     1      37.703 -15.304  -3.731  1.00  0.00     0.037 A 
HETATM   29  C   UNL     1      38.905 -15.801  -4.222  1.00  0.00     0.065 A 
HETATM   30  C   UNL     1      40.119 -15.371  -3.702  1.00  0.00     0.037 A 
HETATM   31  C   UNL     1      40.134 -14.427  -2.674  1.00  0.00     0.010 A 
BRANCH  29  32
HETATM   32  O   UNL     1      38.940 -16.724  -5.225  1.00  0.00    -0.361 OA
HETATM   33  H   UNL     1      39.789 -16.656  -5.693  1.00  0.00     0.217 HD
ENDBRANCH  29  32
ENDBRANCH  25  26
ENDBRANCH  23  25
ENDBRANCH   1  23
TORSDOF 9
ENDMDL
MODEL 2
REMARK VINA RESULT:      -8.6      0.932      1.782
REMARK  9 active torsions:
REMARK  status: ('A' for Active; 'I' for Inactive)
REMARK    1  A    between atoms: C_2  and  N_3 
REMARK    2  A    between atoms: C_2  and  C_23 
REMARK       I    between atoms: N_3  and  C_4 
REMARK       I    between atoms: C_4  and  N_5 
REMARK    3  A    between atoms: N_5  and  C_6 
REMARK    4  A    between atoms: C_6  and  C_7 
REMARK    5  A    between atoms: C_7  and  N_8 
REMARK    6  A    between atoms: C_7  and  C_14 
REMARK    7  A    between atoms: C_16  and  O_17 
REMARK    8  A    between atoms: C_23  and  C_24 
REMARK    9  A    between atoms: C_27  and  O_28 
ROOT
HETATM    1  N   UNL     1      39.569 -15.122   0.728  1.00  0.00    -0.339 N 
HETATM    2  C   UNL     1      40.834 -15.192   1.227  1.00  0.00     0.316 C 
HETATM    3  N   UNL     1      41.163 -16.447   1.642  1.00  0.00    -0.341 N 
HETATM    4  O   UNL     1      41.634 -14.267   1.302  1.00  0.00    -0.248 OA
HETATM    5  H   UNL     1      38.973 -15.905   0.960  1.00  0.00     0.164 HD
HETATM    6  H   UNL     1      40.563 -17.213   1.358  1.00  0.00     0.164 HD
ENDROOT
BRANCH   3   7
HETATM    7  C   UNL     1      42.357 -16.748   2.422  1.00  0.00     0.162 C 
BRANCH   7   8
HETATM    8  C   UNL     1      42.135 -17.241   3.887  1.00  0.00     0.238 C 
BRANCH   8   9
HETATM    9  N   UNL     1      42.161 -16.085   4.881  1.00  0.00    -0.061 N 
HETATM   10  H   UNL     1      42.605 -16.460   5.744  1.00  0.00     0.280 HD
HETATM   11  C   UNL     1      40.822 -15.478   5.251  1.00  0.00     0.236 C 
HETATM   12  C   UNL     1      40.889 -14.049   4.751  1.00  0.00     0.029 C 
HETATM   13  C   UNL     1      42.343 -13.688   4.948  1.00  0.00     0.029 C 
HETATM   14  C   UNL     1      43.064 -14.930   4.464  1.00  0.00     0.236 C 
ENDBRANCH   8   9
BRANCH   8  15
HETATM   15  C   UNL     1      43.067 -18.404   4.194  1.00  0.00    -0.023 A 
HETATM   16  C   UNL     1      43.554 -19.185   3.124  1.00  0.00     0.046 A 
HETATM   17  C   UNL     1      44.418 -20.256   3.354  1.00  0.00     0.068 A 
HETATM   18  C   UNL     1      44.790 -20.562   4.663  1.00  0.00     0.037 A 
HETATM   19  C   UNL     1      44.330 -19.793   5.731  1.00  0.00     0.003 A 
HETATM   20  C   UNL     1      43.480 -18.712   5.500  1.00  0.00     0.009 A 
BRANCH  17  21
HETATM   21  O   UNL     1      44.948 -21.075   2.399  1.00  0.00    -0.356 OA
HETATM   22  C   UNL     1      44.045 -21.887   1.657  1.00  0.00     0.210 C 
ENDBRANCH  17  21
ENDBRANCH   8  15
ENDBRANCH   7   8
ENDBRANCH   3   7
BRANCH   1  23
HETATM   23  C   UNL     1      38.822 -13.868   0.564  1.00  0.00     0.086 C 
HETATM   24  C   UNL     1      37.314 -14.026   0.743  1.00  0.00     0.032 C 
BRANCH  23  25
HETATM   25  C   UNL     1      39.154 -13.179  -0.780  1.00  0.00     0.063 C 
BRANCH  25  26
HETATM   26  C   UNL     1      39.099 -14.140  -1.950  1.00  0.00    -0.056 A 
HETATM   27  C   UNL     1      40.252 -14.815  -2.378  1.00  0.00     0.010 A 
HETATM   28  C   UNL     1      40.204 -15.676  -3.477  1.00  0.00     0.037 A 
HETATM   29  C   UNL     1      39.001 -15.859  -4.151  1.00  0.00     0.065 A 
HETATM   30  C   UNL     1      37.849 -15.201  -3.742  1.00  0.00     0.037 A 
HETATM   31  C   UNL     1      37.895 -14.346  -2.640  1.00  0.00     0.010 A 
BRANCH  29  32
HETATM   32  O   UNL     1      38.907 -16.684  -5.233  1.00  0.00    -0.361 OA
HETATM   33  H   UNL     1      39.767 -16.719  -5.684  1.00  0.00     0.217 HD
ENDBRANCH  29  32
ENDBRANCH  25  26
ENDBRANCH  23  25
ENDBRANCH   1  23
TORSDOF 9
ENDMDL
MODEL 3
REMARK VINA RESULT:      -8.4      1.887      8.672
REMARK  9 active torsions:
REMARK  status: ('A' for Active; 'I' for Inactive)
REMARK    1  A    between atoms: C_2  and  N_3 
REMARK    2  A    between atoms: C_2  and  C_23 
REMARK       I    between atoms: N_3  and  C_4 
REMARK       I    between atoms: C_4  and  N_5 
REMARK    3  A    between atoms: N_5  and  C_6 
REMARK    4  A    between atoms: C_6  and  C_7 
REMARK    5  A    between atoms: C_7  and  N_8 
REMARK    6  A    between atoms: C_7  and  C_14 
REMARK    7  A    between atoms: C_16  and  O_17 
REMARK    8  A    between atoms: C_23  and  C_24 
REMARK    9  A    between atoms: C_27  and  O_28 
ROOT
HETATM    1  N   UNL     1      40.621 -16.930   2.850  1.00  0.00    -0.339 N 
HETATM    2  C   UNL     1      40.815 -15.698   2.305  1.00  0.00     0.316 C 
HETATM    3  N   UNL     1      40.155 -15.540   1.123  1.00  0.00    -0.341 N 
HETATM    4  O   UNL     1      41.483 -14.791   2.785  1.00  0.00    -0.248 OA
HETATM    5  H   UNL     1      40.249 -17.626   2.217  1.00  0.00     0.164 HD
HETATM    6  H   UNL     1      39.447 -16.224   0.881  1.00  0.00     0.164 HD
ENDROOT
BRANCH   3   7
HETATM    7  C   UNL     1      40.376 -14.415   0.223  1.00  0.00     0.162 C 
BRANCH   7   8
HETATM    8  C   UNL     1      41.113 -14.722  -1.119  1.00  0.00     0.238 C 
BRANCH   8   9
HETATM    9  N   UNL     1      42.169 -13.669  -1.437  1.00  0.00    -0.061 N 
HETATM   10  H   UNL     1      43.087 -14.109  -1.224  1.00  0.00     0.280 HD
HETATM   11  C   UNL     1      42.072 -12.360  -0.676  1.00  0.00     0.236 C 
HETATM   12  C   UNL     1      41.801 -11.311  -1.735  1.00  0.00     0.029 C 
HETATM   13  C   UNL     1      42.572 -11.826  -2.928  1.00  0.00     0.029 C 
HETATM   14  C   UNL     1      42.258 -13.308  -2.915  1.00  0.00     0.236 C 
ENDBRANCH   8   9
BRANCH   8  15
HETATM   15  C   UNL     1      40.101 -15.002  -2.220  1.00  0.00    -0.023 A 
HETATM   16  C   UNL     1      38.992 -14.140  -2.358  1.00  0.00     0.046 A 
HETATM   17  C   UNL     1      38.042 -14.349  -3.358  1.00  0.00     0.068 A 
HETATM   18  C   UNL     1      38.187 -15.436  -4.219  1.00  0.00     0.037 A 
HETATM   19  C   UNL     1      39.283 -16.291  -4.106  1.00  0.00     0.003 A 
HETATM   20  C   UNL     1      40.242 -16.071  -3.118  1.00  0.00     0.009 A 
BRANCH  17  21
HETATM   21  O   UNL     1      36.935 -13.581  -3.583  1.00  0.00    -0.356 OA
HETATM   22  C   UNL     1      36.068 -13.976  -4.640  1.00  0.00     0.210 C 
ENDBRANCH  17  21
ENDBRANCH   8  15
ENDBRANCH   7   8
ENDBRANCH   3   7
BRANCH   1  23
HETATM   23  C   UNL     1      41.481 -17.509   3.891  1.00  0.00     0.086 C 
HETATM   24  C   UNL     1      41.315 -16.849   5.258  1.00  0.00     0.032 C 
BRANCH  23  25
HETATM   25  C   UNL     1      42.965 -17.529   3.458  1.00  0.00     0.063 C 
BRANCH  25  26
HETATM   26  C   UNL     1      43.470 -18.931   3.192  1.00  0.00    -0.056 A 
HETATM   27  C   UNL     1      43.078 -19.630   2.041  1.00  0.00     0.010 A 
HETATM   28  C   UNL     1      43.521 -20.935   1.816  1.00  0.00     0.037 A 
HETATM   29  C   UNL     1      44.355 -21.544   2.746  1.00  0.00     0.065 A 
HETATM   30  C   UNL     1      44.756 -20.870   3.892  1.00  0.00     0.037 A 
HETATM   31  C   UNL     1      44.319 -19.563   4.114  1.00  0.00     0.010 A 
BRANCH  29  32
HETATM   32  O   UNL     1      44.807 -22.819   2.573  1.00  0.00    -0.361 OA
HETATM   33  H   UNL     1      45.291 -23.098   3.369  1.00  0.00     0.217 HD
ENDBRANCH  29  32
ENDBRANCH  25  26
ENDBRANCH  23  25
ENDBRANCH   1  23
TORSDOF 9
ENDMDL
MODEL 4
REMARK VINA RESULT:      -8.3      2.263      8.994
REMARK  9 active torsions:
REMARK  status: ('A' for Active; 'I' for Inactive)
REMARK    1  A    between atoms: C_2  and  N_3 
REMARK    2  A    between atoms: C_2  and  C_23 
REMARK       I    between atoms: N_3  and  C_4 
REMARK       I    between atoms: C_4  and  N_5 
REMARK    3  A    between atoms: N_5  and  C_6 
REMARK    4  A    between atoms: C_6  and  C_7 
REMARK    5  A    between atoms: C_7  and  N_8 
REMARK    6  A    between atoms: C_7  and  C_14 
REMARK    7  A    between atoms: C_16  and  O_17 
REMARK    8  A    between atoms: C_23  and  C_24 
REMARK    9  A    between atoms: C_27  and  O_28 
ROOT
HETATM    1  N   UNL     1      41.244 -17.228   2.257  1.00  0.00    -0.339 N 
HETATM    2  C   UNL     1      41.546 -16.222   1.391  1.00  0.00     0.316 C 
HETATM    3  N   UNL     1      40.789 -16.262   0.260  1.00  0.00    -0.341 N 
HETATM    4  O   UNL     1      42.383 -15.345   1.566  1.00  0.00    -0.248 OA
HETATM    5  H   UNL     1      40.712 -17.991   1.860  1.00  0.00     0.164 HD
HETATM    6  H   UNL     1      39.970 -16.860   0.259  1.00  0.00     0.164 HD
ENDROOT
BRANCH   3   7
HETATM    7  C   UNL     1      41.063 -15.452  -0.920  1.00  0.00     0.162 C 
BRANCH   7   8
HETATM    8  C   UNL     1      40.061 -14.295  -1.228  1.00  0.00     0.238 C 
BRANCH   8   9
HETATM    9  N   UNL     1      39.588 -14.328  -2.678  1.00  0.00    -0.061 N 
HETATM   10  H   UNL     1      40.150 -13.610  -3.178  1.00  0.00     0.280 HD
HETATM   11  C   UNL     1      38.118 -14.045  -2.919  1.00  0.00     0.236 C 
HETATM   12  C   UNL     1      37.564 -15.327  -3.507  1.00  0.00     0.029 C 
HETATM   13  C   UNL     1      38.722 -15.855  -4.322  1.00  0.00     0.029 C 
HETATM   14  C   UNL     1      39.907 -15.630  -3.403  1.00  0.00     0.236 C 
ENDBRANCH   8   9
BRANCH   8  15
HETATM   15  C   UNL     1      40.628 -12.969  -0.744  1.00  0.00    -0.023 A 
HETATM   16  C   UNL     1      41.934 -12.605  -1.138  1.00  0.00     0.046 A 
HETATM   17  C   UNL     1      42.495 -11.395  -0.728  1.00  0.00     0.068 A 
HETATM   18  C   UNL     1      41.755 -10.546   0.096  1.00  0.00     0.037 A 
HETATM   19  C   UNL     1      40.459 -10.883   0.483  1.00  0.00     0.003 A 
HETATM   20  C   UNL     1      39.892 -12.083   0.059  1.00  0.00     0.009 A 
BRANCH  17  21
HETATM   21  O   UNL     1      43.743 -10.942  -1.048  1.00  0.00    -0.356 OA
HETATM   22  C   UNL     1      43.912  -9.537  -1.194  1.00  0.00     0.210 C 
ENDBRANCH  17  21
ENDBRANCH   8  15
ENDBRANCH   7   8
ENDBRANCH   3   7
BRANCH   1  23
HETATM   23  C   UNL     1      42.124 -17.658   3.352  1.00  0.00     0.086 C 
HETATM   24  C   UNL     1      42.184 -16.669   4.514  1.00  0.00     0.032 C 
BRANCH  23  25
HETATM   25  C   UNL     1      43.543 -18.003   2.840  1.00  0.00     0.063 C 
BRANCH  25  26
HETATM   26  C   UNL     1      43.894 -19.460   3.054  1.00  0.00    -0.056 A 
HETATM   27  C   UNL     1      44.453 -19.894   4.265  1.00  0.00     0.010 A 
HETATM   28  C   UNL     1      44.805 -21.233   4.446  1.00  0.00     0.037 A 
HETATM   29  C   UNL     1      44.602 -22.140   3.412  1.00  0.00     0.065 A 
HETATM   30  C   UNL     1      44.049 -21.731   2.206  1.00  0.00     0.037 A 
HETATM   31  C   UNL     1      43.691 -20.394   2.027  1.00  0.00     0.010 A 
BRANCH  29  32
HETATM   32  O   UNL     1      44.936 -23.456   3.539  1.00  0.00    -0.361 OA
HETATM   33  H   UNL     1      45.761 -23.529   4.048  1.00  0.00     0.217 HD
ENDBRANCH  29  32
ENDBRANCH  25  26
ENDBRANCH  23  25
ENDBRANCH   1  23
TORSDOF 9
ENDMDL
MODEL 5
REMARK VINA RESULT:      -8.2      6.138     10.748
REMARK  9 active torsions:
REMARK  status: ('A' for Active; 'I' for Inactive)
REMARK    1  A    between atoms: C_2  and  N_3 
REMARK    2  A    between atoms: C_2  and  C_23 
REMARK       I    between atoms: N_3  and  C_4 
REMARK       I    between atoms: C_4  and  N_5 
REMARK    3  A    between atoms: N_5  and  C_6 
REMARK    4  A    between atoms: C_6  and  C_7 
REMARK    5  A    between atoms: C_7  and  N_8 
REMARK    6  A    between atoms: C_7  and  C_14 
REMARK    7  A    between atoms: C_16  and  O_17 
REMARK    8  A    between atoms: C_23  and  C_24 
REMARK    9  A    between atoms: C_27  and  O_28 
ROOT
HETATM    1  N   UNL     1      43.880 -12.103   9.236  1.00  0.00    -0.339 N 
HETATM    2  C   UNL     1      44.718 -12.867   8.484  1.00  0.00     0.316 C 
HETATM    3  N   UNL     1      44.051 -13.645   7.586  1.00  0.00    -0.341 N 
HETATM    4  O   UNL     1      45.941 -12.882   8.553  1.00  0.00    -0.248 OA
HETATM    5  H   UNL     1      42.909 -12.387   9.219  1.00  0.00     0.164 HD
HETATM    6  H   UNL     1      43.074 -13.438   7.413  1.00  0.00     0.164 HD
ENDROOT
BRANCH   3   7
HETATM    7  C   UNL     1      44.682 -14.717   6.826  1.00  0.00     0.162 C 
BRANCH   7   8
HETATM    8  C   UNL     1      43.773 -15.501   5.827  1.00  0.00     0.238 C 
BRANCH   8   9
HETATM    9  N   UNL     1      42.381 -14.887   5.730  1.00  0.00    -0.061 N 
HETATM   10  H   UNL     1      42.227 -14.383   6.627  1.00  0.00     0.280 HD
HETATM   11  C   UNL     1      41.229 -15.850   5.513  1.00  0.00     0.236 C 
HETATM   12  C   UNL     1      40.658 -15.477   4.160  1.00  0.00     0.029 C 
HETATM   13  C   UNL     1      40.854 -13.979   4.110  1.00  0.00     0.029 C 
HETATM   14  C   UNL     1      42.254 -13.807   4.663  1.00  0.00     0.236 C 
ENDBRANCH   8   9
BRANCH   8  15
HETATM   15  C   UNL     1      43.823 -16.991   6.133  1.00  0.00    -0.023 A 
HETATM   16  C   UNL     1      44.106 -17.890   5.083  1.00  0.00     0.046 A 
HETATM   17  C   UNL     1      44.172 -19.265   5.314  1.00  0.00     0.068 A 
HETATM   18  C   UNL     1      43.940 -19.750   6.601  1.00  0.00     0.037 A 
HETATM   19  C   UNL     1      43.674 -18.875   7.654  1.00  0.00     0.003 A 
HETATM   20  C   UNL     1      43.625 -17.501   7.426  1.00  0.00     0.009 A 
BRANCH  17  21
HETATM   21  O   UNL     1      44.437 -20.222   4.377  1.00  0.00    -0.356 OA
HETATM   22  C   UNL     1      44.853 -21.500   4.846  1.00  0.00     0.210 C 
ENDBRANCH  17  21
ENDBRANCH   8  15
ENDBRANCH   7   8
ENDBRANCH   3   7
BRANCH   1  23
HETATM   23  C   UNL     1      44.265 -11.470  10.504  1.00  0.00     0.086 C 
HETATM   24  C   UNL     1      44.213 -12.417  11.701  1.00  0.00     0.032 C 
BRANCH  23  25
HETATM   25  C   UNL     1      43.446 -10.187  10.773  1.00  0.00     0.063 C 
BRANCH  25  26
HETATM   26  C   UNL     1      42.884 -10.146  12.179  1.00  0.00    -0.056 A 
HETATM   27  C   UNL     1      41.658 -10.758  12.480  1.00  0.00     0.010 A 
HETATM   28  C   UNL     1      41.128 -10.690  13.770  1.00  0.00     0.037 A 
HETATM   29  C   UNL     1      41.823 -10.005  14.761  1.00  0.00     0.065 A 
HETATM   30  C   UNL     1      43.039  -9.394  14.484  1.00  0.00     0.037 A 
HETATM   31  C   UNL     1      43.572  -9.467  13.196  1.00  0.00     0.010 A 
BRANCH  29  32
HETATM   32  O   UNL     1      41.343  -9.907  16.033  1.00  0.00    -0.361 OA
HETATM   33  H   UNL     1      40.755  -9.135  16.094  1.00  0.00     0.217 HD
ENDBRANCH  29  32
ENDBRANCH  25  26
ENDBRANCH  23  25
ENDBRANCH   1  23
TORSDOF 9
ENDMDL
MODEL 6
REMARK VINA RESULT:      -8.2      2.778      8.335
REMARK  9 active torsions:
REMARK  status: ('A' for Active; 'I' for Inactive)
REMARK    1  A    between atoms: C_2  and  N_3 
REMARK    2  A    between atoms: C_2  and  C_23 
REMARK       I    between atoms: N_3  and  C_4 
REMARK       I    between atoms: C_4  and  N_5 
REMARK    3  A    between atoms: N_5  and  C_6 
REMARK    4  A    between atoms: C_6  and  C_7 
REMARK    5  A    between atoms: C_7  and  N_8 
REMARK    6  A    between atoms: C_7  and  C_14 
REMARK    7  A    between atoms: C_16  and  O_17 
REMARK    8  A    between atoms: C_23  and  C_24 
REMARK    9  A    between atoms: C_27  and  O_28 
ROOT
HETATM    1  N   UNL     1      43.382 -19.918   2.944  1.00  0.00    -0.339 N 
HETATM    2  C   UNL     1      43.236 -18.688   2.380  1.00  0.00     0.316 C 
HETATM    3  N   UNL     1      41.940 -18.267   2.375  1.00  0.00    -0.341 N 
HETATM    4  O   UNL     1      44.133 -17.988   1.928  1.00  0.00    -0.248 OA
HETATM    5  H   UNL     1      42.528 -20.450   3.041  1.00  0.00     0.164 HD
HETATM    6  H   UNL     1      41.276 -18.771   2.952  1.00  0.00     0.164 HD
ENDROOT
BRANCH   3   7
HETATM    7  C   UNL     1      41.475 -17.103   1.631  1.00  0.00     0.162 C 
BRANCH   7   8
HETATM    8  C   UNL     1      40.737 -15.995   2.447  1.00  0.00     0.238 C 
BRANCH   8   9
HETATM    9  N   UNL     1      40.568 -14.715   1.636  1.00  0.00    -0.061 N 
HETATM   10  H   UNL     1      41.332 -14.079   1.942  1.00  0.00     0.280 HD
HETATM   11  C   UNL     1      39.245 -13.988   1.786  1.00  0.00     0.236 C 
HETATM   12  C   UNL     1      38.612 -14.040   0.410  1.00  0.00     0.029 C 
HETATM   13  C   UNL     1      39.805 -13.959  -0.515  1.00  0.00     0.029 C 
HETATM   14  C   UNL     1      40.801 -14.894   0.141  1.00  0.00     0.236 C 
ENDBRANCH   8   9
BRANCH   8  15
HETATM   15  C   UNL     1      41.385 -15.835   3.815  1.00  0.00    -0.023 A 
HETATM   16  C   UNL     1      42.457 -14.928   3.956  1.00  0.00     0.046 A 
HETATM   17  C   UNL     1      43.077 -14.738   5.192  1.00  0.00     0.068 A 
HETATM   18  C   UNL     1      42.637 -15.470   6.294  1.00  0.00     0.037 A 
HETATM   19  C   UNL     1      41.570 -16.360   6.176  1.00  0.00     0.003 A 
HETATM   20  C   UNL     1      40.939 -16.536   4.946  1.00  0.00     0.009 A 
BRANCH  17  21
HETATM   21  O   UNL     1      44.118 -13.890   5.442  1.00  0.00    -0.356 OA
HETATM   22  C   UNL     1      44.780 -14.019   6.695  1.00  0.00     0.210 C 
ENDBRANCH  17  21
ENDBRANCH   8  15
ENDBRANCH   7   8
ENDBRANCH   3   7
BRANCH   1  23
HETATM   23  C   UNL     1      44.564 -20.770   2.753  1.00  0.00     0.086 C 
HETATM   24  C   UNL     1      44.349 -21.896   1.743  1.00  0.00     0.032 C 
BRANCH  23  25
HETATM   25  C   UNL     1      45.092 -21.322   4.097  1.00  0.00     0.063 C 
BRANCH  25  26
HETATM   26  C   UNL     1      44.695 -20.454   5.273  1.00  0.00    -0.056 A 
HETATM   27  C   UNL     1      45.102 -19.113   5.346  1.00  0.00     0.010 A 
HETATM   28  C   UNL     1      44.759 -18.326   6.447  1.00  0.00     0.037 A 
HETATM   29  C   UNL     1      44.012 -18.881   7.480  1.00  0.00     0.065 A 
HETATM   30  C   UNL     1      43.598 -20.206   7.426  1.00  0.00     0.037 A 
HETATM   31  C   UNL     1      43.934 -20.991   6.323  1.00  0.00     0.010 A 
BRANCH  29  32
HETATM   32  O   UNL     1      43.659 -18.154   8.578  1.00  0.00    -0.361 OA
HETATM   33  H   UNL     1      43.155 -17.373   8.296  1.00  0.00     0.217 HD
ENDBRANCH  29  32
ENDBRANCH  25  26
ENDBRANCH  23  25
ENDBRANCH   1  23
TORSDOF 9
ENDMDL
MODEL 7
REMARK VINA RESULT:      -8.1      2.269      8.660
REMARK  9 active torsions:
REMARK  status: ('A' for Active; 'I' for Inactive)
REMARK    1  A    between atoms: C_2  and  N_3 
REMARK    2  A    between atoms: C_2  and  C_23 
REMARK       I    between atoms: N_3  and  C_4 
REMARK       I    between atoms: C_4  and  N_5 
REMARK    3  A    between atoms: N_5  and  C_6 
REMARK    4  A    between atoms: C_6  and  C_7 
REMARK    5  A    between atoms: C_7  and  N_8 
REMARK    6  A    between atoms: C_7  and  C_14 
REMARK    7  A    between atoms: C_16  and  O_17 
REMARK    8  A    between atoms: C_23  and  C_24 
REMARK    9  A    between atoms: C_27  and  O_28 
ROOT
HETATM    1  N   UNL     1      43.466 -19.316   3.082  1.00  0.00    -0.339 N 
HETATM    2  C   UNL     1      43.110 -18.349   2.193  1.00  0.00     0.316 C 
HETATM    3  N   UNL     1      41.944 -17.731   2.531  1.00  0.00    -0.341 N 
HETATM    4  O   UNL     1      43.738 -18.020   1.194  1.00  0.00    -0.248 OA
HETATM    5  H   UNL     1      42.728 -19.619   3.704  1.00  0.00     0.164 HD
HETATM    6  H   UNL     1      41.584 -17.878   3.467  1.00  0.00     0.164 HD
ENDROOT
BRANCH   3   7
HETATM    7  C   UNL     1      41.223 -16.831   1.640  1.00  0.00     0.162 C 
BRANCH   7   8
HETATM    8  C   UNL     1      41.808 -15.393   1.469  1.00  0.00     0.238 C 
BRANCH   8   9
HETATM    9  N   UNL     1      41.335 -14.456   2.576  1.00  0.00    -0.061 N 
HETATM   10  H   UNL     1      41.286 -13.509   2.148  1.00  0.00     0.280 HD
HETATM   11  C   UNL     1      42.203 -14.380   3.818  1.00  0.00     0.236 C 
HETATM   12  C   UNL     1      41.329 -14.910   4.937  1.00  0.00     0.029 C 
HETATM   13  C   UNL     1      39.948 -14.443   4.540  1.00  0.00     0.029 C 
HETATM   14  C   UNL     1      39.913 -14.729   3.052  1.00  0.00     0.236 C 
ENDBRANCH   8   9
BRANCH   8  15
HETATM   15  C   UNL     1      41.587 -14.904   0.045  1.00  0.00    -0.023 A 
HETATM   16  C   UNL     1      41.108 -15.817  -0.919  1.00  0.00     0.046 A 
HETATM   17  C   UNL     1      40.880 -15.415  -2.235  1.00  0.00     0.068 A 
HETATM   18  C   UNL     1      41.147 -14.096  -2.600  1.00  0.00     0.037 A 
HETATM   19  C   UNL     1      41.608 -13.177  -1.658  1.00  0.00     0.003 A 
HETATM   20  C   UNL     1      41.818 -13.574  -0.338  1.00  0.00     0.009 A 
BRANCH  17  21
HETATM   21  O   UNL     1      40.419 -16.209  -3.246  1.00  0.00    -0.356 OA
HETATM   22  C   UNL     1      39.245 -15.785  -3.929  1.00  0.00     0.210 C 
ENDBRANCH  17  21
ENDBRANCH   8  15
ENDBRANCH   7   8
ENDBRANCH   3   7
BRANCH   1  23
HETATM   23  C   UNL     1      44.438 -20.378   2.792  1.00  0.00     0.086 C 
HETATM   24  C   UNL     1      43.895 -21.469   1.870  1.00  0.00     0.032 C 
BRANCH  23  25
HETATM   25  C   UNL     1      45.023 -20.985   4.088  1.00  0.00     0.063 C 
BRANCH  25  26
HETATM   26  C   UNL     1      44.670 -20.172   5.316  1.00  0.00    -0.056 A 
HETATM   27  C   UNL     1      43.892 -20.726   6.344  1.00  0.00     0.010 A 
HETATM   28  C   UNL     1      43.543 -19.962   7.461  1.00  0.00     0.037 A 
HETATM   29  C   UNL     1      43.969 -18.641   7.547  1.00  0.00     0.065 A 
HETATM   30  C   UNL     1      44.741 -18.076   6.541  1.00  0.00     0.037 A 
HETATM   31  C   UNL     1      45.096 -18.840   5.428  1.00  0.00     0.010 A 
BRANCH  29  32
HETATM   32  O   UNL     1      43.648 -17.855   8.613  1.00  0.00    -0.361 OA
HETATM   33  H   UNL     1      44.427 -17.338   8.876  1.00  0.00     0.217 HD
ENDBRANCH  29  32
ENDBRANCH  25  26
ENDBRANCH  23  25
ENDBRANCH   1  23
TORSDOF 9
ENDMDL
MODEL 8
REMARK VINA RESULT:      -8.0      5.733     10.826
REMARK  9 active torsions:
REMARK  status: ('A' for Active; 'I' for Inactive)
REMARK    1  A    between atoms: C_2  and  N_3 
REMARK    2  A    between atoms: C_2  and  C_23 
REMARK       I    between atoms: N_3  and  C_4 
REMARK       I    between atoms: C_4  and  N_5 
REMARK    3  A    between atoms: N_5  and  C_6 
REMARK    4  A    between atoms: C_6  and  C_7 
REMARK    5  A    between atoms: C_7  and  N_8 
REMARK    6  A    between atoms: C_7  and  C_14 
REMARK    7  A    between atoms: C_16  and  O_17 
REMARK    8  A    between atoms: C_23  and  C_24 
REMARK    9  A    between atoms: C_27  and  O_28 
ROOT
HETATM    1  N   UNL     1      43.935 -12.511   8.850  1.00  0.00    -0.339 N 
HETATM    2  C   UNL     1      44.633 -13.299   7.986  1.00  0.00     0.316 C 
HETATM    3  N   UNL     1      43.912 -14.374   7.562  1.00  0.00    -0.341 N 
HETATM    4  O   UNL     1      45.774 -13.102   7.589  1.00  0.00    -0.248 OA
HETATM    5  H   UNL     1      43.113 -12.940   9.253  1.00  0.00     0.164 HD
HETATM    6  H   UNL     1      42.913 -14.374   7.738  1.00  0.00     0.164 HD
ENDROOT
BRANCH   3   7
HETATM    7  C   UNL     1      44.491 -15.490   6.825  1.00  0.00     0.162 C 
BRANCH   7   8
HETATM    8  C   UNL     1      43.570 -16.728   6.583  1.00  0.00     0.238 C 
BRANCH   8   9
HETATM    9  N   UNL     1      44.331 -18.039   6.745  1.00  0.00    -0.061 N 
HETATM   10  H   UNL     1      45.067 -17.857   7.457  1.00  0.00     0.280 HD
HETATM   11  C   UNL     1      44.991 -18.599   5.500  1.00  0.00     0.236 C 
HETATM   12  C   UNL     1      44.291 -19.918   5.245  1.00  0.00     0.029 C 
HETATM   13  C   UNL     1      43.990 -20.417   6.640  1.00  0.00     0.029 C 
HETATM   14  C   UNL     1      43.500 -19.168   7.343  1.00  0.00     0.236 C 
ENDBRANCH   8   9
BRANCH   8  15
HETATM   15  C   UNL     1      42.803 -16.561   5.280  1.00  0.00    -0.023 A 
HETATM   16  C   UNL     1      43.225 -15.573   4.365  1.00  0.00     0.046 A 
HETATM   17  C   UNL     1      42.561 -15.389   3.152  1.00  0.00     0.068 A 
HETATM   18  C   UNL     1      41.455 -16.184   2.853  1.00  0.00     0.037 A 
HETATM   19  C   UNL     1      41.032 -17.174   3.739  1.00  0.00     0.003 A 
HETATM   20  C   UNL     1      41.706 -17.371   4.943  1.00  0.00     0.009 A 
BRANCH  17  21
HETATM   21  O   UNL     1      42.882 -14.468   2.196  1.00  0.00    -0.356 OA
HETATM   22  C   UNL     1      42.382 -13.146   2.366  1.00  0.00     0.210 C 
ENDBRANCH  17  21
ENDBRANCH   8  15
ENDBRANCH   7   8
ENDBRANCH   3   7
BRANCH   1  23
HETATM   23  C   UNL     1      44.558 -11.525   9.743  1.00  0.00     0.086 C 
HETATM   24  C   UNL     1      45.113 -12.130  11.031  1.00  0.00     0.032 C 
BRANCH  23  25
HETATM   25  C   UNL     1      43.602 -10.348  10.048  1.00  0.00     0.063 C 
BRANCH  25  26
HETATM   26  C   UNL     1      43.115 -10.357  11.482  1.00  0.00    -0.056 A 
HETATM   27  C   UNL     1      42.018 -11.144  11.862  1.00  0.00     0.010 A 
HETATM   28  C   UNL     1      41.552 -11.125  13.179  1.00  0.00     0.037 A 
HETATM   29  C   UNL     1      42.183 -10.314  14.116  1.00  0.00     0.065 A 
HETATM   30  C   UNL     1      43.271  -9.529  13.760  1.00  0.00     0.037 A 
HETATM   31  C   UNL     1      43.741  -9.552  12.446  1.00  0.00     0.010 A 
BRANCH  29  32
HETATM   32  O   UNL     1      41.760 -10.257  15.411  1.00  0.00    -0.361 OA
HETATM   33  H   UNL     1      41.654  -9.327  15.672  1.00  0.00     0.217 HD
ENDBRANCH  29  32
ENDBRANCH  25  26
ENDBRANCH  23  25
ENDBRANCH   1  23
TORSDOF 9
ENDMDL
MODEL 9
REMARK VINA RESULT:      -8.0      1.769      8.817
REMARK  9 active torsions:
REMARK  status: ('A' for Active; 'I' for Inactive)
REMARK    1  A    between atoms: C_2  and  N_3 
REMARK    2  A    between atoms: C_2  and  C_23 
REMARK       I    between atoms: N_3  and  C_4 
REMARK       I    between atoms: C_4  and  N_5 
REMARK    3  A    between atoms: N_5  and  C_6 
REMARK    4  A    between atoms: C_6  and  C_7 
REMARK    5  A    between atoms: C_7  and  N_8 
REMARK    6  A    between atoms: C_7  and  C_14 
REMARK    7  A    between atoms: C_16  and  O_17 
REMARK    8  A    between atoms: C_23  and  C_24 
REMARK    9  A    between atoms: C_27  and  O_28 
ROOT
HETATM    1  N   UNL     1      41.758 -16.182   2.780  1.00  0.00    -0.339 N 
HETATM    2  C   UNL     1      40.956 -16.016   1.694  1.00  0.00     0.316 C 
HETATM    3  N   UNL     1      40.462 -14.749   1.599  1.00  0.00    -0.341 N 
HETATM    4  O   UNL     1      40.687 -16.867   0.855  1.00  0.00    -0.248 OA
HETATM    5  H   UNL     1      41.679 -15.463   3.487  1.00  0.00     0.164 HD
HETATM    6  H   UNL     1      40.883 -14.032   2.178  1.00  0.00     0.164 HD
ENDROOT
BRANCH   3   7
HETATM    7  C   UNL     1      39.403 -14.367   0.672  1.00  0.00     0.162 C 
BRANCH   7   8
HETATM    8  C   UNL     1      39.842 -13.625  -0.630  1.00  0.00     0.238 C 
BRANCH   8   9
HETATM    9  N   UNL     1      39.384 -12.171  -0.633  1.00  0.00    -0.061 N 
HETATM   10  H   UNL     1      38.905 -12.024  -1.545  1.00  0.00     0.280 HD
HETATM   11  C   UNL     1      40.466 -11.118  -0.481  1.00  0.00     0.236 C 
HETATM   12  C   UNL     1      40.150 -10.420   0.827  1.00  0.00     0.029 C 
HETATM   13  C   UNL     1      38.639 -10.448   0.870  1.00  0.00     0.029 C 
HETATM   14  C   UNL     1      38.318 -11.855   0.409  1.00  0.00     0.236 C 
ENDBRANCH   8   9
BRANCH   8  15
HETATM   15  C   UNL     1      39.460 -14.446  -1.853  1.00  0.00    -0.023 A 
HETATM   16  C   UNL     1      38.158 -14.311  -2.381  1.00  0.00     0.046 A 
HETATM   17  C   UNL     1      37.762 -15.034  -3.506  1.00  0.00     0.068 A 
HETATM   18  C   UNL     1      38.666 -15.912  -4.104  1.00  0.00     0.037 A 
HETATM   19  C   UNL     1      39.961 -16.048  -3.604  1.00  0.00     0.003 A 
HETATM   20  C   UNL     1      40.362 -15.312  -2.490  1.00  0.00     0.009 A 
BRANCH  17  21
HETATM   21  O   UNL     1      36.533 -14.981  -4.100  1.00  0.00    -0.356 OA
HETATM   22  C   UNL     1      36.233 -13.832  -4.882  1.00  0.00     0.210 C 
ENDBRANCH  17  21
ENDBRANCH   8  15
ENDBRANCH   7   8
ENDBRANCH   3   7
BRANCH   1  23
HETATM   23  C   UNL     1      42.115 -17.492   3.341  1.00  0.00     0.086 C 
HETATM   24  C   UNL     1      41.657 -17.685   4.785  1.00  0.00     0.032 C 
BRANCH  23  25
HETATM   25  C   UNL     1      43.627 -17.783   3.193  1.00  0.00     0.063 C 
BRANCH  25  26
HETATM   26  C   UNL     1      43.938 -19.264   3.251  1.00  0.00    -0.056 A 
HETATM   27  C   UNL     1      44.555 -19.824   4.380  1.00  0.00     0.010 A 
HETATM   28  C   UNL     1      44.869 -21.185   4.416  1.00  0.00     0.037 A 
HETATM   29  C   UNL     1      44.568 -21.986   3.320  1.00  0.00     0.065 A 
HETATM   30  C   UNL     1      43.955 -21.451   2.194  1.00  0.00     0.037 A 
HETATM   31  C   UNL     1      43.636 -20.093   2.160  1.00  0.00     0.010 A 
BRANCH  29  32
HETATM   32  O   UNL     1      44.861 -23.317   3.307  1.00  0.00    -0.361 OA
HETATM   33  H   UNL     1      45.396 -23.519   2.521  1.00  0.00     0.217 HD
ENDBRANCH  29  32
ENDBRANCH  25  26
ENDBRANCH  23  25
ENDBRANCH   1  23
TORSDOF 9
ENDMDL
MODEL 10
REMARK VINA RESULT:      -7.9      1.418      1.903
REMARK  9 active torsions:
REMARK  status: ('A' for Active; 'I' for Inactive)
REMARK    1  A    between atoms: C_2  and  N_3 
REMARK    2  A    between atoms: C_2  and  C_23 
REMARK       I    between atoms: N_3  and  C_4 
REMARK       I    between atoms: C_4  and  N_5 
REMARK    3  A    between atoms: N_5  and  C_6 
REMARK    4  A    between atoms: C_6  and  C_7 
REMARK    5  A    between atoms: C_7  and  N_8 
REMARK    6  A    between atoms: C_7  and  C_14 
REMARK    7  A    between atoms: C_16  and  O_17 
REMARK    8  A    between atoms: C_23  and  C_24 
REMARK    9  A    between atoms: C_27  and  O_28 
ROOT
HETATM    1  N   UNL     1      40.617 -14.410   1.769  1.00  0.00    -0.339 N 
HETATM    2  C   UNL     1      40.443 -15.735   2.024  1.00  0.00     0.316 C 
HETATM    3  N   UNL     1      40.487 -16.021   3.355  1.00  0.00    -0.341 N 
HETATM    4  O   UNL     1      40.249 -16.613   1.192  1.00  0.00    -0.248 OA
HETATM    5  H   UNL     1      41.001 -13.872   2.534  1.00  0.00     0.164 HD
HETATM    6  H   UNL     1      40.425 -15.248   4.008  1.00  0.00     0.164 HD
ENDROOT
BRANCH   3   7
HETATM    7  C   UNL     1      40.561 -17.377   3.885  1.00  0.00     0.162 C 
BRANCH   7   8
HETATM    8  C   UNL     1      41.760 -17.697   4.833  1.00  0.00     0.238 C 
BRANCH   8   9
HETATM    9  N   UNL     1      42.297 -16.440   5.508  1.00  0.00    -0.061 N 
HETATM   10  H   UNL     1      41.566 -15.712   5.382  1.00  0.00     0.280 HD
HETATM   11  C   UNL     1      43.613 -15.898   4.983  1.00  0.00     0.236 C 
HETATM   12  C   UNL     1      44.577 -16.016   6.147  1.00  0.00     0.029 C 
HETATM   13  C   UNL     1      43.692 -15.763   7.346  1.00  0.00     0.029 C 
HETATM   14  C   UNL     1      42.449 -16.565   7.019  1.00  0.00     0.236 C 
ENDBRANCH   8   9
BRANCH   8  15
HETATM   15  C   UNL     1      42.787 -18.553   4.106  1.00  0.00    -0.023 A 
HETATM   16  C   UNL     1      43.636 -19.386   4.866  1.00  0.00     0.046 A 
HETATM   17  C   UNL     1      44.587 -20.197   4.246  1.00  0.00     0.068 A 
HETATM   18  C   UNL     1      44.705 -20.167   2.857  1.00  0.00     0.037 A 
HETATM   19  C   UNL     1      43.866 -19.360   2.089  1.00  0.00     0.003 A 
HETATM   20  C   UNL     1      42.903 -18.564   2.708  1.00  0.00     0.009 A 
BRANCH  17  21
HETATM   21  O   UNL     1      45.456 -21.039   4.879  1.00  0.00    -0.356 OA
HETATM   22  C   UNL     1      45.073 -22.403   5.003  1.00  0.00     0.210 C 
ENDBRANCH  17  21
ENDBRANCH   8  15
ENDBRANCH   7   8
ENDBRANCH   3   7
BRANCH   1  23
HETATM   23  C   UNL     1      40.990 -13.871   0.453  1.00  0.00     0.086 C 
HETATM   24  C   UNL     1      42.050 -12.773   0.519  1.00  0.00     0.032 C 
BRANCH  23  25
HETATM   25  C   UNL     1      39.750 -13.401  -0.342  1.00  0.00     0.063 C 
BRANCH  25  26
HETATM   26  C   UNL     1      39.542 -14.200  -1.612  1.00  0.00    -0.056 A 
HETATM   27  C   UNL     1      38.327 -14.136  -2.309  1.00  0.00     0.010 A 
HETATM   28  C   UNL     1      38.128 -14.899  -3.462  1.00  0.00     0.037 A 
HETATM   29  C   UNL     1      39.146 -15.731  -3.916  1.00  0.00     0.065 A 
HETATM   30  C   UNL     1      40.357 -15.807  -3.241  1.00  0.00     0.037 A 
HETATM   31  C   UNL     1      40.558 -15.040  -2.092  1.00  0.00     0.010 A 
BRANCH  29  32
HETATM   32  O   UNL     1      38.996 -16.499  -5.033  1.00  0.00    -0.361 OA
HETATM   33  H   UNL     1      38.439 -16.026  -5.674  1.00  0.00     0.217 HD
ENDBRANCH  29  32
ENDBRANCH  25  26
ENDBRANCH  23  25
ENDBRANCH   1  23
TORSDOF 9
ENDMDL
