MODEL 1
REMARK VINA RESULT:      -8.4      0.000      0.000
REMARK  6 active torsions:
REMARK  status: ('A' for Active; 'I' for Inactive)
REMARK    1  A    between atoms: C_2  and  C_3 
REMARK       I    between atoms: C_3  and  N_4 
REMARK    2  A    between atoms: N_4  and  C_5 
REMARK    3  A    between atoms: C_8  and  N_9 
REMARK       I    between atoms: N_9  and  C_10 
REMARK    4  A    between atoms: C_10  and  C_11 
REMARK    5  A    between atoms: C_16  and  C_17 
REMARK    6  A    between atoms: C_23  and  C_24 
ROOT
HETATM    1  C   UNL     1      44.015 -11.872   8.937  1.00  0.00     0.148 A 
HETATM    2  N   UNL     1      42.778 -11.346   8.774  1.00  0.00    -0.165 NA
HETATM    3  N   UNL     1      42.681 -10.466   9.788  1.00  0.00    -0.240 N 
HETATM    4  C   UNL     1      43.841 -10.297  10.491  1.00  0.00     0.123 A 
HETATM    5  N   UNL     1      43.960  -9.365  11.457  1.00  0.00    -0.364 N 
HETATM    6  C   UNL     1      42.815  -8.595  11.948  1.00  0.00     0.143 C 
HETATM    7  C   UNL     1      41.746  -8.461  10.848  1.00  0.00     0.068 C 
HETATM    8  C   UNL     1      41.447  -9.763  10.084  1.00  0.00     0.221 C 
HETATM    9  C   UNL     1      44.715 -11.225   9.993  1.00  0.00     0.089 A 
HETATM   10  H   UNL     1      44.781  -9.343  12.060  1.00  0.00     0.162 HD
ENDROOT
BRANCH   1  11
HETATM   11  C   UNL     1      44.526 -12.970   8.097  1.00  0.00     0.276 C 
HETATM   12  N   UNL     1      43.526 -13.576   7.362  1.00  0.00    -0.322 N 
HETATM   13  H   UNL     1      42.619 -13.126   7.455  1.00  0.00     0.169 HD
HETATM   14  O   UNL     1      45.720 -13.245   8.072  1.00  0.00    -0.266 OA
BRANCH  12  15
HETATM   15  C   UNL     1      43.639 -14.688   6.510  1.00  0.00     0.035 A 
HETATM   16  C   UNL     1      43.955 -15.970   6.953  1.00  0.00     0.032 A 
HETATM   17  C   UNL     1      44.023 -17.044   6.054  1.00  0.00     0.032 A 
HETATM   18  C   UNL     1      43.797 -16.846   4.692  1.00  0.00     0.034 A 
HETATM   19  C   UNL     1      43.493 -15.556   4.245  1.00  0.00     0.032 A 
HETATM   20  C   UNL     1      43.397 -14.489   5.147  1.00  0.00     0.032 A 
BRANCH  18  21
HETATM   21  N   UNL     1      43.867 -17.870   3.724  1.00  0.00    -0.327 N 
HETATM   22  C   UNL     1      42.853 -18.304   2.889  1.00  0.00     0.221 C 
HETATM   23  O   UNL     1      41.715 -17.848   2.825  1.00  0.00    -0.273 OA
HETATM   24  H   UNL     1      44.773 -18.303   3.611  1.00  0.00     0.169 HD
BRANCH  22  25
HETATM   25  C   UNL     1      43.247 -19.490   2.024  1.00  0.00     0.098 C 
HETATM   26  C   UNL     1      44.372 -20.326   2.606  1.00  0.00     0.014 C 
ENDBRANCH  22  25
ENDBRANCH  18  21
ENDBRANCH  12  15
ENDBRANCH   1  11
BRANCH   8  27
HETATM   27  C   UNL     1      40.492 -10.692  10.802  1.00  0.00     0.409 C 
HETATM   28  F   UNL     1      39.633 -10.060  11.624  1.00  0.00    -0.169 F 
HETATM   29  F   UNL     1      39.751 -11.391   9.904  1.00  0.00    -0.169 F 
HETATM   30  F   UNL     1      41.152 -11.614  11.541  1.00  0.00    -0.169 F 
ENDBRANCH   8  27
BRANCH   6  31
HETATM   31  C   UNL     1      42.267  -9.061  13.258  1.00  0.00     0.075 A 
HETATM   32  O   UNL     1      41.280  -8.295  13.810  1.00  0.00    -0.325 OA
HETATM   33  C   UNL     1      40.954  -8.863  15.000  1.00  0.00     0.142 A 
HETATM   34  C   UNL     1      41.719  -9.982  15.226  1.00  0.00     0.027 A 
HETATM   35  C   UNL     1      42.572 -10.109  14.105  1.00  0.00     0.037 A 
ENDBRANCH   6  31
TORSDOF 6
ENDMDL
MODEL 2
REMARK VINA RESULT:      -8.4      7.840     10.979
REMARK  6 active torsions:
REMARK  status: ('A' for Active; 'I' for Inactive)
REMARK    1  A    between atoms: C_2  and  C_3 
REMARK       I    between atoms: C_3  and  N_4 
REMARK    2  A    between atoms: N_4  and  C_5 
REMARK    3  A    between atoms: C_8  and  N_9 
REMARK       I    between atoms: N_9  and  C_10 
REMARK    4  A    between atoms: C_10  and  C_11 
REMARK    5  A    between atoms: C_16  and  C_17 
REMARK    6  A    between atoms: C_23  and  C_24 
ROOT
HETATM    1  C   UNL     1      40.411 -15.134   0.864  1.00  0.00     0.148 A 
HETATM    2  N   UNL     1      41.131 -16.273   1.000  1.00  0.00    -0.165 NA
HETATM    3  N   UNL     1      41.270 -16.393   2.333  1.00  0.00    -0.240 N 
HETATM    4  C   UNL     1      40.551 -15.479   3.051  1.00  0.00     0.123 A 
HETATM    5  N   UNL     1      40.473 -15.532   4.396  1.00  0.00    -0.364 N 
HETATM    6  C   UNL     1      41.290 -16.449   5.193  1.00  0.00     0.143 C 
HETATM    7  C   UNL     1      41.646 -17.703   4.373  1.00  0.00     0.068 C 
HETATM    8  C   UNL     1      42.106 -17.416   2.932  1.00  0.00     0.221 C 
HETATM    9  C   UNL     1      40.015 -14.621   2.130  1.00  0.00     0.089 A 
HETATM   10  H   UNL     1      40.048 -14.769   4.922  1.00  0.00     0.162 HD
ENDROOT
BRANCH   1  11
HETATM   11  C   UNL     1      40.097 -14.546  -0.451  1.00  0.00     0.276 C 
HETATM   12  N   UNL     1      38.738 -14.397  -0.647  1.00  0.00    -0.322 N 
HETATM   13  H   UNL     1      38.178 -14.639   0.167  1.00  0.00     0.169 HD
HETATM   14  O   UNL     1      40.987 -14.218  -1.227  1.00  0.00    -0.266 OA
BRANCH  12  15
HETATM   15  C   UNL     1      38.081 -13.932  -1.798  1.00  0.00     0.035 A 
HETATM   16  C   UNL     1      37.686 -12.609  -1.980  1.00  0.00     0.032 A 
HETATM   17  C   UNL     1      37.060 -12.203  -3.167  1.00  0.00     0.032 A 
HETATM   18  C   UNL     1      36.801 -13.121  -4.184  1.00  0.00     0.034 A 
HETATM   19  C   UNL     1      37.185 -14.453  -3.996  1.00  0.00     0.032 A 
HETATM   20  C   UNL     1      37.836 -14.852  -2.822  1.00  0.00     0.032 A 
BRANCH  18  21
HETATM   21  N   UNL     1      36.159 -12.794  -5.397  1.00  0.00    -0.327 N 
HETATM   22  C   UNL     1      34.818 -12.945  -5.703  1.00  0.00     0.221 C 
HETATM   23  O   UNL     1      33.942 -13.365  -4.953  1.00  0.00    -0.273 OA
HETATM   24  H   UNL     1      36.746 -12.370  -6.101  1.00  0.00     0.169 HD
BRANCH  22  25
HETATM   25  C   UNL     1      34.478 -12.572  -7.136  1.00  0.00     0.098 C 
HETATM   26  C   UNL     1      35.631 -12.755  -8.107  1.00  0.00     0.014 C 
ENDBRANCH  22  25
ENDBRANCH  18  21
ENDBRANCH  12  15
ENDBRANCH   1  11
BRANCH   8  27
HETATM   27  C   UNL     1      43.560 -17.014   2.819  1.00  0.00     0.409 C 
HETATM   28  F   UNL     1      43.765 -15.685   2.898  1.00  0.00    -0.169 F 
HETATM   29  F   UNL     1      44.288 -17.593   3.808  1.00  0.00    -0.169 F 
HETATM   30  F   UNL     1      44.107 -17.436   1.655  1.00  0.00    -0.169 F 
ENDBRANCH   8  27
BRANCH   6  31
HETATM   31  C   UNL     1      42.470 -15.816   5.856  1.00  0.00     0.075 A 
HETATM   32  O   UNL     1      42.707 -14.506   5.552  1.00  0.00    -0.325 OA
HETATM   33  C   UNL     1      43.833 -14.139   6.218  1.00  0.00     0.142 A 
HETATM   34  C   UNL     1      44.328 -15.196   6.945  1.00  0.00     0.027 A 
HETATM   35  C   UNL     1      43.453 -16.282   6.708  1.00  0.00     0.037 A 
ENDBRANCH   6  31
TORSDOF 6
ENDMDL
MODEL 3
REMARK VINA RESULT:      -7.8      2.025      2.286
REMARK  6 active torsions:
REMARK  status: ('A' for Active; 'I' for Inactive)
REMARK    1  A    between atoms: C_2  and  C_3 
REMARK       I    between atoms: C_3  and  N_4 
REMARK    2  A    between atoms: N_4  and  C_5 
REMARK    3  A    between atoms: C_8  and  N_9 
REMARK       I    between atoms: N_9  and  C_10 
REMARK    4  A    between atoms: C_10  and  C_11 
REMARK    5  A    between atoms: C_16  and  C_17 
REMARK    6  A    between atoms: C_23  and  C_24 
ROOT
HETATM    1  C   UNL     1      41.603 -11.789   6.930  1.00  0.00     0.148 A 
HETATM    2  N   UNL     1      40.571 -10.972   7.248  1.00  0.00    -0.165 NA
HETATM    3  N   UNL     1      41.018 -10.319   8.337  1.00  0.00    -0.240 N 
HETATM    4  C   UNL     1      42.328 -10.568   8.635  1.00  0.00     0.123 A 
HETATM    5  N   UNL     1      42.974  -9.905   9.615  1.00  0.00    -0.364 N 
HETATM    6  C   UNL     1      42.281  -9.011  10.545  1.00  0.00     0.143 C 
HETATM    7  C   UNL     1      41.026  -8.414   9.883  1.00  0.00     0.068 C 
HETATM    8  C   UNL     1      40.168  -9.429   9.105  1.00  0.00     0.221 C 
HETATM    9  C   UNL     1      42.727 -11.548   7.768  1.00  0.00     0.089 A 
HETATM   10  H   UNL     1      43.904 -10.195   9.913  1.00  0.00     0.162 HD
ENDROOT
BRANCH   1  11
HETATM   11  C   UNL     1      41.524 -12.778   5.841  1.00  0.00     0.276 C 
HETATM   12  N   UNL     1      41.953 -14.031   6.239  1.00  0.00    -0.322 N 
HETATM   13  H   UNL     1      42.178 -14.090   7.228  1.00  0.00     0.169 HD
HETATM   14  O   UNL     1      41.088 -12.472   4.737  1.00  0.00    -0.266 OA
BRANCH  12  15
HETATM   15  C   UNL     1      42.073 -15.188   5.452  1.00  0.00     0.035 A 
HETATM   16  C   UNL     1      41.261 -16.310   5.602  1.00  0.00     0.032 A 
HETATM   17  C   UNL     1      41.413 -17.424   4.764  1.00  0.00     0.032 A 
HETATM   18  C   UNL     1      42.396 -17.440   3.775  1.00  0.00     0.034 A 
HETATM   19  C   UNL     1      43.220 -16.318   3.633  1.00  0.00     0.032 A 
HETATM   20  C   UNL     1      43.049 -15.195   4.452  1.00  0.00     0.032 A 
BRANCH  18  21
HETATM   21  N   UNL     1      42.623 -18.528   2.907  1.00  0.00    -0.327 N 
HETATM   22  C   UNL     1      43.590 -19.511   3.030  1.00  0.00     0.221 C 
HETATM   23  O   UNL     1      44.404 -19.623   3.942  1.00  0.00    -0.273 OA
HETATM   24  H   UNL     1      41.981 -18.611   2.131  1.00  0.00     0.169 HD
BRANCH  22  25
HETATM   25  C   UNL     1      43.612 -20.489   1.867  1.00  0.00     0.098 C 
HETATM   26  C   UNL     1      44.301 -21.803   2.184  1.00  0.00     0.014 C 
ENDBRANCH  22  25
ENDBRANCH  18  21
ENDBRANCH  12  15
ENDBRANCH   1  11
BRANCH   8  27
HETATM   27  C   UNL     1      39.236 -10.243   9.977  1.00  0.00     0.409 C 
HETATM   28  F   UNL     1      38.773  -9.574  11.050  1.00  0.00    -0.169 F 
HETATM   29  F   UNL     1      38.158 -10.652   9.261  1.00  0.00    -0.169 F 
HETATM   30  F   UNL     1      39.833 -11.369  10.433  1.00  0.00    -0.169 F 
ENDBRANCH   8  27
BRANCH   6  31
HETATM   31  C   UNL     1      42.020  -9.598  11.895  1.00  0.00     0.075 A 
HETATM   32  O   UNL     1      41.152  -8.913  12.697  1.00  0.00    -0.325 OA
HETATM   33  C   UNL     1      41.087  -9.583  13.876  1.00  0.00     0.142 A 
HETATM   34  C   UNL     1      41.903 -10.688  13.849  1.00  0.00     0.027 A 
HETATM   35  C   UNL     1      42.512 -10.697  12.572  1.00  0.00     0.037 A 
ENDBRANCH   6  31
TORSDOF 6
ENDMDL
MODEL 4
REMARK VINA RESULT:      -7.7      8.250     12.241
REMARK  6 active torsions:
REMARK  status: ('A' for Active; 'I' for Inactive)
REMARK    1  A    between atoms: C_2  and  C_3 
REMARK       I    between atoms: C_3  and  N_4 
REMARK    2  A    between atoms: N_4  and  C_5 
REMARK    3  A    between atoms: C_8  and  N_9 
REMARK       I    between atoms: N_9  and  C_10 
REMARK    4  A    between atoms: C_10  and  C_11 
REMARK    5  A    between atoms: C_16  and  C_17 
REMARK    6  A    between atoms: C_23  and  C_24 
ROOT
HETATM    1  C   UNL     1      40.290 -14.871   0.311  1.00  0.00     0.148 A 
HETATM    2  N   UNL     1      40.547 -14.689   1.628  1.00  0.00    -0.165 NA
HETATM    3  N   UNL     1      41.645 -15.440   1.835  1.00  0.00    -0.240 N 
HETATM    4  C   UNL     1      42.183 -15.964   0.693  1.00  0.00     0.123 A 
HETATM    5  N   UNL     1      43.353 -16.634   0.699  1.00  0.00    -0.364 N 
HETATM    6  C   UNL     1      44.035 -17.008   1.939  1.00  0.00     0.143 C 
HETATM    7  C   UNL     1      43.689 -16.014   3.064  1.00  0.00     0.068 C 
HETATM    8  C   UNL     1      42.196 -15.651   3.160  1.00  0.00     0.221 C 
HETATM    9  C   UNL     1      41.306 -15.650  -0.309  1.00  0.00     0.089 A 
HETATM   10  H   UNL     1      43.670 -17.133  -0.131  1.00  0.00     0.162 HD
ENDROOT
BRANCH   1  11
HETATM   11  C   UNL     1      39.099 -14.307  -0.349  1.00  0.00     0.276 C 
HETATM   12  N   UNL     1      39.091 -14.549  -1.710  1.00  0.00    -0.322 N 
HETATM   13  H   UNL     1      39.858 -15.138  -2.025  1.00  0.00     0.169 HD
HETATM   14  O   UNL     1      38.232 -13.728   0.295  1.00  0.00    -0.266 OA
BRANCH  12  15
HETATM   15  C   UNL     1      38.151 -14.107  -2.656  1.00  0.00     0.035 A 
HETATM   16  C   UNL     1      37.386 -14.966  -3.442  1.00  0.00     0.032 A 
HETATM   17  C   UNL     1      36.443 -14.461  -4.347  1.00  0.00     0.032 A 
HETATM   18  C   UNL     1      36.266 -13.086  -4.497  1.00  0.00     0.034 A 
HETATM   19  C   UNL     1      37.044 -12.223  -3.718  1.00  0.00     0.032 A 
HETATM   20  C   UNL     1      37.966 -12.729  -2.792  1.00  0.00     0.032 A 
BRANCH  18  21
HETATM   21  N   UNL     1      35.353 -12.502  -5.399  1.00  0.00    -0.327 N 
HETATM   22  C   UNL     1      33.971 -12.527  -5.328  1.00  0.00     0.221 C 
HETATM   23  O   UNL     1      33.296 -13.042  -4.441  1.00  0.00    -0.273 OA
HETATM   24  H   UNL     1      35.764 -11.978  -6.160  1.00  0.00     0.169 HD
BRANCH  22  25
HETATM   25  C   UNL     1      33.291 -11.869  -6.518  1.00  0.00     0.098 C 
HETATM   26  C   UNL     1      34.106 -11.924  -7.797  1.00  0.00     0.014 C 
ENDBRANCH  22  25
ENDBRANCH  18  21
ENDBRANCH  12  15
ENDBRANCH   1  11
BRANCH   8  27
HETATM   27  C   UNL     1      41.361 -16.673   3.901  1.00  0.00     0.409 C 
HETATM   28  F   UNL     1      40.676 -17.505   3.092  1.00  0.00    -0.169 F 
HETATM   29  F   UNL     1      42.150 -17.442   4.693  1.00  0.00    -0.169 F 
HETATM   30  F   UNL     1      40.463 -16.084   4.725  1.00  0.00    -0.169 F 
ENDBRANCH   8  27
BRANCH   6  31
HETATM   31  C   UNL     1      43.867 -18.439   2.336  1.00  0.00     0.075 A 
HETATM   32  O   UNL     1      44.542 -18.842   3.453  1.00  0.00    -0.325 OA
HETATM   33  C   UNL     1      44.290 -20.167   3.614  1.00  0.00     0.142 A 
HETATM   34  C   UNL     1      43.465 -20.626   2.615  1.00  0.00     0.027 A 
HETATM   35  C   UNL     1      43.195 -19.512   1.785  1.00  0.00     0.037 A 
ENDBRANCH   6  31
TORSDOF 6
ENDMDL
MODEL 5
REMARK VINA RESULT:      -7.7      3.380     10.493
REMARK  6 active torsions:
REMARK  status: ('A' for Active; 'I' for Inactive)
REMARK    1  A    between atoms: C_2  and  C_3 
REMARK       I    between atoms: C_3  and  N_4 
REMARK    2  A    between atoms: N_4  and  C_5 
REMARK    3  A    between atoms: C_8  and  N_9 
REMARK       I    between atoms: N_9  and  C_10 
REMARK    4  A    between atoms: C_10  and  C_11 
REMARK    5  A    between atoms: C_16  and  C_17 
REMARK    6  A    between atoms: C_23  and  C_24 
ROOT
HETATM    1  C   UNL     1      40.189 -12.040   6.776  1.00  0.00     0.148 A 
HETATM    2  N   UNL     1      41.364 -11.935   6.111  1.00  0.00    -0.165 NA
HETATM    3  N   UNL     1      41.302 -12.938   5.215  1.00  0.00    -0.240 N 
HETATM    4  C   UNL     1      40.093 -13.574   5.175  1.00  0.00     0.123 A 
HETATM    5  N   UNL     1      39.813 -14.516   4.253  1.00  0.00    -0.364 N 
HETATM    6  C   UNL     1      40.832 -15.055   3.350  1.00  0.00     0.143 C 
HETATM    7  C   UNL     1      41.938 -14.013   3.104  1.00  0.00     0.068 C 
HETATM    8  C   UNL     1      42.428 -13.288   4.371  1.00  0.00     0.221 C 
HETATM    9  C   UNL     1      39.360 -13.045   6.204  1.00  0.00     0.089 A 
HETATM   10  H   UNL     1      38.963 -15.073   4.320  1.00  0.00     0.162 HD
ENDROOT
BRANCH   1  11
HETATM   11  C   UNL     1      39.855 -11.193   7.935  1.00  0.00     0.276 C 
HETATM   12  N   UNL     1      40.862 -11.179   8.881  1.00  0.00    -0.322 N 
HETATM   13  H   UNL     1      41.696 -11.687   8.598  1.00  0.00     0.169 HD
HETATM   14  O   UNL     1      38.802 -10.568   7.980  1.00  0.00    -0.266 OA
BRANCH  12  15
HETATM   15  C   UNL     1      40.859 -10.535  10.130  1.00  0.00     0.035 A 
HETATM   16  C   UNL     1      41.377  -9.259  10.340  1.00  0.00     0.032 A 
HETATM   17  C   UNL     1      41.317  -8.659  11.605  1.00  0.00     0.032 A 
HETATM   18  C   UNL     1      40.757  -9.337  12.688  1.00  0.00     0.034 A 
HETATM   19  C   UNL     1      40.250 -10.625  12.480  1.00  0.00     0.032 A 
HETATM   20  C   UNL     1      40.285 -11.212  11.209  1.00  0.00     0.032 A 
BRANCH  18  21
HETATM   21  N   UNL     1      40.678  -8.811  13.993  1.00  0.00    -0.327 N 
HETATM   22  C   UNL     1      41.476  -9.133  15.078  1.00  0.00     0.221 C 
HETATM   23  O   UNL     1      42.419  -9.918  15.081  1.00  0.00    -0.273 OA
HETATM   24  H   UNL     1      39.981  -8.092  14.134  1.00  0.00     0.169 HD
BRANCH  22  25
HETATM   25  C   UNL     1      41.060  -8.438  16.364  1.00  0.00     0.098 C 
HETATM   26  C   UNL     1      39.752  -7.675  16.253  1.00  0.00     0.014 C 
ENDBRANCH  22  25
ENDBRANCH  18  21
ENDBRANCH  12  15
ENDBRANCH   1  11
BRANCH   8  27
HETATM   27  C   UNL     1      43.442 -14.072   5.175  1.00  0.00     0.409 C 
HETATM   28  F   UNL     1      44.350 -13.302   5.805  1.00  0.00    -0.169 F 
HETATM   29  F   UNL     1      42.818 -14.816   6.124  1.00  0.00    -0.169 F 
HETATM   30  F   UNL     1      44.125 -14.949   4.402  1.00  0.00    -0.169 F 
ENDBRANCH   8  27
BRANCH   6  31
HETATM   31  C   UNL     1      41.356 -16.401   3.735  1.00  0.00     0.075 A 
HETATM   32  O   UNL     1      40.938 -16.894   4.938  1.00  0.00    -0.325 OA
HETATM   33  C   UNL     1      41.553 -18.092   5.113  1.00  0.00     0.142 A 
HETATM   34  C   UNL     1      42.367 -18.377   4.042  1.00  0.00     0.027 A 
HETATM   35  C   UNL     1      42.246 -17.283   3.153  1.00  0.00     0.037 A 
ENDBRANCH   6  31
TORSDOF 6
ENDMDL
MODEL 6
REMARK VINA RESULT:      -7.6      2.451      3.024
REMARK  6 active torsions:
REMARK  status: ('A' for Active; 'I' for Inactive)
REMARK    1  A    between atoms: C_2  and  C_3 
REMARK       I    between atoms: C_3  and  N_4 
REMARK    2  A    between atoms: N_4  and  C_5 
REMARK    3  A    between atoms: C_8  and  N_9 
REMARK       I    between atoms: N_9  and  C_10 
REMARK    4  A    between atoms: C_10  and  C_11 
REMARK    5  A    between atoms: C_16  and  C_17 
REMARK    6  A    between atoms: C_23  and  C_24 
ROOT
HETATM    1  C   UNL     1      40.374 -10.436   8.342  1.00  0.00     0.148 A 
HETATM    2  N   UNL     1      39.398  -9.665   8.876  1.00  0.00    -0.165 NA
HETATM    3  N   UNL     1      40.002  -9.093   9.935  1.00  0.00    -0.240 N 
HETATM    4  C   UNL     1      41.343  -9.342  10.011  1.00  0.00     0.123 A 
HETATM    5  N   UNL     1      42.127  -8.747  10.934  1.00  0.00    -0.364 N 
HETATM    6  C   UNL     1      41.578  -7.943  12.026  1.00  0.00     0.143 C 
HETATM    7  C   UNL     1      40.234  -7.316  11.611  1.00  0.00     0.068 C 
HETATM    8  C   UNL     1      39.274  -8.281  10.892  1.00  0.00     0.221 C 
HETATM    9  C   UNL     1      41.611 -10.244   9.018  1.00  0.00     0.089 A 
HETATM   10  H   UNL     1      43.093  -9.045  11.064  1.00  0.00     0.162 HD
ENDROOT
BRANCH   1  11
HETATM   11  C   UNL     1      40.137 -11.337   7.201  1.00  0.00     0.276 C 
HETATM   12  N   UNL     1      41.213 -12.169   6.957  1.00  0.00    -0.322 N 
HETATM   13  H   UNL     1      41.959 -12.084   7.642  1.00  0.00     0.169 HD
HETATM   14  O   UNL     1      39.071 -11.326   6.595  1.00  0.00    -0.266 OA
BRANCH  12  15
HETATM   15  C   UNL     1      41.360 -13.103   5.918  1.00  0.00     0.035 A 
HETATM   16  C   UNL     1      42.177 -12.900   4.808  1.00  0.00     0.032 A 
HETATM   17  C   UNL     1      42.303 -13.885   3.819  1.00  0.00     0.032 A 
HETATM   18  C   UNL     1      41.595 -15.083   3.915  1.00  0.00     0.034 A 
HETATM   19  C   UNL     1      40.763 -15.281   5.022  1.00  0.00     0.032 A 
HETATM   20  C   UNL     1      40.660 -14.308   6.024  1.00  0.00     0.032 A 
BRANCH  18  21
HETATM   21  N   UNL     1      41.653 -16.113   2.953  1.00  0.00    -0.327 N 
HETATM   22  C   UNL     1      42.438 -17.252   2.990  1.00  0.00     0.221 C 
HETATM   23  O   UNL     1      43.205 -17.580   3.891  1.00  0.00    -0.273 OA
HETATM   24  H   UNL     1      41.021 -16.017   2.170  1.00  0.00     0.169 HD
BRANCH  22  25
HETATM   25  C   UNL     1      42.318 -18.112   1.743  1.00  0.00     0.098 C 
HETATM   26  C   UNL     1      43.207 -19.343   1.760  1.00  0.00     0.014 C 
ENDBRANCH  22  25
ENDBRANCH  18  21
ENDBRANCH  12  15
ENDBRANCH   1  11
BRANCH   8  27
HETATM   27  C   UNL     1      38.488  -9.177  11.825  1.00  0.00     0.409 C 
HETATM   28  F   UNL     1      39.128 -10.317  12.150  1.00  0.00    -0.169 F 
HETATM   29  F   UNL     1      38.213  -8.526  12.984  1.00  0.00    -0.169 F 
HETATM   30  F   UNL     1      37.291  -9.524  11.297  1.00  0.00    -0.169 F 
ENDBRANCH   8  27
BRANCH   6  31
HETATM   31  C   UNL     1      41.527  -8.638  13.348  1.00  0.00     0.075 A 
HETATM   32  O   UNL     1      40.876  -7.983  14.354  1.00  0.00    -0.325 OA
HETATM   33  C   UNL     1      40.979  -8.757  15.465  1.00  0.00     0.142 A 
HETATM   34  C   UNL     1      41.691  -9.901  15.192  1.00  0.00     0.027 A 
HETATM   35  C   UNL     1      42.051  -9.824  13.826  1.00  0.00     0.037 A 
ENDBRANCH   6  31
TORSDOF 6
ENDMDL
MODEL 7
REMARK VINA RESULT:      -7.6      4.195     10.829
REMARK  6 active torsions:
REMARK  status: ('A' for Active; 'I' for Inactive)
REMARK    1  A    between atoms: C_2  and  C_3 
REMARK       I    between atoms: C_3  and  N_4 
REMARK    2  A    between atoms: N_4  and  C_5 
REMARK    3  A    between atoms: C_8  and  N_9 
REMARK       I    between atoms: N_9  and  C_10 
REMARK    4  A    between atoms: C_10  and  C_11 
REMARK    5  A    between atoms: C_16  and  C_17 
REMARK    6  A    between atoms: C_23  and  C_24 
ROOT
HETATM    1  C   UNL     1      39.867 -12.420   5.269  1.00  0.00     0.148 A 
HETATM    2  N   UNL     1      39.920 -12.068   3.963  1.00  0.00    -0.165 NA
HETATM    3  N   UNL     1      40.070 -13.247   3.331  1.00  0.00    -0.240 N 
HETATM    4  C   UNL     1      39.964 -14.335   4.151  1.00  0.00     0.123 A 
HETATM    5  N   UNL     1      39.962 -15.594   3.669  1.00  0.00    -0.364 N 
HETATM    6  C   UNL     1      40.256 -15.895   2.267  1.00  0.00     0.143 C 
HETATM    7  C   UNL     1      39.872 -14.705   1.368  1.00  0.00     0.068 C 
HETATM    8  C   UNL     1      40.313 -13.331   1.903  1.00  0.00     0.221 C 
HETATM    9  C   UNL     1      39.874 -13.835   5.422  1.00  0.00     0.089 A 
HETATM   10  H   UNL     1      40.019 -16.392   4.300  1.00  0.00     0.162 HD
ENDROOT
BRANCH   1  11
HETATM   11  C   UNL     1      39.804 -11.427   6.356  1.00  0.00     0.276 C 
HETATM   12  N   UNL     1      40.698 -11.706   7.373  1.00  0.00    -0.322 N 
HETATM   13  H   UNL     1      41.305 -12.498   7.178  1.00  0.00     0.169 HD
HETATM   14  O   UNL     1      39.047 -10.466   6.293  1.00  0.00    -0.266 OA
BRANCH  12  15
HETATM   15  C   UNL     1      40.864 -11.015   8.584  1.00  0.00     0.035 A 
HETATM   16  C   UNL     1      41.956 -10.194   8.860  1.00  0.00     0.032 A 
HETATM   17  C   UNL     1      42.049  -9.507  10.078  1.00  0.00     0.032 A 
HETATM   18  C   UNL     1      41.059  -9.648  11.051  1.00  0.00     0.034 A 
HETATM   19  C   UNL     1      39.970 -10.483  10.780  1.00  0.00     0.032 A 
HETATM   20  C   UNL     1      39.864 -11.147   9.551  1.00  0.00     0.032 A 
BRANCH  18  21
HETATM   21  N   UNL     1      41.091  -9.007  12.307  1.00  0.00    -0.327 N 
HETATM   22  C   UNL     1      41.745  -9.433  13.450  1.00  0.00     0.221 C 
HETATM   23  O   UNL     1      42.442 -10.437  13.559  1.00  0.00    -0.273 OA
HETATM   24  H   UNL     1      40.608  -8.121  12.357  1.00  0.00     0.169 HD
BRANCH  22  25
HETATM   25  C   UNL     1      41.497  -8.544  14.657  1.00  0.00     0.098 C 
HETATM   26  C   UNL     1      42.050  -9.105  15.955  1.00  0.00     0.014 C 
ENDBRANCH  22  25
ENDBRANCH  18  21
ENDBRANCH  12  15
ENDBRANCH   1  11
BRANCH   8  27
HETATM   27  C   UNL     1      41.759 -12.993   1.613  1.00  0.00     0.409 C 
HETATM   28  F   UNL     1      42.615 -13.401   2.570  1.00  0.00    -0.169 F 
HETATM   29  F   UNL     1      42.153 -13.569   0.449  1.00  0.00    -0.169 F 
HETATM   30  F   UNL     1      41.940 -11.661   1.453  1.00  0.00    -0.169 F 
ENDBRANCH   8  27
BRANCH   6  31
HETATM   31  C   UNL     1      41.637 -16.409   2.016  1.00  0.00     0.075 A 
HETATM   32  O   UNL     1      42.464 -16.482   3.101  1.00  0.00    -0.325 OA
HETATM   33  C   UNL     1      43.667 -16.929   2.655  1.00  0.00     0.142 A 
HETATM   34  C   UNL     1      43.629 -17.142   1.298  1.00  0.00     0.027 A 
HETATM   35  C   UNL     1      42.321 -16.801   0.882  1.00  0.00     0.037 A 
ENDBRANCH   6  31
TORSDOF 6
ENDMDL
MODEL 8
REMARK VINA RESULT:      -7.4      3.800      4.702
REMARK  6 active torsions:
REMARK  status: ('A' for Active; 'I' for Inactive)
REMARK    1  A    between atoms: C_2  and  C_3 
REMARK       I    between atoms: C_3  and  N_4 
REMARK    2  A    between atoms: N_4  and  C_5 
REMARK    3  A    between atoms: C_8  and  N_9 
REMARK       I    between atoms: N_9  and  C_10 
REMARK    4  A    between atoms: C_10  and  C_11 
REMARK    5  A    between atoms: C_16  and  C_17 
REMARK    6  A    between atoms: C_23  and  C_24 
ROOT
HETATM    1  C   UNL     1      41.409 -10.672   8.376  1.00  0.00     0.148 A 
HETATM    2  N   UNL     1      42.442 -11.061   9.160  1.00  0.00    -0.165 NA
HETATM    3  N   UNL     1      41.941 -10.957  10.405  1.00  0.00    -0.240 N 
HETATM    4  C   UNL     1      40.605 -10.671  10.444  1.00  0.00     0.123 A 
HETATM    5  N   UNL     1      39.913 -10.655  11.601  1.00  0.00    -0.364 N 
HETATM    6  C   UNL     1      40.568 -10.760  12.906  1.00  0.00     0.143 C 
HETATM    7  C   UNL     1      41.886 -11.547  12.785  1.00  0.00     0.068 C 
HETATM    8  C   UNL     1      42.762 -11.146  11.585  1.00  0.00     0.221 C 
HETATM    9  C   UNL     1      40.236 -10.438   9.147  1.00  0.00     0.089 A 
HETATM   10  H   UNL     1      38.956 -10.309  11.629  1.00  0.00     0.162 HD
ENDROOT
BRANCH   1  11
HETATM   11  C   UNL     1      41.532 -10.533   6.914  1.00  0.00     0.276 C 
HETATM   12  N   UNL     1      41.169 -11.687   6.245  1.00  0.00    -0.322 N 
HETATM   13  H   UNL     1      40.804 -12.415   6.854  1.00  0.00     0.169 HD
HETATM   14  O   UNL     1      41.890  -9.477   6.406  1.00  0.00    -0.266 OA
BRANCH  12  15
HETATM   15  C   UNL     1      41.222 -11.932   4.863  1.00  0.00     0.035 A 
HETATM   16  C   UNL     1      40.296 -11.425   3.954  1.00  0.00     0.032 A 
HETATM   17  C   UNL     1      40.422 -11.683   2.582  1.00  0.00     0.032 A 
HETATM   18  C   UNL     1      41.466 -12.471   2.099  1.00  0.00     0.034 A 
HETATM   19  C   UNL     1      42.388 -12.992   3.014  1.00  0.00     0.032 A 
HETATM   20  C   UNL     1      42.278 -12.711   4.381  1.00  0.00     0.032 A 
BRANCH  18  21
HETATM   21  N   UNL     1      41.649 -12.791   0.738  1.00  0.00    -0.327 N 
HETATM   22  C   UNL     1      42.322 -12.047  -0.216  1.00  0.00     0.221 C 
HETATM   23  O   UNL     1      42.907 -10.984  -0.031  1.00  0.00    -0.273 OA
HETATM   24  H   UNL     1      41.274 -13.682   0.444  1.00  0.00     0.169 HD
BRANCH  22  25
HETATM   25  C   UNL     1      42.253 -12.645  -1.611  1.00  0.00     0.098 C 
HETATM   26  C   UNL     1      42.654 -11.680  -2.712  1.00  0.00     0.014 C 
ENDBRANCH  22  25
ENDBRANCH  18  21
ENDBRANCH  12  15
ENDBRANCH   1  11
BRANCH   8  27
HETATM   27  C   UNL     1      43.603  -9.910  11.822  1.00  0.00     0.409 C 
HETATM   28  F   UNL     1      42.994  -8.762  11.468  1.00  0.00    -0.169 F 
HETATM   29  F   UNL     1      43.926  -9.805  13.136  1.00  0.00    -0.169 F 
HETATM   30  F   UNL     1      44.777  -9.966  11.150  1.00  0.00    -0.169 F 
ENDBRANCH   8  27
BRANCH   6  31
HETATM   31  C   UNL     1      40.713  -9.464  13.637  1.00  0.00     0.075 A 
HETATM   32  O   UNL     1      40.273  -8.347  12.985  1.00  0.00    -0.325 OA
HETATM   33  C   UNL     1      40.530  -7.287  13.795  1.00  0.00     0.142 A 
HETATM   34  C   UNL     1      41.132  -7.703  14.958  1.00  0.00     0.027 A 
HETATM   35  C   UNL     1      41.257  -9.109  14.856  1.00  0.00     0.037 A 
ENDBRANCH   6  31
TORSDOF 6
ENDMDL
MODEL 9
REMARK VINA RESULT:      -7.4      9.573     11.429
REMARK  6 active torsions:
REMARK  status: ('A' for Active; 'I' for Inactive)
REMARK    1  A    between atoms: C_2  and  C_3 
REMARK       I    between atoms: C_3  and  N_4 
REMARK    2  A    between atoms: N_4  and  C_5 
REMARK    3  A    between atoms: C_8  and  N_9 
REMARK       I    between atoms: N_9  and  C_10 
REMARK    4  A    between atoms: C_10  and  C_11 
REMARK    5  A    between atoms: C_16  and  C_17 
REMARK    6  A    between atoms: C_23  and  C_24 
ROOT
HETATM    1  C   UNL     1      41.207 -13.692  -0.004  1.00  0.00     0.148 A 
HETATM    2  N   UNL     1      40.892 -14.167  -1.233  1.00  0.00    -0.165 NA
HETATM    3  N   UNL     1      40.197 -13.155  -1.786  1.00  0.00    -0.240 N 
HETATM    4  C   UNL     1      40.186 -12.014  -1.036  1.00  0.00     0.123 A 
HETATM    5  N   UNL     1      39.647 -10.866  -1.493  1.00  0.00    -0.364 N 
HETATM    6  C   UNL     1      38.879 -10.803  -2.738  1.00  0.00     0.143 C 
HETATM    7  C   UNL     1      39.343 -11.901  -3.713  1.00  0.00     0.068 C 
HETATM    8  C   UNL     1      39.537 -13.286  -3.071  1.00  0.00     0.221 C 
HETATM    9  C   UNL     1      40.796 -12.339   0.145  1.00  0.00     0.089 A 
HETATM   10  H   UNL     1      39.525 -10.066  -0.874  1.00  0.00     0.162 HD
ENDROOT
BRANCH   1  11
HETATM   11  C   UNL     1      41.895 -14.511   1.009  1.00  0.00     0.276 C 
HETATM   12  N   UNL     1      41.932 -15.849   0.666  1.00  0.00    -0.322 N 
HETATM   13  H   UNL     1      41.553 -16.044  -0.257  1.00  0.00     0.169 HD
HETATM   14  O   UNL     1      42.387 -14.000   2.009  1.00  0.00    -0.266 OA
BRANCH  12  15
HETATM   15  C   UNL     1      42.449 -16.916   1.420  1.00  0.00     0.035 A 
HETATM   16  C   UNL     1      41.899 -17.345   2.626  1.00  0.00     0.032 A 
HETATM   17  C   UNL     1      42.444 -18.436   3.315  1.00  0.00     0.032 A 
HETATM   18  C   UNL     1      43.564 -19.103   2.819  1.00  0.00     0.034 A 
HETATM   19  C   UNL     1      44.124 -18.664   1.615  1.00  0.00     0.032 A 
HETATM   20  C   UNL     1      43.562 -17.591   0.912  1.00  0.00     0.032 A 
BRANCH  18  21
HETATM   21  N   UNL     1      44.182 -20.195   3.463  1.00  0.00    -0.327 N 
HETATM   22  C   UNL     1      44.252 -21.503   3.015  1.00  0.00     0.221 C 
HETATM   23  O   UNL     1      43.810 -21.935   1.955  1.00  0.00    -0.273 OA
HETATM   24  H   UNL     1      44.654 -19.981   4.330  1.00  0.00     0.169 HD
BRANCH  22  25
HETATM   25  C   UNL     1      44.919 -22.447   4.002  1.00  0.00     0.098 C 
HETATM   26  C   UNL     1      44.803 -22.002   5.449  1.00  0.00     0.014 C 
ENDBRANCH  22  25
ENDBRANCH  18  21
ENDBRANCH  12  15
ENDBRANCH   1  11
BRANCH   8  27
HETATM   27  C   UNL     1      38.254 -14.073  -2.905  1.00  0.00     0.409 C 
HETATM   28  F   UNL     1      37.685 -13.936  -1.692  1.00  0.00    -0.169 F 
HETATM   29  F   UNL     1      37.338 -13.680  -3.826  1.00  0.00    -0.169 F 
HETATM   30  F   UNL     1      38.449 -15.397  -3.111  1.00  0.00    -0.169 F 
ENDBRANCH   8  27
BRANCH   6  31
HETATM   31  C   UNL     1      37.396 -10.758  -2.553  1.00  0.00     0.075 A 
HETATM   32  O   UNL     1      36.937 -10.932  -1.278  1.00  0.00    -0.325 OA
HETATM   33  C   UNL     1      35.581 -10.898  -1.335  1.00  0.00     0.142 A 
HETATM   34  C   UNL     1      35.157 -10.709  -2.628  1.00  0.00     0.027 A 
HETATM   35  C   UNL     1      36.328 -10.624  -3.418  1.00  0.00     0.037 A 
ENDBRANCH   6  31
TORSDOF 6
ENDMDL
MODEL 10
REMARK VINA RESULT:      -7.3      7.030     10.056
REMARK  6 active torsions:
REMARK  status: ('A' for Active; 'I' for Inactive)
REMARK    1  A    between atoms: C_2  and  C_3 
REMARK       I    between atoms: C_3  and  N_4 
REMARK    2  A    between atoms: N_4  and  C_5 
REMARK    3  A    between atoms: C_8  and  N_9 
REMARK       I    between atoms: N_9  and  C_10 
REMARK    4  A    between atoms: C_10  and  C_11 
REMARK    5  A    between atoms: C_16  and  C_17 
REMARK    6  A    between atoms: C_23  and  C_24 
ROOT
HETATM    1  C   UNL     1      42.061 -16.695   2.182  1.00  0.00     0.148 A 
HETATM    2  N   UNL     1      41.860 -16.026   3.342  1.00  0.00    -0.165 NA
HETATM    3  N   UNL     1      42.715 -16.623   4.195  1.00  0.00    -0.240 N 
HETATM    4  C   UNL     1      43.550 -17.527   3.602  1.00  0.00     0.123 A 
HETATM    5  N   UNL     1      44.550 -18.125   4.280  1.00  0.00    -0.364 N 
HETATM    6  C   UNL     1      44.703 -17.991   5.729  1.00  0.00     0.143 C 
HETATM    7  C   UNL     1      44.110 -16.654   6.212  1.00  0.00     0.068 C 
HETATM    8  C   UNL     1      42.735 -16.310   5.611  1.00  0.00     0.221 C 
HETATM    9  C   UNL     1      43.126 -17.630   2.304  1.00  0.00     0.089 A 
HETATM   10  H   UNL     1      45.074 -18.893   3.863  1.00  0.00     0.162 HD
ENDROOT
BRANCH   1  11
HETATM   11  C   UNL     1      41.257 -16.443   0.973  1.00  0.00     0.276 C 
HETATM   12  N   UNL     1      40.962 -15.103   0.809  1.00  0.00    -0.322 N 
HETATM   13  H   UNL     1      41.407 -14.500   1.496  1.00  0.00     0.169 HD
HETATM   14  O   UNL     1      40.944 -17.357   0.219  1.00  0.00    -0.266 OA
BRANCH  12  15
HETATM   15  C   UNL     1      40.170 -14.513  -0.189  1.00  0.00     0.035 A 
HETATM   16  C   UNL     1      40.597 -14.326  -1.502  1.00  0.00     0.032 A 
HETATM   17  C   UNL     1      39.745 -13.757  -2.459  1.00  0.00     0.032 A 
HETATM   18  C   UNL     1      38.459 -13.346  -2.112  1.00  0.00     0.034 A 
HETATM   19  C   UNL     1      38.035 -13.521  -0.790  1.00  0.00     0.032 A 
HETATM   20  C   UNL     1      38.876 -14.116   0.159  1.00  0.00     0.032 A 
BRANCH  18  21
HETATM   21  N   UNL     1      37.551 -12.748  -3.011  1.00  0.00    -0.327 N 
HETATM   22  C   UNL     1      36.773 -13.383  -3.963  1.00  0.00     0.221 C 
HETATM   23  O   UNL     1      36.716 -14.592  -4.170  1.00  0.00    -0.273 OA
HETATM   24  H   UNL     1      37.438 -11.748  -2.918  1.00  0.00     0.169 HD
BRANCH  22  25
HETATM   25  C   UNL     1      35.968 -12.425  -4.826  1.00  0.00     0.098 C 
HETATM   26  C   UNL     1      36.118 -10.968  -4.426  1.00  0.00     0.014 C 
ENDBRANCH  22  25
ENDBRANCH  18  21
ENDBRANCH  12  15
ENDBRANCH   1  11
BRANCH   8  27
HETATM   27  C   UNL     1      41.574 -16.993   6.299  1.00  0.00     0.409 C 
HETATM   28  F   UNL     1      41.831 -17.353   7.571  1.00  0.00    -0.169 F 
HETATM   29  F   UNL     1      40.492 -16.174   6.324  1.00  0.00    -0.169 F 
HETATM   30  F   UNL     1      41.185 -18.108   5.637  1.00  0.00    -0.169 F 
ENDBRANCH   8  27
BRANCH   6  31
HETATM   31  C   UNL     1      44.231 -19.170   6.517  1.00  0.00     0.075 A 
HETATM   32  O   UNL     1      44.215 -19.027   7.875  1.00  0.00    -0.325 OA
HETATM   33  C   UNL     1      43.798 -20.209   8.396  1.00  0.00     0.142 A 
HETATM   34  C   UNL     1      43.549 -21.117   7.394  1.00  0.00     0.027 A 
HETATM   35  C   UNL     1      43.833 -20.449   6.179  1.00  0.00     0.037 A 
ENDBRANCH   6  31
TORSDOF 6
ENDMDL
