MODEL 1
REMARK VINA RESULT:      -8.7      0.000      0.000
REMARK  4 active torsions:
REMARK  status: ('A' for Active; 'I' for Inactive)
REMARK    1  A    between atoms: C_3  and  N_4 
REMARK       I    between atoms: N_4  and  C_5 
REMARK    2  A    between atoms: C_5  and  C_6 
REMARK    3  A    between atoms: C_7  and  C_8 
REMARK    4  A    between atoms: C_16  and  C_17 
ROOT
HETATM    1  C   UNL     1      43.251 -16.989   1.184  1.00  0.00     0.003 A 
HETATM    2  C   UNL     1      43.169 -16.155   2.300  1.00  0.00     0.029 A 
HETATM    3  C   UNL     1      43.408 -16.665   3.575  1.00  0.00     0.035 A 
HETATM    4  C   UNL     1      43.723 -18.027   3.715  1.00  0.00     0.042 A 
HETATM    5  C   UNL     1      43.806 -18.881   2.602  1.00  0.00    -0.021 A 
HETATM    6  C   UNL     1      43.569 -18.340   1.332  1.00  0.00     0.012 A 
ENDROOT
BRANCH   3   7
HETATM    7  N   UNL     1      43.381 -15.887   4.751  1.00  0.00    -0.327 N 
HETATM    8  C   UNL     1      43.730 -14.559   4.889  1.00  0.00     0.227 C 
HETATM    9  O   UNL     1      44.058 -13.783   4.003  1.00  0.00    -0.273 OA
HETATM   10  H   UNL     1      43.088 -16.366   5.591  1.00  0.00     0.169 HD
BRANCH   8  11
HETATM   11  C   UNL     1      43.703 -14.090   6.308  1.00  0.00     0.089 A 
HETATM   12  C   UNL     1      45.000 -13.981   7.097  1.00  0.00     0.057 A 
HETATM   13  C   UNL     1      43.990 -15.064   7.409  1.00  0.00     0.027 A 
BRANCH  12  14
HETATM   14  C   UNL     1      45.126 -12.837   8.085  1.00  0.00     0.057 A 
HETATM   15  O   UNL     1      44.088 -12.313   8.797  1.00  0.00    -0.327 OA
HETATM   16  C   UNL     1      44.599 -11.325   9.575  1.00  0.00     0.142 A 
HETATM   17  C   UNL     1      45.953 -11.202   9.369  1.00  0.00     0.027 A 
HETATM   18  C   UNL     1      46.295 -12.180   8.403  1.00  0.00     0.035 A 
ENDBRANCH  12  14
ENDBRANCH   8  11
ENDBRANCH   3   7
BRANCH   5  19
HETATM   19  C   UNL     1      44.140 -20.290   2.779  1.00  0.00     0.010 A 
HETATM   20  C   UNL     1      44.012 -21.392   1.896  1.00  0.00     0.152 A 
HETATM   21  N   UNL     1      44.441 -22.540   2.427  1.00  0.00    -0.187 NA
HETATM   22  N   UNL     1      44.845 -22.184   3.655  1.00  0.00    -0.289 N 
HETATM   23  H   UNL     1      45.220 -22.903   4.266  1.00  0.00     0.188 HD
HETATM   24  C   UNL     1      44.689 -20.853   3.913  1.00  0.00     0.123 A 
ENDBRANCH   5  19
TORSDOF 4
ENDMDL
MODEL 2
REMARK VINA RESULT:      -8.2      4.120      7.729
REMARK  4 active torsions:
REMARK  status: ('A' for Active; 'I' for Inactive)
REMARK    1  A    between atoms: C_3  and  N_4 
REMARK       I    between atoms: N_4  and  C_5 
REMARK    2  A    between atoms: C_5  and  C_6 
REMARK    3  A    between atoms: C_7  and  C_8 
REMARK    4  A    between atoms: C_16  and  C_17 
ROOT
HETATM    1  C   UNL     1      44.732 -20.308   3.816  1.00  0.00     0.003 A 
HETATM    2  C   UNL     1      43.885 -19.758   2.853  1.00  0.00     0.029 A 
HETATM    3  C   UNL     1      43.004 -18.734   3.195  1.00  0.00     0.035 A 
HETATM    4  C   UNL     1      42.979 -18.274   4.522  1.00  0.00     0.042 A 
HETATM    5  C   UNL     1      43.822 -18.818   5.506  1.00  0.00    -0.021 A 
HETATM    6  C   UNL     1      44.703 -19.841   5.132  1.00  0.00     0.012 A 
ENDROOT
BRANCH   3   7
HETATM    7  N   UNL     1      42.141 -18.100   2.277  1.00  0.00    -0.327 N 
HETATM    8  C   UNL     1      42.485 -17.450   1.111  1.00  0.00     0.227 C 
HETATM    9  O   UNL     1      43.597 -17.364   0.610  1.00  0.00    -0.273 OA
HETATM   10  H   UNL     1      41.159 -18.110   2.516  1.00  0.00     0.169 HD
BRANCH   8  11
HETATM   11  C   UNL     1      41.324 -16.781   0.448  1.00  0.00     0.089 A 
HETATM   12  C   UNL     1      41.490 -15.394  -0.156  1.00  0.00     0.057 A 
HETATM   13  C   UNL     1      40.683 -15.598   1.108  1.00  0.00     0.027 A 
BRANCH  12  14
HETATM   14  C   UNL     1      40.727 -15.087  -1.431  1.00  0.00     0.057 A 
HETATM   15  O   UNL     1      39.585 -14.344  -1.488  1.00  0.00    -0.327 OA
HETATM   16  C   UNL     1      39.216 -14.284  -2.793  1.00  0.00     0.142 A 
HETATM   17  C   UNL     1      40.102 -14.983  -3.577  1.00  0.00     0.027 A 
HETATM   18  C   UNL     1      41.081 -15.505  -2.696  1.00  0.00     0.035 A 
ENDBRANCH  12  14
ENDBRANCH   8  11
ENDBRANCH   3   7
BRANCH   5  19
HETATM   19  C   UNL     1      43.776 -18.315   6.874  1.00  0.00     0.010 A 
HETATM   20  C   UNL     1      43.412 -17.043   7.383  1.00  0.00     0.152 A 
HETATM   21  N   UNL     1      43.491 -16.969   8.714  1.00  0.00    -0.187 NA
HETATM   22  N   UNL     1      43.908 -18.193   9.069  1.00  0.00    -0.289 N 
HETATM   23  H   UNL     1      44.047 -18.387  10.056  1.00  0.00     0.188 HD
HETATM   24  C   UNL     1      44.091 -19.033   8.009  1.00  0.00     0.123 A 
ENDBRANCH   5  19
TORSDOF 4
ENDMDL
MODEL 3
REMARK VINA RESULT:      -8.2      3.299      4.564
REMARK  4 active torsions:
REMARK  status: ('A' for Active; 'I' for Inactive)
REMARK    1  A    between atoms: C_3  and  N_4 
REMARK       I    between atoms: N_4  and  C_5 
REMARK    2  A    between atoms: C_5  and  C_6 
REMARK    3  A    between atoms: C_7  and  C_8 
REMARK    4  A    between atoms: C_16  and  C_17 
ROOT
HETATM    1  C   UNL     1      44.142 -17.886   5.625  1.00  0.00     0.003 A 
HETATM    2  C   UNL     1      44.464 -16.942   6.602  1.00  0.00     0.029 A 
HETATM    3  C   UNL     1      43.763 -15.739   6.673  1.00  0.00     0.035 A 
HETATM    4  C   UNL     1      42.738 -15.493   5.745  1.00  0.00     0.042 A 
HETATM    5  C   UNL     1      42.403 -16.431   4.753  1.00  0.00    -0.021 A 
HETATM    6  C   UNL     1      43.118 -17.635   4.709  1.00  0.00     0.012 A 
ENDROOT
BRANCH   3   7
HETATM    7  N   UNL     1      44.000 -14.748   7.648  1.00  0.00    -0.327 N 
HETATM    8  C   UNL     1      44.894 -13.700   7.583  1.00  0.00     0.227 C 
HETATM    9  O   UNL     1      45.599 -13.386   6.635  1.00  0.00    -0.273 OA
HETATM   10  H   UNL     1      43.462 -14.831   8.501  1.00  0.00     0.169 HD
BRANCH   8  11
HETATM   11  C   UNL     1      44.975 -12.917   8.854  1.00  0.00     0.089 A 
HETATM   12  C   UNL     1      44.318 -11.548   8.945  1.00  0.00     0.057 A 
HETATM   13  C   UNL     1      45.825 -11.684   8.904  1.00  0.00     0.027 A 
BRANCH  12  14
HETATM   14  C   UNL     1      43.687 -11.158  10.268  1.00  0.00     0.057 A 
HETATM   15  O   UNL     1      42.368 -11.323  10.573  1.00  0.00    -0.327 OA
HETATM   16  C   UNL     1      42.194 -10.872  11.842  1.00  0.00     0.142 A 
HETATM   17  C   UNL     1      43.384 -10.413  12.356  1.00  0.00     0.027 A 
HETATM   18  C   UNL     1      44.351 -10.597  11.337  1.00  0.00     0.035 A 
ENDBRANCH  12  14
ENDBRANCH   8  11
ENDBRANCH   3   7
BRANCH   5  19
HETATM   19  C   UNL     1      41.330 -16.149   3.806  1.00  0.00     0.010 A 
HETATM   20  C   UNL     1      40.936 -16.823   2.623  1.00  0.00     0.152 A 
HETATM   21  N   UNL     1      39.885 -16.256   2.023  1.00  0.00    -0.187 NA
HETATM   22  N   UNL     1      39.598 -15.215   2.817  1.00  0.00    -0.289 N 
HETATM   23  H   UNL     1      38.818 -14.616   2.563  1.00  0.00     0.188 HD
HETATM   24  C   UNL     1      40.429 -15.108   3.895  1.00  0.00     0.123 A 
ENDBRANCH   5  19
TORSDOF 4
ENDMDL
MODEL 4
REMARK VINA RESULT:      -8.2      2.437      3.969
REMARK  4 active torsions:
REMARK  status: ('A' for Active; 'I' for Inactive)
REMARK    1  A    between atoms: C_3  and  N_4 
REMARK       I    between atoms: N_4  and  C_5 
REMARK    2  A    between atoms: C_5  and  C_6 
REMARK    3  A    between atoms: C_7  and  C_8 
REMARK    4  A    between atoms: C_16  and  C_17 
ROOT
HETATM    1  C   UNL     1      43.232 -14.741   4.275  1.00  0.00     0.003 A 
HETATM    2  C   UNL     1      43.410 -13.893   5.369  1.00  0.00     0.029 A 
HETATM    3  C   UNL     1      43.746 -14.417   6.616  1.00  0.00     0.035 A 
HETATM    4  C   UNL     1      43.892 -15.808   6.752  1.00  0.00     0.042 A 
HETATM    5  C   UNL     1      43.712 -16.676   5.662  1.00  0.00    -0.021 A 
HETATM    6  C   UNL     1      43.383 -16.122   4.419  1.00  0.00     0.012 A 
ENDROOT
BRANCH   3   7
HETATM    7  N   UNL     1      43.979 -13.630   7.763  1.00  0.00    -0.327 N 
HETATM    8  C   UNL     1      45.142 -12.976   8.112  1.00  0.00     0.227 C 
HETATM    9  O   UNL     1      46.171 -12.893   7.457  1.00  0.00    -0.273 OA
HETATM   10  H   UNL     1      43.206 -13.554   8.410  1.00  0.00     0.169 HD
BRANCH   8  11
HETATM   11  C   UNL     1      45.075 -12.340   9.463  1.00  0.00     0.089 A 
HETATM   12  C   UNL     1      44.269 -11.065   9.663  1.00  0.00     0.057 A 
HETATM   13  C   UNL     1      45.782 -11.040   9.699  1.00  0.00     0.027 A 
BRANCH  12  14
HETATM   14  C   UNL     1      43.535 -10.897  10.979  1.00  0.00     0.057 A 
HETATM   15  O   UNL     1      42.338 -11.478  11.276  1.00  0.00    -0.327 OA
HETATM   16  C   UNL     1      42.017 -11.104  12.541  1.00  0.00     0.142 A 
HETATM   17  C   UNL     1      42.990 -10.284  13.061  1.00  0.00     0.027 A 
HETATM   18  C   UNL     1      43.973 -10.147  12.050  1.00  0.00     0.035 A 
ENDBRANCH  12  14
ENDBRANCH   8  11
ENDBRANCH   3   7
BRANCH   5  19
HETATM   19  C   UNL     1      43.876 -18.116   5.834  1.00  0.00     0.010 A 
HETATM   20  C   UNL     1      44.368 -19.106   4.947  1.00  0.00     0.152 A 
HETATM   21  N   UNL     1      44.371 -20.331   5.480  1.00  0.00    -0.187 NA
HETATM   22  N   UNL     1      43.880 -20.136   6.711  1.00  0.00    -0.289 N 
HETATM   23  H   UNL     1      43.783 -20.940   7.324  1.00  0.00     0.188 HD
HETATM   24  C   UNL     1      43.571 -18.832   6.973  1.00  0.00     0.123 A 
ENDBRANCH   5  19
TORSDOF 4
ENDMDL
MODEL 5
REMARK VINA RESULT:      -8.0      1.799      2.760
REMARK  4 active torsions:
REMARK  status: ('A' for Active; 'I' for Inactive)
REMARK    1  A    between atoms: C_3  and  N_4 
REMARK       I    between atoms: N_4  and  C_5 
REMARK    2  A    between atoms: C_5  and  C_6 
REMARK    3  A    between atoms: C_7  and  C_8 
REMARK    4  A    between atoms: C_16  and  C_17 
ROOT
HETATM    1  C   UNL     1      41.445 -15.861   4.038  1.00  0.00     0.003 A 
HETATM    2  C   UNL     1      41.811 -15.042   5.107  1.00  0.00     0.029 A 
HETATM    3  C   UNL     1      42.880 -15.397   5.928  1.00  0.00     0.035 A 
HETATM    4  C   UNL     1      43.572 -16.591   5.667  1.00  0.00     0.042 A 
HETATM    5  C   UNL     1      43.214 -17.429   4.596  1.00  0.00    -0.021 A 
HETATM    6  C   UNL     1      42.141 -17.044   3.782  1.00  0.00     0.012 A 
ENDROOT
BRANCH   3   7
HETATM    7  N   UNL     1      43.337 -14.611   7.006  1.00  0.00    -0.327 N 
HETATM    8  C   UNL     1      44.491 -13.857   7.068  1.00  0.00     0.227 C 
HETATM    9  O   UNL     1      45.300 -13.667   6.171  1.00  0.00    -0.273 OA
HETATM   10  H   UNL     1      42.758 -14.618   7.835  1.00  0.00     0.169 HD
BRANCH   8  11
HETATM   11  C   UNL     1      44.726 -13.253   8.415  1.00  0.00     0.089 A 
HETATM   12  C   UNL     1      44.475 -11.769   8.636  1.00  0.00     0.057 A 
HETATM   13  C   UNL     1      45.883 -12.322   8.611  1.00  0.00     0.027 A 
BRANCH  12  14
HETATM   14  C   UNL     1      43.915 -11.343   9.979  1.00  0.00     0.057 A 
HETATM   15  O   UNL     1      42.592 -11.372  10.309  1.00  0.00    -0.327 OA
HETATM   16  C   UNL     1      42.492 -10.933  11.590  1.00  0.00     0.142 A 
HETATM   17  C   UNL     1      43.734 -10.617  12.088  1.00  0.00     0.027 A 
HETATM   18  C   UNL     1      44.656 -10.881  11.045  1.00  0.00     0.035 A 
ENDBRANCH  12  14
ENDBRANCH   8  11
ENDBRANCH   3   7
BRANCH   5  19
HETATM   19  C   UNL     1      43.956 -18.660   4.347  1.00  0.00     0.010 A 
HETATM   20  C   UNL     1      44.112 -19.425   3.163  1.00  0.00     0.152 A 
HETATM   21  N   UNL     1      44.886 -20.500   3.334  1.00  0.00    -0.187 NA
HETATM   22  N   UNL     1      45.230 -20.435   4.628  1.00  0.00    -0.289 N 
HETATM   23  H   UNL     1      45.830 -21.162   5.005  1.00  0.00     0.188 HD
HETATM   24  C   UNL     1      44.703 -19.355   5.276  1.00  0.00     0.123 A 
ENDBRANCH   5  19
TORSDOF 4
ENDMDL
MODEL 6
REMARK VINA RESULT:      -7.9      3.496      6.199
REMARK  4 active torsions:
REMARK  status: ('A' for Active; 'I' for Inactive)
REMARK    1  A    between atoms: C_3  and  N_4 
REMARK       I    between atoms: N_4  and  C_5 
REMARK    2  A    between atoms: C_5  and  C_6 
REMARK    3  A    between atoms: C_7  and  C_8 
REMARK    4  A    between atoms: C_16  and  C_17 
ROOT
HETATM    1  C   UNL     1      44.604 -17.929   6.454  1.00  0.00     0.003 A 
HETATM    2  C   UNL     1      44.006 -16.933   5.680  1.00  0.00     0.029 A 
HETATM    3  C   UNL     1      43.566 -17.217   4.388  1.00  0.00     0.035 A 
HETATM    4  C   UNL     1      43.743 -18.515   3.879  1.00  0.00     0.042 A 
HETATM    5  C   UNL     1      44.347 -19.528   4.644  1.00  0.00    -0.021 A 
HETATM    6  C   UNL     1      44.771 -19.217   5.942  1.00  0.00     0.012 A 
ENDROOT
BRANCH   3   7
HETATM    7  N   UNL     1      42.921 -16.281   3.554  1.00  0.00    -0.327 N 
HETATM    8  C   UNL     1      41.659 -15.745   3.708  1.00  0.00     0.227 C 
HETATM    9  O   UNL     1      40.888 -15.923   4.640  1.00  0.00    -0.273 OA
HETATM   10  H   UNL     1      43.441 -15.985   2.739  1.00  0.00     0.169 HD
BRANCH   8  11
HETATM   11  C   UNL     1      41.246 -14.878   2.563  1.00  0.00     0.089 A 
HETATM   12  C   UNL     1      40.428 -15.466   1.422  1.00  0.00     0.057 A 
HETATM   13  C   UNL     1      41.879 -15.083   1.220  1.00  0.00     0.027 A 
BRANCH  12  14
HETATM   14  C   UNL     1      39.376 -14.581   0.783  1.00  0.00     0.057 A 
HETATM   15  O   UNL     1      39.568 -13.849  -0.352  1.00  0.00    -0.327 OA
HETATM   16  C   UNL     1      38.401 -13.205  -0.611  1.00  0.00     0.142 A 
HETATM   17  C   UNL     1      37.461 -13.510   0.344  1.00  0.00     0.027 A 
HETATM   18  C   UNL     1      38.092 -14.399   1.249  1.00  0.00     0.035 A 
ENDBRANCH  12  14
ENDBRANCH   8  11
ENDBRANCH   3   7
BRANCH   5  19
HETATM   19  C   UNL     1      44.512 -20.867   4.089  1.00  0.00     0.010 A 
HETATM   20  C   UNL     1      44.412 -21.337   2.755  1.00  0.00     0.152 A 
HETATM   21  N   UNL     1      44.642 -22.648   2.644  1.00  0.00    -0.187 NA
HETATM   22  N   UNL     1      44.889 -23.029   3.905  1.00  0.00    -0.289 N 
HETATM   23  H   UNL     1      45.095 -24.008   4.081  1.00  0.00     0.188 HD
HETATM   24  C   UNL     1      44.825 -22.004   4.805  1.00  0.00     0.123 A 
ENDBRANCH   5  19
TORSDOF 4
ENDMDL
MODEL 7
REMARK VINA RESULT:      -7.9      4.060      7.146
REMARK  4 active torsions:
REMARK  status: ('A' for Active; 'I' for Inactive)
REMARK    1  A    between atoms: C_3  and  N_4 
REMARK       I    between atoms: N_4  and  C_5 
REMARK    2  A    between atoms: C_5  and  C_6 
REMARK    3  A    between atoms: C_7  and  C_8 
REMARK    4  A    between atoms: C_16  and  C_17 
ROOT
HETATM    1  C   UNL     1      44.244 -17.516   5.633  1.00  0.00     0.003 A 
HETATM    2  C   UNL     1      43.412 -16.886   4.707  1.00  0.00     0.029 A 
HETATM    3  C   UNL     1      42.912 -17.595   3.616  1.00  0.00     0.035 A 
HETATM    4  C   UNL     1      43.267 -18.946   3.462  1.00  0.00     0.042 A 
HETATM    5  C   UNL     1      44.106 -19.595   4.384  1.00  0.00    -0.021 A 
HETATM    6  C   UNL     1      44.587 -18.861   5.475  1.00  0.00     0.012 A 
ENDROOT
BRANCH   3   7
HETATM    7  N   UNL     1      42.039 -17.045   2.654  1.00  0.00    -0.327 N 
HETATM    8  C   UNL     1      42.237 -16.955   1.292  1.00  0.00     0.227 C 
HETATM    9  O   UNL     1      43.175 -17.403   0.648  1.00  0.00    -0.273 OA
HETATM   10  H   UNL     1      41.177 -16.657   3.012  1.00  0.00     0.169 HD
BRANCH   8  11
HETATM   11  C   UNL     1      41.158 -16.195   0.592  1.00  0.00     0.089 A 
HETATM   12  C   UNL     1      41.521 -15.121  -0.424  1.00  0.00     0.057 A 
HETATM   13  C   UNL     1      40.942 -14.750   0.925  1.00  0.00     0.027 A 
BRANCH  12  14
HETATM   14  C   UNL     1      40.623 -14.968  -1.636  1.00  0.00     0.057 A 
HETATM   15  O   UNL     1      39.502 -14.193  -1.674  1.00  0.00    -0.327 OA
HETATM   16  C   UNL     1      38.984 -14.304  -2.924  1.00  0.00     0.142 A 
HETATM   17  C   UNL     1      39.755 -15.146  -3.690  1.00  0.00     0.027 A 
HETATM   18  C   UNL     1      40.816 -15.578  -2.857  1.00  0.00     0.035 A 
ENDBRANCH  12  14
ENDBRANCH   8  11
ENDBRANCH   3   7
BRANCH   5  19
HETATM   19  C   UNL     1      44.452 -21.000   4.200  1.00  0.00     0.010 A 
HETATM   20  C   UNL     1      44.461 -21.808   3.035  1.00  0.00     0.152 A 
HETATM   21  N   UNL     1      44.851 -23.064   3.273  1.00  0.00    -0.187 NA
HETATM   22  N   UNL     1      45.092 -23.071   4.591  1.00  0.00    -0.289 N 
HETATM   23  H   UNL     1      45.408 -23.936   5.018  1.00  0.00     0.188 HD
HETATM   24  C   UNL     1      44.872 -21.864   5.190  1.00  0.00     0.123 A 
ENDBRANCH   5  19
TORSDOF 4
ENDMDL
MODEL 8
REMARK VINA RESULT:      -7.8      5.374      8.306
REMARK  4 active torsions:
REMARK  status: ('A' for Active; 'I' for Inactive)
REMARK    1  A    between atoms: C_3  and  N_4 
REMARK       I    between atoms: N_4  and  C_5 
REMARK    2  A    between atoms: C_5  and  C_6 
REMARK    3  A    between atoms: C_7  and  C_8 
REMARK    4  A    between atoms: C_16  and  C_17 
ROOT
HETATM    1  C   UNL     1      40.816 -12.601  -0.373  1.00  0.00     0.003 A 
HETATM    2  C   UNL     1      41.574 -13.627   0.194  1.00  0.00     0.029 A 
HETATM    3  C   UNL     1      41.456 -14.932  -0.282  1.00  0.00     0.035 A 
HETATM    4  C   UNL     1      40.559 -15.195  -1.331  1.00  0.00     0.042 A 
HETATM    5  C   UNL     1      39.786 -14.174  -1.911  1.00  0.00    -0.021 A 
HETATM    6  C   UNL     1      39.930 -12.871  -1.418  1.00  0.00     0.012 A 
ENDROOT
BRANCH   3   7
HETATM    7  N   UNL     1      42.209 -16.019   0.209  1.00  0.00    -0.327 N 
HETATM    8  C   UNL     1      41.783 -17.025   1.050  1.00  0.00     0.227 C 
HETATM    9  O   UNL     1      40.649 -17.210   1.471  1.00  0.00    -0.273 OA
HETATM   10  H   UNL     1      43.178 -16.049  -0.077  1.00  0.00     0.169 HD
BRANCH   8  11
HETATM   11  C   UNL     1      42.884 -17.944   1.471  1.00  0.00     0.089 A 
HETATM   12  C   UNL     1      43.620 -17.696   2.780  1.00  0.00     0.057 A 
HETATM   13  C   UNL     1      44.299 -17.451   1.450  1.00  0.00     0.027 A 
BRANCH  12  14
HETATM   14  C   UNL     1      44.062 -18.909   3.577  1.00  0.00     0.057 A 
HETATM   15  O   UNL     1      44.510 -20.073   3.028  1.00  0.00    -0.327 OA
HETATM   16  C   UNL     1      44.819 -20.904   4.056  1.00  0.00     0.142 A 
HETATM   17  C   UNL     1      44.571 -20.292   5.261  1.00  0.00     0.027 A 
HETATM   18  C   UNL     1      44.078 -19.000   4.952  1.00  0.00     0.035 A 
ENDBRANCH  12  14
ENDBRANCH   8  11
ENDBRANCH   3   7
BRANCH   5  19
HETATM   19  C   UNL     1      38.867 -14.478  -3.003  1.00  0.00     0.010 A 
HETATM   20  C   UNL     1      38.766 -15.619  -3.839  1.00  0.00     0.152 A 
HETATM   21  N   UNL     1      37.776 -15.526  -4.731  1.00  0.00    -0.187 NA
HETATM   22  N   UNL     1      37.237 -14.326  -4.475  1.00  0.00    -0.289 N 
HETATM   23  H   UNL     1      36.448 -14.022  -5.038  1.00  0.00     0.188 HD
HETATM   24  C   UNL     1      37.850 -13.662  -3.452  1.00  0.00     0.123 A 
ENDBRANCH   5  19
TORSDOF 4
ENDMDL
MODEL 9
REMARK VINA RESULT:      -7.7      4.034      6.187
REMARK  4 active torsions:
REMARK  status: ('A' for Active; 'I' for Inactive)
REMARK    1  A    between atoms: C_3  and  N_4 
REMARK       I    between atoms: N_4  and  C_5 
REMARK    2  A    between atoms: C_5  and  C_6 
REMARK    3  A    between atoms: C_7  and  C_8 
REMARK    4  A    between atoms: C_16  and  C_17 
ROOT
HETATM    1  C   UNL     1      43.623 -17.288   5.086  1.00  0.00     0.003 A 
HETATM    2  C   UNL     1      43.288 -16.353   4.105  1.00  0.00     0.029 A 
HETATM    3  C   UNL     1      43.212 -16.737   2.766  1.00  0.00     0.035 A 
HETATM    4  C   UNL     1      43.486 -18.072   2.425  1.00  0.00     0.042 A 
HETATM    5  C   UNL     1      43.827 -19.025   3.400  1.00  0.00    -0.021 A 
HETATM    6  C   UNL     1      43.888 -18.614   4.738  1.00  0.00     0.012 A 
ENDROOT
BRANCH   3   7
HETATM    7  N   UNL     1      42.848 -15.866   1.719  1.00  0.00    -0.327 N 
HETATM    8  C   UNL     1      41.625 -15.777   1.086  1.00  0.00     0.227 C 
HETATM    9  O   UNL     1      40.601 -16.384   1.364  1.00  0.00    -0.273 OA
HETATM   10  H   UNL     1      43.576 -15.251   1.383  1.00  0.00     0.169 HD
BRANCH   8  11
HETATM   11  C   UNL     1      41.631 -14.831  -0.071  1.00  0.00     0.089 A 
HETATM   12  C   UNL     1      41.226 -13.378   0.134  1.00  0.00     0.057 A 
HETATM   13  C   UNL     1      40.328 -14.335  -0.621  1.00  0.00     0.027 A 
BRANCH  12  14
HETATM   14  C   UNL     1      41.960 -12.324  -0.673  1.00  0.00     0.057 A 
HETATM   15  O   UNL     1      42.944 -11.519  -0.179  1.00  0.00    -0.327 OA
HETATM   16  C   UNL     1      43.358 -10.727  -1.201  1.00  0.00     0.142 A 
HETATM   17  C   UNL     1      42.650 -11.007  -2.345  1.00  0.00     0.027 A 
HETATM   18  C   UNL     1      41.743 -12.041  -2.004  1.00  0.00     0.035 A 
ENDBRANCH  12  14
ENDBRANCH   8  11
ENDBRANCH   3   7
BRANCH   5  19
HETATM   19  C   UNL     1      44.100 -20.405   3.015  1.00  0.00     0.010 A 
HETATM   20  C   UNL     1      43.884 -21.086   1.790  1.00  0.00     0.152 A 
HETATM   21  N   UNL     1      44.278 -22.362   1.824  1.00  0.00    -0.187 NA
HETATM   22  N   UNL     1      44.748 -22.510   3.071  1.00  0.00    -0.289 N 
HETATM   23  H   UNL     1      45.112 -23.417   3.344  1.00  0.00     0.188 HD
HETATM   24  C   UNL     1      44.666 -21.372   3.821  1.00  0.00     0.123 A 
ENDBRANCH   5  19
TORSDOF 4
ENDMDL
MODEL 10
REMARK VINA RESULT:      -7.7      2.425      2.959
REMARK  4 active torsions:
REMARK  status: ('A' for Active; 'I' for Inactive)
REMARK    1  A    between atoms: C_3  and  N_4 
REMARK       I    between atoms: N_4  and  C_5 
REMARK    2  A    between atoms: C_5  and  C_6 
REMARK    3  A    between atoms: C_7  and  C_8 
REMARK    4  A    between atoms: C_16  and  C_17 
ROOT
HETATM    1  C   UNL     1      43.736 -17.943   1.243  1.00  0.00     0.003 A 
HETATM    2  C   UNL     1      43.421 -16.920   2.139  1.00  0.00     0.029 A 
HETATM    3  C   UNL     1      43.444 -17.159   3.512  1.00  0.00     0.035 A 
HETATM    4  C   UNL     1      43.780 -18.442   3.974  1.00  0.00     0.042 A 
HETATM    5  C   UNL     1      44.096 -19.484   3.085  1.00  0.00    -0.021 A 
HETATM    6  C   UNL     1      44.073 -19.215   1.711  1.00  0.00     0.012 A 
ENDROOT
BRANCH   3   7
HETATM    7  N   UNL     1      43.174 -16.174   4.485  1.00  0.00    -0.327 N 
HETATM    8  C   UNL     1      41.948 -15.644   4.828  1.00  0.00     0.227 C 
HETATM    9  O   UNL     1      40.851 -15.982   4.407  1.00  0.00    -0.273 OA
HETATM   10  H   UNL     1      43.979 -15.803   4.972  1.00  0.00     0.169 HD
BRANCH   8  11
HETATM   11  C   UNL     1      42.048 -14.524   5.813  1.00  0.00     0.089 A 
HETATM   12  C   UNL     1      41.865 -13.086   5.348  1.00  0.00     0.057 A 
HETATM   13  C   UNL     1      43.228 -13.602   5.759  1.00  0.00     0.027 A 
BRANCH  12  14
HETATM   14  C   UNL     1      41.167 -12.126   6.292  1.00  0.00     0.057 A 
HETATM   15  O   UNL     1      39.839 -12.171   6.596  1.00  0.00    -0.327 OA
HETATM   16  C   UNL     1      39.599 -11.166   7.477  1.00  0.00     0.142 A 
HETATM   17  C   UNL     1      40.756 -10.472   7.741  1.00  0.00     0.027 A 
HETATM   18  C   UNL     1      41.772 -11.091   6.972  1.00  0.00     0.035 A 
ENDBRANCH  12  14
ENDBRANCH   8  11
ENDBRANCH   3   7
BRANCH   5  19
HETATM   19  C   UNL     1      44.446 -20.805   3.596  1.00  0.00     0.010 A 
HETATM   20  C   UNL     1      44.904 -21.213   4.875  1.00  0.00     0.152 A 
HETATM   21  N   UNL     1      45.111 -22.530   4.960  1.00  0.00    -0.187 NA
HETATM   22  N   UNL     1      44.791 -22.976   3.737  1.00  0.00    -0.289 N 
HETATM   23  H   UNL     1      44.871 -23.971   3.550  1.00  0.00     0.188 HD
HETATM   24  C   UNL     1      44.387 -21.987   2.887  1.00  0.00     0.123 A 
ENDBRANCH   5  19
TORSDOF 4
ENDMDL
