MODEL 1
REMARK VINA RESULT:      -9.6      0.000      0.000
REMARK  5 active torsions:
REMARK  status: ('A' for Active; 'I' for Inactive)
REMARK    1  A    between atoms: C_4  and  C_5 
REMARK    2  A    between atoms: N_7  and  C_8 
REMARK    3  A    between atoms: C_15  and  C_16 
REMARK       I    between atoms: C_16  and  N_17 
REMARK    4  A    between atoms: N_17  and  N_18 
REMARK       I    between atoms: N_18  and  C_19 
REMARK    5  A    between atoms: C_19  and  C_20 
ROOT
HETATM    1  C   UNL     1      42.770 -16.332   3.248  1.00  0.00     0.105 A 
HETATM    2  N   UNL     1      43.037 -17.501   2.642  1.00  0.00    -0.166 NA
HETATM    3  N   UNL     1      43.491 -18.327   3.605  1.00  0.00    -0.244 N 
HETATM    4  C   UNL     1      43.506 -17.701   4.827  1.00  0.00     0.138 A 
HETATM    5  C   UNL     1      43.027 -16.412   4.653  1.00  0.00     0.082 A 
ENDROOT
BRANCH   5   6
HETATM    6  C   UNL     1      42.839 -15.408   5.694  1.00  0.00     0.274 C 
HETATM    7  N   UNL     1      43.910 -15.260   6.556  1.00  0.00    -0.263 N 
HETATM    8  H   UNL     1      44.731 -15.857   6.546  1.00  0.00     0.190 HD
HETATM    9  O   UNL     1      41.821 -14.732   5.815  1.00  0.00    -0.266 OA
BRANCH   7  10
HETATM   10  N   UNL     1      43.848 -14.327   7.595  1.00  0.00    -0.263 N 
HETATM   11  C   UNL     1      44.800 -13.335   7.631  1.00  0.00     0.275 C 
HETATM   12  O   UNL     1      45.719 -13.288   6.810  1.00  0.00    -0.266 OA
HETATM   13  H   UNL     1      43.060 -14.381   8.250  1.00  0.00     0.190 HD
BRANCH  11  14
HETATM   14  C   UNL     1      44.650 -12.323   8.712  1.00  0.00     0.101 A 
HETATM   15  C   UNL     1      43.506 -11.366   8.793  1.00  0.00     0.261 A 
HETATM   16  O   UNL     1      42.601 -11.358   7.964  1.00  0.00    -0.267 OA
HETATM   17  N   UNL     1      43.520 -10.483   9.851  1.00  0.00    -0.333 N 
HETATM   18  C   UNL     1      44.503 -10.444  10.805  1.00  0.00     0.091 A 
HETATM   19  H   UNL     1      42.740  -9.835   9.896  1.00  0.00     0.168 HD
HETATM   20  C   UNL     1      45.529 -11.298  10.743  1.00  0.00     0.018 A 
HETATM   21  C   UNL     1      45.600 -12.259   9.666  1.00  0.00     0.024 A 
ENDBRANCH  11  14
ENDBRANCH   7  10
ENDBRANCH   5   6
BRANCH   1  22
HETATM   22  C   UNL     1      42.251 -15.225   2.441  1.00  0.00    -0.005 A 
HETATM   23  C   UNL     1      41.259 -15.474   1.481  1.00  0.00     0.014 A 
HETATM   24  C   UNL     1      40.764 -14.441   0.681  1.00  0.00     0.001 A 
HETATM   25  C   UNL     1      41.263 -13.149   0.828  1.00  0.00     0.000 A 
HETATM   26  C   UNL     1      42.260 -12.892   1.768  1.00  0.00     0.001 A 
HETATM   27  C   UNL     1      42.759 -13.927   2.564  1.00  0.00     0.014 A 
ENDBRANCH   1  22
BRANCH   3  28
HETATM   28  C   UNL     1      43.868 -19.667   3.301  1.00  0.00     0.058 A 
HETATM   29  C   UNL     1      43.560 -20.198   2.037  1.00  0.00     0.031 A 
HETATM   30  C   UNL     1      43.912 -21.511   1.720  1.00  0.00     0.002 A 
HETATM   31  C   UNL     1      44.570 -22.304   2.657  1.00  0.00     0.000 A 
HETATM   32  C   UNL     1      44.881 -21.784   3.913  1.00  0.00     0.002 A 
HETATM   33  C   UNL     1      44.534 -20.469   4.238  1.00  0.00     0.031 A 
ENDBRANCH   3  28
TORSDOF 5
ENDMDL
MODEL 2
REMARK VINA RESULT:      -9.0      4.515      8.582
REMARK  5 active torsions:
REMARK  status: ('A' for Active; 'I' for Inactive)
REMARK    1  A    between atoms: C_4  and  C_5 
REMARK    2  A    between atoms: N_7  and  C_8 
REMARK    3  A    between atoms: C_15  and  C_16 
REMARK       I    between atoms: C_16  and  N_17 
REMARK    4  A    between atoms: N_17  and  N_18 
REMARK       I    between atoms: N_18  and  C_19 
REMARK    5  A    between atoms: C_19  and  C_20 
ROOT
HETATM    1  C   UNL     1      41.339 -15.816   3.454  1.00  0.00     0.105 A 
HETATM    2  N   UNL     1      42.250 -16.735   3.818  1.00  0.00    -0.166 NA
HETATM    3  N   UNL     1      42.193 -17.706   2.886  1.00  0.00    -0.244 N 
HETATM    4  C   UNL     1      41.262 -17.413   1.920  1.00  0.00     0.138 A 
HETATM    5  C   UNL     1      40.696 -16.187   2.232  1.00  0.00     0.082 A 
ENDROOT
BRANCH   5   6
HETATM    6  C   UNL     1      39.685 -15.475   1.457  1.00  0.00     0.274 C 
HETATM    7  N   UNL     1      40.068 -15.146   0.170  1.00  0.00    -0.263 N 
HETATM    8  H   UNL     1      41.004 -15.291  -0.196  1.00  0.00     0.190 HD
HETATM    9  O   UNL     1      38.574 -15.181   1.890  1.00  0.00    -0.266 OA
BRANCH   7  10
HETATM   10  N   UNL     1      39.184 -14.463  -0.671  1.00  0.00    -0.263 N 
HETATM   11  C   UNL     1      39.441 -14.468  -2.021  1.00  0.00     0.275 C 
HETATM   12  O   UNL     1      40.446 -15.008  -2.488  1.00  0.00    -0.266 OA
HETATM   13  H   UNL     1      38.346 -14.042  -0.253  1.00  0.00     0.190 HD
BRANCH  11  14
HETATM   14  C   UNL     1      38.433 -13.791  -2.881  1.00  0.00     0.101 A 
HETATM   15  C   UNL     1      37.623 -14.499  -3.917  1.00  0.00     0.261 A 
HETATM   16  O   UNL     1      37.735 -15.703  -4.124  1.00  0.00    -0.267 OA
HETATM   17  N   UNL     1      36.739 -13.725  -4.639  1.00  0.00    -0.333 N 
HETATM   18  C   UNL     1      36.572 -12.378  -4.454  1.00  0.00     0.091 A 
HETATM   19  H   UNL     1      36.195 -14.215  -5.342  1.00  0.00     0.168 HD
HETATM   20  C   UNL     1      37.289 -11.735  -3.528  1.00  0.00     0.018 A 
HETATM   21  C   UNL     1      38.244 -12.465  -2.724  1.00  0.00     0.024 A 
ENDBRANCH  11  14
ENDBRANCH   7  10
ENDBRANCH   5   6
BRANCH   1  22
HETATM   22  C   UNL     1      41.173 -14.624   4.290  1.00  0.00    -0.005 A 
HETATM   23  C   UNL     1      40.088 -14.545   5.176  1.00  0.00     0.014 A 
HETATM   24  C   UNL     1      39.893 -13.410   5.966  1.00  0.00     0.001 A 
HETATM   25  C   UNL     1      40.778 -12.338   5.873  1.00  0.00     0.000 A 
HETATM   26  C   UNL     1      41.851 -12.398   4.986  1.00  0.00     0.001 A 
HETATM   27  C   UNL     1      42.043 -13.532   4.191  1.00  0.00     0.014 A 
ENDBRANCH   1  22
BRANCH   3  28
HETATM   28  C   UNL     1      43.042 -18.847   2.967  1.00  0.00     0.058 A 
HETATM   29  C   UNL     1      43.859 -19.018   4.097  1.00  0.00     0.031 A 
HETATM   30  C   UNL     1      44.706 -20.123   4.194  1.00  0.00     0.002 A 
HETATM   31  C   UNL     1      44.746 -21.065   3.169  1.00  0.00     0.000 A 
HETATM   32  C   UNL     1      43.938 -20.905   2.044  1.00  0.00     0.002 A 
HETATM   33  C   UNL     1      43.086 -19.801   1.940  1.00  0.00     0.031 A 
ENDBRANCH   3  28
TORSDOF 5
ENDMDL
MODEL 3
REMARK VINA RESULT:      -9.0      4.169      7.713
REMARK  5 active torsions:
REMARK  status: ('A' for Active; 'I' for Inactive)
REMARK    1  A    between atoms: C_4  and  C_5 
REMARK    2  A    between atoms: N_7  and  C_8 
REMARK    3  A    between atoms: C_15  and  C_16 
REMARK       I    between atoms: C_16  and  N_17 
REMARK    4  A    between atoms: N_17  and  N_18 
REMARK       I    between atoms: N_18  and  C_19 
REMARK    5  A    between atoms: C_19  and  C_20 
ROOT
HETATM    1  C   UNL     1      42.089 -16.224   2.974  1.00  0.00     0.105 A 
HETATM    2  N   UNL     1      42.708 -17.279   3.531  1.00  0.00    -0.166 NA
HETATM    3  N   UNL     1      42.857 -18.188   2.547  1.00  0.00    -0.244 N 
HETATM    4  C   UNL     1      42.349 -17.721   1.360  1.00  0.00     0.138 A 
HETATM    5  C   UNL     1      41.859 -16.443   1.579  1.00  0.00     0.082 A 
ENDROOT
BRANCH   5   6
HETATM    6  C   UNL     1      41.262 -15.559   0.583  1.00  0.00     0.274 C 
HETATM    7  N   UNL     1      42.046 -15.333  -0.533  1.00  0.00    -0.263 N 
HETATM    8  H   UNL     1      43.001 -15.663  -0.630  1.00  0.00     0.190 HD
HETATM    9  O   UNL     1      40.152 -15.047   0.702  1.00  0.00    -0.266 OA
BRANCH   7  10
HETATM   10  N   UNL     1      41.581 -14.503  -1.558  1.00  0.00    -0.263 N 
HETATM   11  C   UNL     1      42.017 -13.200  -1.585  1.00  0.00     0.275 C 
HETATM   12  O   UNL     1      42.756 -12.745  -0.708  1.00  0.00    -0.266 OA
HETATM   13  H   UNL     1      40.984 -14.918  -2.283  1.00  0.00     0.190 HD
BRANCH  11  14
HETATM   14  C   UNL     1      41.553 -12.378  -2.735  1.00  0.00     0.101 A 
HETATM   15  C   UNL     1      40.175 -12.459  -3.305  1.00  0.00     0.261 A 
HETATM   16  O   UNL     1      39.323 -13.216  -2.849  1.00  0.00    -0.267 OA
HETATM   17  N   UNL     1      39.906 -11.638  -4.379  1.00  0.00    -0.333 N 
HETATM   18  C   UNL     1      40.816 -10.776  -4.931  1.00  0.00     0.091 A 
HETATM   19  H   UNL     1      38.969 -11.703  -4.760  1.00  0.00     0.168 HD
HETATM   20  C   UNL     1      42.051 -10.693  -4.427  1.00  0.00     0.018 A 
HETATM   21  C   UNL     1      42.424 -11.519  -3.301  1.00  0.00     0.024 A 
ENDBRANCH  11  14
ENDBRANCH   7  10
ENDBRANCH   5   6
BRANCH   1  22
HETATM   22  C   UNL     1      41.792 -15.062   3.813  1.00  0.00    -0.005 A 
HETATM   23  C   UNL     1      40.659 -15.077   4.641  1.00  0.00     0.014 A 
HETATM   24  C   UNL     1      40.338 -13.972   5.433  1.00  0.00     0.001 A 
HETATM   25  C   UNL     1      41.145 -12.837   5.400  1.00  0.00     0.000 A 
HETATM   26  C   UNL     1      42.264 -12.803   4.571  1.00  0.00     0.001 A 
HETATM   27  C   UNL     1      42.582 -13.907   3.774  1.00  0.00     0.014 A 
ENDBRANCH   1  22
BRANCH   3  28
HETATM   28  C   UNL     1      43.487 -19.441   2.799  1.00  0.00     0.058 A 
HETATM   29  C   UNL     1      43.371 -20.472   1.853  1.00  0.00     0.031 A 
HETATM   30  C   UNL     1      43.972 -21.711   2.082  1.00  0.00     0.002 A 
HETATM   31  C   UNL     1      44.692 -21.931   3.253  1.00  0.00     0.000 A 
HETATM   32  C   UNL     1      44.815 -20.913   4.198  1.00  0.00     0.002 A 
HETATM   33  C   UNL     1      44.217 -19.669   3.975  1.00  0.00     0.031 A 
ENDBRANCH   3  28
TORSDOF 5
ENDMDL
MODEL 4
REMARK VINA RESULT:      -8.9      2.955      3.309
REMARK  5 active torsions:
REMARK  status: ('A' for Active; 'I' for Inactive)
REMARK    1  A    between atoms: C_4  and  C_5 
REMARK    2  A    between atoms: N_7  and  C_8 
REMARK    3  A    between atoms: C_15  and  C_16 
REMARK       I    between atoms: C_16  and  N_17 
REMARK    4  A    between atoms: N_17  and  N_18 
REMARK       I    between atoms: N_18  and  C_19 
REMARK    5  A    between atoms: C_19  and  C_20 
ROOT
HETATM    1  C   UNL     1      41.116 -16.162   2.643  1.00  0.00     0.105 A 
HETATM    2  N   UNL     1      41.710 -17.273   2.174  1.00  0.00    -0.166 NA
HETATM    3  N   UNL     1      42.385 -17.803   3.212  1.00  0.00    -0.244 N 
HETATM    4  C   UNL     1      42.220 -17.048   4.348  1.00  0.00     0.138 A 
HETATM    5  C   UNL     1      41.388 -15.984   4.035  1.00  0.00     0.082 A 
ENDROOT
BRANCH   5   6
HETATM    6  C   UNL     1      40.919 -14.951   4.953  1.00  0.00     0.274 C 
HETATM    7  N   UNL     1      41.876 -14.024   5.319  1.00  0.00    -0.263 N 
HETATM    8  H   UNL     1      42.856 -14.091   5.062  1.00  0.00     0.190 HD
HETATM    9  O   UNL     1      39.768 -14.887   5.378  1.00  0.00    -0.266 OA
BRANCH   7  10
HETATM   10  N   UNL     1      41.545 -12.984   6.193  1.00  0.00    -0.263 N 
HETATM   11  C   UNL     1      41.310 -11.739   5.659  1.00  0.00     0.275 C 
HETATM   12  O   UNL     1      41.434 -11.518   4.452  1.00  0.00    -0.266 OA
HETATM   13  H   UNL     1      41.430 -13.207   7.189  1.00  0.00     0.190 HD
BRANCH  11  14
HETATM   14  C   UNL     1      40.890 -10.684   6.620  1.00  0.00     0.101 A 
HETATM   15  C   UNL     1      39.750 -10.841   7.573  1.00  0.00     0.261 A 
HETATM   16  O   UNL     1      39.081 -11.869   7.628  1.00  0.00    -0.267 OA
HETATM   17  N   UNL     1      39.481  -9.765   8.391  1.00  0.00    -0.333 N 
HETATM   18  C   UNL     1      40.190  -8.593   8.373  1.00  0.00     0.091 A 
HETATM   19  H   UNL     1      38.704  -9.881   9.032  1.00  0.00     0.168 HD
HETATM   20  C   UNL     1      41.214  -8.442   7.527  1.00  0.00     0.018 A 
HETATM   21  C   UNL     1      41.568  -9.519   6.629  1.00  0.00     0.024 A 
ENDBRANCH  11  14
ENDBRANCH   7  10
ENDBRANCH   5   6
BRANCH   1  22
HETATM   22  C   UNL     1      40.298 -15.364   1.727  1.00  0.00    -0.005 A 
HETATM   23  C   UNL     1      40.899 -14.749   0.618  1.00  0.00     0.014 A 
HETATM   24  C   UNL     1      40.147 -13.962  -0.258  1.00  0.00     0.001 A 
HETATM   25  C   UNL     1      38.786 -13.777  -0.029  1.00  0.00     0.000 A 
HETATM   26  C   UNL     1      38.180 -14.369   1.077  1.00  0.00     0.001 A 
HETATM   27  C   UNL     1      38.934 -15.152   1.957  1.00  0.00     0.014 A 
ENDBRANCH   1  22
BRANCH   3  28
HETATM   28  C   UNL     1      43.134 -19.005   3.060  1.00  0.00     0.058 A 
HETATM   29  C   UNL     1      44.059 -19.370   4.052  1.00  0.00     0.031 A 
HETATM   30  C   UNL     1      44.810 -20.539   3.919  1.00  0.00     0.002 A 
HETATM   31  C   UNL     1      44.647 -21.351   2.800  1.00  0.00     0.000 A 
HETATM   32  C   UNL     1      43.730 -20.998   1.811  1.00  0.00     0.002 A 
HETATM   33  C   UNL     1      42.972 -19.830   1.937  1.00  0.00     0.031 A 
ENDBRANCH   3  28
TORSDOF 5
ENDMDL
MODEL 5
REMARK VINA RESULT:      -8.8      2.800      3.353
REMARK  5 active torsions:
REMARK  status: ('A' for Active; 'I' for Inactive)
REMARK    1  A    between atoms: C_4  and  C_5 
REMARK    2  A    between atoms: N_7  and  C_8 
REMARK    3  A    between atoms: C_15  and  C_16 
REMARK       I    between atoms: C_16  and  N_17 
REMARK    4  A    between atoms: N_17  and  N_18 
REMARK       I    between atoms: N_18  and  C_19 
REMARK    5  A    between atoms: C_19  and  C_20 
ROOT
HETATM    1  C   UNL     1      41.767 -16.231   2.504  1.00  0.00     0.105 A 
HETATM    2  N   UNL     1      42.034 -17.505   2.169  1.00  0.00    -0.166 NA
HETATM    3  N   UNL     1      42.969 -17.932   3.040  1.00  0.00    -0.244 N 
HETATM    4  C   UNL     1      43.297 -16.947   3.939  1.00  0.00     0.138 A 
HETATM    5  C   UNL     1      42.528 -15.831   3.647  1.00  0.00     0.082 A 
ENDROOT
BRANCH   5   6
HETATM    6  C   UNL     1      42.525 -14.565   4.373  1.00  0.00     0.274 C 
HETATM    7  N   UNL     1      41.503 -14.429   5.294  1.00  0.00    -0.263 N 
HETATM    8  H   UNL     1      40.748 -15.099   5.406  1.00  0.00     0.190 HD
HETATM    9  O   UNL     1      43.355 -13.677   4.199  1.00  0.00    -0.266 OA
BRANCH   7  10
HETATM   10  N   UNL     1      41.396 -13.259   6.053  1.00  0.00    -0.263 N 
HETATM   11  C   UNL     1      40.145 -12.719   6.237  1.00  0.00     0.275 C 
HETATM   12  O   UNL     1      39.144 -13.210   5.712  1.00  0.00    -0.266 OA
HETATM   13  H   UNL     1      42.246 -12.888   6.493  1.00  0.00     0.190 HD
BRANCH  11  14
HETATM   14  C   UNL     1      40.074 -11.517   7.112  1.00  0.00     0.101 A 
HETATM   15  C   UNL     1      40.801 -10.244   6.826  1.00  0.00     0.261 A 
HETATM   16  O   UNL     1      41.509 -10.105   5.833  1.00  0.00    -0.267 OA
HETATM   17  N   UNL     1      40.640  -9.227   7.742  1.00  0.00    -0.333 N 
HETATM   18  C   UNL     1      39.865  -9.325   8.868  1.00  0.00     0.091 A 
HETATM   19  H   UNL     1      41.140  -8.368   7.540  1.00  0.00     0.168 HD
HETATM   20  C   UNL     1      39.208 -10.459   9.132  1.00  0.00     0.018 A 
HETATM   21  C   UNL     1      39.320 -11.581   8.227  1.00  0.00     0.024 A 
ENDBRANCH  11  14
ENDBRANCH   7  10
ENDBRANCH   5   6
BRANCH   1  22
HETATM   22  C   UNL     1      40.770 -15.494   1.723  1.00  0.00    -0.005 A 
HETATM   23  C   UNL     1      41.132 -14.939   0.486  1.00  0.00     0.014 A 
HETATM   24  C   UNL     1      40.209 -14.211  -0.268  1.00  0.00     0.001 A 
HETATM   25  C   UNL     1      38.914 -14.025   0.212  1.00  0.00     0.000 A 
HETATM   26  C   UNL     1      38.547 -14.558   1.446  1.00  0.00     0.001 A 
HETATM   27  C   UNL     1      39.473 -15.282   2.203  1.00  0.00     0.014 A 
ENDBRANCH   1  22
BRANCH   3  28
HETATM   28  C   UNL     1      43.482 -19.259   2.968  1.00  0.00     0.058 A 
HETATM   29  C   UNL     1      44.290 -19.742   4.011  1.00  0.00     0.031 A 
HETATM   30  C   UNL     1      44.811 -21.036   3.958  1.00  0.00     0.002 A 
HETATM   31  C   UNL     1      44.533 -21.857   2.868  1.00  0.00     0.000 A 
HETATM   32  C   UNL     1      43.731 -21.387   1.829  1.00  0.00     0.002 A 
HETATM   33  C   UNL     1      43.204 -20.093   1.875  1.00  0.00     0.031 A 
ENDBRANCH   3  28
TORSDOF 5
ENDMDL
MODEL 6
REMARK VINA RESULT:      -8.7      3.922      7.339
REMARK  5 active torsions:
REMARK  status: ('A' for Active; 'I' for Inactive)
REMARK    1  A    between atoms: C_4  and  C_5 
REMARK    2  A    between atoms: N_7  and  C_8 
REMARK    3  A    between atoms: C_15  and  C_16 
REMARK       I    between atoms: C_16  and  N_17 
REMARK    4  A    between atoms: N_17  and  N_18 
REMARK       I    between atoms: N_18  and  C_19 
REMARK    5  A    between atoms: C_19  and  C_20 
ROOT
HETATM    1  C   UNL     1      42.116 -16.374   3.212  1.00  0.00     0.105 A 
HETATM    2  N   UNL     1      42.811 -17.429   3.670  1.00  0.00    -0.166 NA
HETATM    3  N   UNL     1      42.792 -18.346   2.683  1.00  0.00    -0.244 N 
HETATM    4  C   UNL     1      42.101 -17.884   1.590  1.00  0.00     0.138 A 
HETATM    5  C   UNL     1      41.661 -16.600   1.876  1.00  0.00     0.082 A 
ENDROOT
BRANCH   5   6
HETATM    6  C   UNL     1      40.915 -15.720   0.983  1.00  0.00     0.274 C 
HETATM    7  N   UNL     1      39.581 -15.561   1.308  1.00  0.00    -0.263 N 
HETATM    8  H   UNL     1      39.112 -16.080   2.044  1.00  0.00     0.190 HD
HETATM    9  O   UNL     1      41.412 -15.151   0.014  1.00  0.00    -0.266 OA
BRANCH   7  10
HETATM   10  N   UNL     1      38.763 -14.739   0.526  1.00  0.00    -0.263 N 
HETATM   11  C   UNL     1      38.395 -13.517   1.038  1.00  0.00     0.275 C 
HETATM   12  O   UNL     1      38.724 -13.164   2.173  1.00  0.00    -0.266 OA
HETATM   13  H   UNL     1      38.524 -15.054  -0.422  1.00  0.00     0.190 HD
BRANCH  11  14
HETATM   14  C   UNL     1      37.587 -12.649   0.140  1.00  0.00     0.101 A 
HETATM   15  C   UNL     1      37.864 -12.484  -1.318  1.00  0.00     0.261 A 
HETATM   16  O   UNL     1      38.787 -13.068  -1.878  1.00  0.00    -0.267 OA
HETATM   17  N   UNL     1      37.028 -11.633  -2.009  1.00  0.00    -0.333 N 
HETATM   18  C   UNL     1      35.985 -10.953  -1.438  1.00  0.00     0.091 A 
HETATM   19  H   UNL     1      37.226 -11.526  -2.998  1.00  0.00     0.168 HD
HETATM   20  C   UNL     1      35.725 -11.096  -0.135  1.00  0.00     0.018 A 
HETATM   21  C   UNL     1      36.552 -11.966   0.671  1.00  0.00     0.024 A 
ENDBRANCH  11  14
ENDBRANCH   7  10
ENDBRANCH   5   6
BRANCH   1  22
HETATM   22  C   UNL     1      41.965 -15.203   4.080  1.00  0.00    -0.005 A 
HETATM   23  C   UNL     1      43.082 -14.401   4.361  1.00  0.00     0.014 A 
HETATM   24  C   UNL     1      42.972 -13.293   5.204  1.00  0.00     0.001 A 
HETATM   25  C   UNL     1      41.743 -12.980   5.781  1.00  0.00     0.000 A 
HETATM   26  C   UNL     1      40.630 -13.777   5.522  1.00  0.00     0.001 A 
HETATM   27  C   UNL     1      40.742 -14.889   4.682  1.00  0.00     0.014 A 
ENDBRANCH   1  22
BRANCH   3  28
HETATM   28  C   UNL     1      43.448 -19.601   2.839  1.00  0.00     0.058 A 
HETATM   29  C   UNL     1      43.304 -20.581   1.843  1.00  0.00     0.031 A 
HETATM   30  C   UNL     1      43.930 -21.821   1.978  1.00  0.00     0.002 A 
HETATM   31  C   UNL     1      44.701 -22.095   3.105  1.00  0.00     0.000 A 
HETATM   32  C   UNL     1      44.851 -21.128   4.098  1.00  0.00     0.002 A 
HETATM   33  C   UNL     1      44.229 -19.882   3.969  1.00  0.00     0.031 A 
ENDBRANCH   3  28
TORSDOF 5
ENDMDL
MODEL 7
REMARK VINA RESULT:      -8.4      2.340      8.273
REMARK  5 active torsions:
REMARK  status: ('A' for Active; 'I' for Inactive)
REMARK    1  A    between atoms: C_4  and  C_5 
REMARK    2  A    between atoms: N_7  and  C_8 
REMARK    3  A    between atoms: C_15  and  C_16 
REMARK       I    between atoms: C_16  and  N_17 
REMARK    4  A    between atoms: N_17  and  N_18 
REMARK       I    between atoms: N_18  and  C_19 
REMARK    5  A    between atoms: C_19  and  C_20 
ROOT
HETATM    1  C   UNL     1      42.361 -13.240   5.599  1.00  0.00     0.105 A 
HETATM    2  N   UNL     1      42.586 -12.323   6.556  1.00  0.00    -0.166 NA
HETATM    3  N   UNL     1      43.571 -12.822   7.328  1.00  0.00    -0.244 N 
HETATM    4  C   UNL     1      43.989 -14.046   6.868  1.00  0.00     0.138 A 
HETATM    5  C   UNL     1      43.250 -14.351   5.735  1.00  0.00     0.082 A 
ENDROOT
BRANCH   5   6
HETATM    6  C   UNL     1      43.389 -15.542   4.903  1.00  0.00     0.274 C 
HETATM    7  N   UNL     1      43.332 -16.739   5.591  1.00  0.00    -0.263 N 
HETATM    8  H   UNL     1      43.295 -16.809   6.603  1.00  0.00     0.190 HD
HETATM    9  O   UNL     1      43.544 -15.509   3.685  1.00  0.00    -0.266 OA
BRANCH   7  10
HETATM   10  N   UNL     1      43.452 -17.949   4.901  1.00  0.00    -0.263 N 
HETATM   11  C   UNL     1      44.519 -18.763   5.201  1.00  0.00     0.275 C 
HETATM   12  O   UNL     1      45.383 -18.425   6.014  1.00  0.00    -0.266 OA
HETATM   13  H   UNL     1      42.705 -18.210   4.246  1.00  0.00     0.190 HD
BRANCH  11  14
HETATM   14  C   UNL     1      44.563 -20.071   4.494  1.00  0.00     0.101 A 
HETATM   15  C   UNL     1      44.431 -20.215   3.013  1.00  0.00     0.261 A 
HETATM   16  O   UNL     1      44.282 -19.246   2.274  1.00  0.00    -0.267 OA
HETATM   17  N   UNL     1      44.482 -21.499   2.515  1.00  0.00    -0.333 N 
HETATM   18  C   UNL     1      44.644 -22.616   3.290  1.00  0.00     0.091 A 
HETATM   19  H   UNL     1      44.388 -21.586   1.508  1.00  0.00     0.168 HD
HETATM   20  C   UNL     1      44.766 -22.499   4.616  1.00  0.00     0.018 A 
HETATM   21  C   UNL     1      44.723 -21.190   5.229  1.00  0.00     0.024 A 
ENDBRANCH  11  14
ENDBRANCH   7  10
ENDBRANCH   5   6
BRANCH   1  22
HETATM   22  C   UNL     1      41.330 -12.968   4.595  1.00  0.00    -0.005 A 
HETATM   23  C   UNL     1      40.405 -13.970   4.264  1.00  0.00     0.014 A 
HETATM   24  C   UNL     1      39.425 -13.746   3.294  1.00  0.00     0.001 A 
HETATM   25  C   UNL     1      39.366 -12.518   2.638  1.00  0.00     0.000 A 
HETATM   26  C   UNL     1      40.288 -11.520   2.947  1.00  0.00     0.001 A 
HETATM   27  C   UNL     1      41.271 -11.747   3.915  1.00  0.00     0.014 A 
ENDBRANCH   1  22
BRANCH   3  28
HETATM   28  C   UNL     1      44.061 -12.092   8.449  1.00  0.00     0.058 A 
HETATM   29  C   UNL     1      45.386 -12.290   8.872  1.00  0.00     0.031 A 
HETATM   30  C   UNL     1      45.885 -11.593   9.974  1.00  0.00     0.002 A 
HETATM   31  C   UNL     1      45.071 -10.696  10.661  1.00  0.00     0.000 A 
HETATM   32  C   UNL     1      43.755 -10.492  10.247  1.00  0.00     0.002 A 
HETATM   33  C   UNL     1      43.248 -11.185   9.143  1.00  0.00     0.031 A 
ENDBRANCH   3  28
TORSDOF 5
ENDMDL
MODEL 8
REMARK VINA RESULT:      -8.2      1.651      4.814
REMARK  5 active torsions:
REMARK  status: ('A' for Active; 'I' for Inactive)
REMARK    1  A    between atoms: C_4  and  C_5 
REMARK    2  A    between atoms: N_7  and  C_8 
REMARK    3  A    between atoms: C_15  and  C_16 
REMARK       I    between atoms: C_16  and  N_17 
REMARK    4  A    between atoms: N_17  and  N_18 
REMARK       I    between atoms: N_18  and  C_19 
REMARK    5  A    between atoms: C_19  and  C_20 
ROOT
HETATM    1  C   UNL     1      42.368 -16.171   3.249  1.00  0.00     0.105 A 
HETATM    2  N   UNL     1      42.300 -16.282   1.911  1.00  0.00    -0.166 NA
HETATM    3  N   UNL     1      41.806 -15.111   1.463  1.00  0.00    -0.244 N 
HETATM    4  C   UNL     1      41.566 -14.244   2.501  1.00  0.00     0.138 A 
HETATM    5  C   UNL     1      41.935 -14.877   3.678  1.00  0.00     0.082 A 
ENDROOT
BRANCH   5   6
HETATM    6  C   UNL     1      41.883 -14.310   5.022  1.00  0.00     0.274 C 
HETATM    7  N   UNL     1      43.018 -13.618   5.401  1.00  0.00    -0.263 N 
HETATM    8  H   UNL     1      43.868 -13.576   4.848  1.00  0.00     0.190 HD
HETATM    9  O   UNL     1      40.919 -14.422   5.773  1.00  0.00    -0.266 OA
BRANCH   7  10
HETATM   10  N   UNL     1      43.086 -13.027   6.667  1.00  0.00    -0.263 N 
HETATM   11  C   UNL     1      44.300 -13.020   7.313  1.00  0.00     0.275 C 
HETATM   12  O   UNL     1      45.296 -13.561   6.827  1.00  0.00    -0.266 OA
HETATM   13  H   UNL     1      42.244 -12.568   7.034  1.00  0.00     0.190 HD
BRANCH  11  14
HETATM   14  C   UNL     1      44.339 -12.316   8.624  1.00  0.00     0.101 A 
HETATM   15  C   UNL     1      43.472 -11.147   8.959  1.00  0.00     0.261 A 
HETATM   16  O   UNL     1      42.655 -10.691   8.165  1.00  0.00    -0.267 OA
HETATM   17  N   UNL     1      43.638 -10.600  10.213  1.00  0.00    -0.333 N 
HETATM   18  C   UNL     1      44.534 -11.065  11.139  1.00  0.00     0.091 A 
HETATM   19  H   UNL     1      43.046  -9.805  10.430  1.00  0.00     0.168 HD
HETATM   20  C   UNL     1      45.313 -12.112  10.851  1.00  0.00     0.018 A 
HETATM   21  C   UNL     1      45.209 -12.749   9.557  1.00  0.00     0.024 A 
ENDBRANCH  11  14
ENDBRANCH   7  10
ENDBRANCH   5   6
BRANCH   1  22
HETATM   22  C   UNL     1      42.877 -17.305   4.022  1.00  0.00    -0.005 A 
HETATM   23  C   UNL     1      42.367 -17.554   5.305  1.00  0.00     0.014 A 
HETATM   24  C   UNL     1      42.852 -18.615   6.074  1.00  0.00     0.001 A 
HETATM   25  C   UNL     1      43.859 -19.434   5.568  1.00  0.00     0.000 A 
HETATM   26  C   UNL     1      44.385 -19.189   4.301  1.00  0.00     0.001 A 
HETATM   27  C   UNL     1      43.903 -18.124   3.534  1.00  0.00     0.014 A 
ENDBRANCH   1  22
BRANCH   3  28
HETATM   28  C   UNL     1      41.606 -14.887   0.070  1.00  0.00     0.058 A 
HETATM   29  C   UNL     1      41.209 -15.957  -0.749  1.00  0.00     0.031 A 
HETATM   30  C   UNL     1      41.016 -15.764  -2.117  1.00  0.00     0.002 A 
HETATM   31  C   UNL     1      41.218 -14.506  -2.680  1.00  0.00     0.000 A 
HETATM   32  C   UNL     1      41.611 -13.438  -1.875  1.00  0.00     0.002 A 
HETATM   33  C   UNL     1      41.804 -13.623  -0.503  1.00  0.00     0.031 A 
ENDBRANCH   3  28
TORSDOF 5
ENDMDL
MODEL 9
REMARK VINA RESULT:      -8.1      3.439      7.531
REMARK  5 active torsions:
REMARK  status: ('A' for Active; 'I' for Inactive)
REMARK    1  A    between atoms: C_4  and  C_5 
REMARK    2  A    between atoms: N_7  and  C_8 
REMARK    3  A    between atoms: C_15  and  C_16 
REMARK       I    between atoms: C_16  and  N_17 
REMARK    4  A    between atoms: N_17  and  N_18 
REMARK       I    between atoms: N_18  and  C_19 
REMARK    5  A    between atoms: C_19  and  C_20 
ROOT
HETATM    1  C   UNL     1      43.010 -16.755   4.046  1.00  0.00     0.105 A 
HETATM    2  N   UNL     1      43.701 -17.883   4.287  1.00  0.00    -0.166 NA
HETATM    3  N   UNL     1      43.320 -18.764   3.342  1.00  0.00    -0.244 N 
HETATM    4  C   UNL     1      42.399 -18.207   2.488  1.00  0.00     0.138 A 
HETATM    5  C   UNL     1      42.181 -16.899   2.890  1.00  0.00     0.082 A 
ENDROOT
BRANCH   5   6
HETATM    6  C   UNL     1      41.304 -15.927   2.245  1.00  0.00     0.274 C 
HETATM    7  N   UNL     1      41.756 -15.461   1.025  1.00  0.00    -0.263 N 
HETATM    8  H   UNL     1      42.665 -15.686   0.634  1.00  0.00     0.190 HD
HETATM    9  O   UNL     1      40.243 -15.540   2.727  1.00  0.00    -0.266 OA
BRANCH   7  10
HETATM   10  N   UNL     1      41.000 -14.526   0.310  1.00  0.00    -0.263 N 
HETATM   11  C   UNL     1      40.675 -14.818  -0.994  1.00  0.00     0.275 C 
HETATM   12  O   UNL     1      41.075 -15.845  -1.547  1.00  0.00    -0.266 OA
HETATM   13  H   UNL     1      40.666 -13.692   0.806  1.00  0.00     0.190 HD
BRANCH  11  14
HETATM   14  C   UNL     1      39.809 -13.828  -1.689  1.00  0.00     0.101 A 
HETATM   15  C   UNL     1      38.419 -13.497  -1.254  1.00  0.00     0.261 A 
HETATM   16  O   UNL     1      37.898 -14.026  -0.276  1.00  0.00    -0.267 OA
HETATM   17  N   UNL     1      37.744 -12.566  -2.013  1.00  0.00    -0.333 N 
HETATM   18  C   UNL     1      38.273 -11.945  -3.114  1.00  0.00     0.091 A 
HETATM   19  H   UNL     1      36.800 -12.350  -1.711  1.00  0.00     0.168 HD
HETATM   20  C   UNL     1      39.517 -12.231  -3.510  1.00  0.00     0.018 A 
HETATM   21  C   UNL     1      40.300 -13.199  -2.776  1.00  0.00     0.024 A 
ENDBRANCH  11  14
ENDBRANCH   7  10
ENDBRANCH   5   6
BRANCH   1  22
HETATM   22  C   UNL     1      43.221 -15.603   4.925  1.00  0.00    -0.005 A 
HETATM   23  C   UNL     1      43.970 -15.756   6.102  1.00  0.00     0.014 A 
HETATM   24  C   UNL     1      44.166 -14.679   6.970  1.00  0.00     0.001 A 
HETATM   25  C   UNL     1      43.607 -13.438   6.673  1.00  0.00     0.000 A 
HETATM   26  C   UNL     1      42.848 -13.276   5.516  1.00  0.00     0.001 A 
HETATM   27  C   UNL     1      42.648 -14.356   4.650  1.00  0.00     0.014 A 
ENDBRANCH   1  22
BRANCH   3  28
HETATM   28  C   UNL     1      43.869 -20.078   3.303  1.00  0.00     0.058 A 
HETATM   29  C   UNL     1      44.431 -20.623   4.469  1.00  0.00     0.031 A 
HETATM   30  C   UNL     1      44.984 -21.905   4.453  1.00  0.00     0.002 A 
HETATM   31  C   UNL     1      44.982 -22.651   3.277  1.00  0.00     0.000 A 
HETATM   32  C   UNL     1      44.425 -22.119   2.115  1.00  0.00     0.002 A 
HETATM   33  C   UNL     1      43.868 -20.836   2.123  1.00  0.00     0.031 A 
ENDBRANCH   3  28
TORSDOF 5
ENDMDL
MODEL 10
REMARK VINA RESULT:      -8.1      2.991      8.451
REMARK  5 active torsions:
REMARK  status: ('A' for Active; 'I' for Inactive)
REMARK    1  A    between atoms: C_4  and  C_5 
REMARK    2  A    between atoms: N_7  and  C_8 
REMARK    3  A    between atoms: C_15  and  C_16 
REMARK       I    between atoms: C_16  and  N_17 
REMARK    4  A    between atoms: N_17  and  N_18 
REMARK       I    between atoms: N_18  and  C_19 
REMARK    5  A    between atoms: C_19  and  C_20 
ROOT
HETATM    1  C   UNL     1      41.053 -13.432   3.511  1.00  0.00     0.105 A 
HETATM    2  N   UNL     1      41.035 -12.139   3.878  1.00  0.00    -0.166 NA
HETATM    3  N   UNL     1      41.314 -12.121   5.197  1.00  0.00    -0.244 N 
HETATM    4  C   UNL     1      41.522 -13.391   5.676  1.00  0.00     0.138 A 
HETATM    5  C   UNL     1      41.385 -14.275   4.617  1.00  0.00     0.082 A 
ENDROOT
BRANCH   5   6
HETATM    6  C   UNL     1      41.559 -15.723   4.666  1.00  0.00     0.274 C 
HETATM    7  N   UNL     1      42.711 -16.189   4.062  1.00  0.00    -0.263 N 
HETATM    8  H   UNL     1      43.351 -15.602   3.536  1.00  0.00     0.190 HD
HETATM    9  O   UNL     1      40.759 -16.488   5.199  1.00  0.00    -0.266 OA
BRANCH   7  10
HETATM   10  N   UNL     1      42.989 -17.559   4.047  1.00  0.00    -0.263 N 
HETATM   11  C   UNL     1      43.565 -18.090   2.917  1.00  0.00     0.275 C 
HETATM   12  O   UNL     1      43.788 -17.402   1.919  1.00  0.00    -0.266 OA
HETATM   13  H   UNL     1      42.810 -18.099   4.902  1.00  0.00     0.190 HD
BRANCH  11  14
HETATM   14  C   UNL     1      43.908 -19.537   2.977  1.00  0.00     0.101 A 
HETATM   15  C   UNL     1      44.579 -20.179   4.147  1.00  0.00     0.261 A 
HETATM   16  O   UNL     1      44.888 -19.545   5.151  1.00  0.00    -0.267 OA
HETATM   17  N   UNL     1      44.839 -21.528   4.040  1.00  0.00    -0.333 N 
HETATM   18  C   UNL     1      44.519 -22.286   2.945  1.00  0.00     0.091 A 
HETATM   19  H   UNL     1      45.296 -21.954   4.839  1.00  0.00     0.168 HD
HETATM   20  C   UNL     1      43.916 -21.723   1.893  1.00  0.00     0.018 A 
HETATM   21  C   UNL     1      43.607 -20.311   1.915  1.00  0.00     0.024 A 
ENDBRANCH  11  14
ENDBRANCH   7  10
ENDBRANCH   5   6
BRANCH   1  22
HETATM   22  C   UNL     1      40.783 -13.767   2.111  1.00  0.00    -0.005 A 
HETATM   23  C   UNL     1      39.469 -13.697   1.623  1.00  0.00     0.014 A 
HETATM   24  C   UNL     1      39.180 -14.034   0.298  1.00  0.00     0.001 A 
HETATM   25  C   UNL     1      40.202 -14.452  -0.550  1.00  0.00     0.000 A 
HETATM   26  C   UNL     1      41.509 -14.539  -0.074  1.00  0.00     0.001 A 
HETATM   27  C   UNL     1      41.797 -14.207   1.253  1.00  0.00     0.014 A 
ENDBRANCH   1  22
BRANCH   3  28
HETATM   28  C   UNL     1      41.378 -10.892   5.913  1.00  0.00     0.058 A 
HETATM   29  C   UNL     1      41.376  -9.680   5.203  1.00  0.00     0.031 A 
HETATM   30  C   UNL     1      41.448  -8.464   5.883  1.00  0.00     0.002 A 
HETATM   31  C   UNL     1      41.522  -8.444   7.273  1.00  0.00     0.000 A 
HETATM   32  C   UNL     1      41.522  -9.642   7.988  1.00  0.00     0.002 A 
HETATM   33  C   UNL     1      41.449 -10.865   7.314  1.00  0.00     0.031 A 
ENDBRANCH   3  28
TORSDOF 5
ENDMDL
