MODEL 1
REMARK VINA RESULT:      -8.2      0.000      0.000
REMARK  5 active torsions:
REMARK  status: ('A' for Active; 'I' for Inactive)
REMARK    1  A    between atoms: C_5  and  N_6 
REMARK       I    between atoms: N_6  and  C_7 
REMARK    2  A    between atoms: C_7  and  C_8 
REMARK    3  A    between atoms: C_9  and  C_10 
REMARK    4  A    between atoms: C_13  and  O_14 
REMARK    5  A    between atoms: N_20  and  C_21 
ROOT
HETATM    1  C   UNL     1      41.917 -15.653   2.213  1.00  0.00     0.060 C 
HETATM    2  C   UNL     1      42.430 -14.399   2.829  1.00  0.00     0.158 C 
HETATM    3  N   UNL     1      42.468 -13.340   1.852  1.00  0.00    -0.354 N 
HETATM    4  C   UNL     1      41.788 -13.307   0.668  1.00  0.00     0.179 C 
HETATM    5  S   UNL     1      41.864 -11.835  -0.143  1.00  0.00    -0.040 SA
HETATM    6  N   UNL     1      41.167 -14.510   0.256  1.00  0.00    -0.292 N 
HETATM    7  C   UNL     1      41.310 -15.700   1.009  1.00  0.00     0.030 C 
HETATM    8  C   UNL     1      40.719 -16.988   0.470  1.00  0.00     0.070 C 
HETATM    9  H   UNL     1      42.895 -12.463   2.125  1.00  0.00     0.163 HD
ENDROOT
BRANCH   1  10
HETATM   10  C   UNL     1      42.256 -16.905   2.943  1.00  0.00     0.257 C 
HETATM   11  N   UNL     1      43.449 -17.459   2.542  1.00  0.00    -0.306 N 
HETATM   12  H   UNL     1      44.010 -16.994   1.843  1.00  0.00     0.170 HD
HETATM   13  O   UNL     1      41.477 -17.320   3.790  1.00  0.00    -0.267 OA
BRANCH  11  14
HETATM   14  C   UNL     1      43.920 -18.682   2.985  1.00  0.00     0.160 A 
HETATM   15  N   UNL     1      44.508 -18.916   4.161  1.00  0.00    -0.110 NA
HETATM   16  O   UNL     1      44.792 -20.265   4.194  1.00  0.00    -0.216 OA
HETATM   17  C   UNL     1      44.368 -20.844   3.043  1.00  0.00     0.078 A 
HETATM   18  C   UNL     1      44.576 -22.299   2.918  1.00  0.00     0.079 C 
HETATM   19  C   UNL     1      43.815 -19.881   2.237  1.00  0.00     0.087 A 
ENDBRANCH  11  14
ENDBRANCH   1  10
BRANCH   2  20
HETATM   20  C   UNL     1      41.616 -13.945   4.034  1.00  0.00    -0.031 A 
HETATM   21  C   UNL     1      42.241 -13.261   5.091  1.00  0.00     0.012 A 
HETATM   22  C   UNL     1      41.511 -12.864   6.215  1.00  0.00     0.037 A 
HETATM   23  C   UNL     1      40.152 -13.153   6.286  1.00  0.00     0.065 A 
HETATM   24  C   UNL     1      39.512 -13.826   5.254  1.00  0.00     0.037 A 
HETATM   25  C   UNL     1      40.239 -14.216   4.129  1.00  0.00     0.012 A 
BRANCH  23  26
HETATM   26  O   UNL     1      39.403 -12.787   7.364  1.00  0.00    -0.361 OA
HETATM   27  H   UNL     1      38.534 -13.219   7.304  1.00  0.00     0.217 HD
ENDBRANCH  23  26
ENDBRANCH   2  20
BRANCH   6  28
HETATM   28  C   UNL     1      40.515 -14.529  -1.025  1.00  0.00     0.042 A 
HETATM   29  C   UNL     1      39.185 -14.105  -1.148  1.00  0.00     0.030 A 
HETATM   30  C   UNL     1      38.552 -14.134  -2.392  1.00  0.00     0.002 A 
HETATM   31  C   UNL     1      39.240 -14.589  -3.516  1.00  0.00     0.000 A 
HETATM   32  C   UNL     1      40.562 -15.015  -3.400  1.00  0.00     0.002 A 
HETATM   33  C   UNL     1      41.202 -14.985  -2.158  1.00  0.00     0.030 A 
ENDBRANCH   6  28
TORSDOF 5
ENDMDL
MODEL 2
REMARK VINA RESULT:      -7.8      1.710      2.044
REMARK  5 active torsions:
REMARK  status: ('A' for Active; 'I' for Inactive)
REMARK    1  A    between atoms: C_5  and  N_6 
REMARK       I    between atoms: N_6  and  C_7 
REMARK    2  A    between atoms: C_7  and  C_8 
REMARK    3  A    between atoms: C_9  and  C_10 
REMARK    4  A    between atoms: C_13  and  O_14 
REMARK    5  A    between atoms: N_20  and  C_21 
ROOT
HETATM    1  C   UNL     1      42.303 -14.823   1.948  1.00  0.00     0.060 C 
HETATM    2  C   UNL     1      42.502 -13.494   2.589  1.00  0.00     0.158 C 
HETATM    3  N   UNL     1      42.199 -12.439   1.656  1.00  0.00    -0.354 N 
HETATM    4  C   UNL     1      41.465 -12.557   0.511  1.00  0.00     0.179 C 
HETATM    5  S   UNL     1      41.098 -11.097  -0.241  1.00  0.00    -0.040 SA
HETATM    6  N   UNL     1      41.161 -13.871   0.081  1.00  0.00    -0.292 N 
HETATM    7  C   UNL     1      41.659 -14.999   0.776  1.00  0.00     0.030 C 
HETATM    8  C   UNL     1      41.399 -16.383   0.216  1.00  0.00     0.070 C 
HETATM    9  H   UNL     1      42.393 -11.487   1.943  1.00  0.00     0.163 HD
ENDROOT
BRANCH   1  10
HETATM   10  C   UNL     1      43.006 -15.958   2.607  1.00  0.00     0.257 C 
HETATM   11  N   UNL     1      42.255 -16.564   3.586  1.00  0.00    -0.306 N 
HETATM   12  H   UNL     1      41.314 -16.247   3.768  1.00  0.00     0.170 HD
HETATM   13  O   UNL     1      44.142 -16.235   2.246  1.00  0.00    -0.267 OA
BRANCH  11  14
HETATM   14  C   UNL     1      42.732 -17.561   4.420  1.00  0.00     0.160 A 
HETATM   15  N   UNL     1      43.134 -18.775   4.039  1.00  0.00    -0.110 NA
HETATM   16  O   UNL     1      43.550 -19.426   5.182  1.00  0.00    -0.216 OA
HETATM   17  C   UNL     1      43.404 -18.600   6.249  1.00  0.00     0.078 A 
HETATM   18  C   UNL     1      43.823 -19.132   7.559  1.00  0.00     0.079 C 
HETATM   19  C   UNL     1      42.880 -17.406   5.821  1.00  0.00     0.087 A 
ENDBRANCH  11  14
ENDBRANCH   1  10
BRANCH   2  20
HETATM   20  C   UNL     1      41.671 -13.306   3.852  1.00  0.00    -0.031 A 
HETATM   21  C   UNL     1      42.266 -12.798   5.019  1.00  0.00     0.012 A 
HETATM   22  C   UNL     1      41.522 -12.648   6.193  1.00  0.00     0.037 A 
HETATM   23  C   UNL     1      40.179 -13.007   6.203  1.00  0.00     0.065 A 
HETATM   24  C   UNL     1      39.568 -13.510   5.061  1.00  0.00     0.037 A 
HETATM   25  C   UNL     1      40.308 -13.654   3.888  1.00  0.00     0.012 A 
BRANCH  23  26
HETATM   26  O   UNL     1      39.417 -12.880   7.325  1.00  0.00    -0.361 OA
HETATM   27  H   UNL     1      39.896 -12.334   7.970  1.00  0.00     0.217 HD
ENDBRANCH  23  26
ENDBRANCH   2  20
BRANCH   6  28
HETATM   28  C   UNL     1      40.460 -14.029  -1.164  1.00  0.00     0.042 A 
HETATM   29  C   UNL     1      41.170 -14.183  -2.362  1.00  0.00     0.030 A 
HETATM   30  C   UNL     1      40.486 -14.328  -3.569  1.00  0.00     0.002 A 
HETATM   31  C   UNL     1      39.092 -14.315  -3.588  1.00  0.00     0.000 A 
HETATM   32  C   UNL     1      38.379 -14.160  -2.401  1.00  0.00     0.002 A 
HETATM   33  C   UNL     1      39.059 -14.018  -1.188  1.00  0.00     0.030 A 
ENDBRANCH   6  28
TORSDOF 5
ENDMDL
MODEL 3
REMARK VINA RESULT:      -7.6      3.141      6.887
REMARK  5 active torsions:
REMARK  status: ('A' for Active; 'I' for Inactive)
REMARK    1  A    between atoms: C_5  and  N_6 
REMARK       I    between atoms: N_6  and  C_7 
REMARK    2  A    between atoms: C_7  and  C_8 
REMARK    3  A    between atoms: C_9  and  C_10 
REMARK    4  A    between atoms: C_13  and  O_14 
REMARK    5  A    between atoms: N_20  and  C_21 
ROOT
HETATM    1  C   UNL     1      41.591 -16.049   1.467  1.00  0.00     0.060 C 
HETATM    2  C   UNL     1      40.509 -15.548   2.360  1.00  0.00     0.158 C 
HETATM    3  N   UNL     1      40.385 -16.395   3.519  1.00  0.00    -0.354 N 
HETATM    4  C   UNL     1      41.322 -17.273   3.984  1.00  0.00     0.179 C 
HETATM    5  S   UNL     1      40.968 -17.945   5.486  1.00  0.00    -0.040 SA
HETATM    6  N   UNL     1      42.421 -17.543   3.134  1.00  0.00    -0.292 N 
HETATM    7  C   UNL     1      42.497 -16.977   1.839  1.00  0.00     0.030 C 
HETATM    8  C   UNL     1      43.635 -17.382   0.924  1.00  0.00     0.070 C 
HETATM    9  H   UNL     1      39.615 -16.215   4.152  1.00  0.00     0.163 HD
ENDROOT
BRANCH   1  10
HETATM   10  C   UNL     1      41.521 -15.577   0.057  1.00  0.00     0.257 C 
HETATM   11  N   UNL     1      42.099 -14.344  -0.130  1.00  0.00    -0.306 N 
HETATM   12  H   UNL     1      42.543 -13.873   0.646  1.00  0.00     0.170 HD
HETATM   13  O   UNL     1      40.971 -16.287  -0.774  1.00  0.00    -0.267 OA
BRANCH  11  14
HETATM   14  C   UNL     1      42.055 -13.642  -1.321  1.00  0.00     0.160 A 
HETATM   15  N   UNL     1      41.563 -14.091  -2.478  1.00  0.00    -0.110 NA
HETATM   16  O   UNL     1      41.697 -13.062  -3.386  1.00  0.00    -0.216 OA
HETATM   17  C   UNL     1      42.263 -11.991  -2.774  1.00  0.00     0.078 A 
HETATM   18  C   UNL     1      42.462 -10.787  -3.600  1.00  0.00     0.079 C 
HETATM   19  C   UNL     1      42.518 -12.310  -1.464  1.00  0.00     0.087 A 
ENDBRANCH  11  14
ENDBRANCH   1  10
BRANCH   2  20
HETATM   20  C   UNL     1      40.721 -14.107   2.808  1.00  0.00    -0.031 A 
HETATM   21  C   UNL     1      39.804 -13.110   2.434  1.00  0.00     0.012 A 
HETATM   22  C   UNL     1      40.001 -11.780   2.814  1.00  0.00     0.037 A 
HETATM   23  C   UNL     1      41.119 -11.442   3.568  1.00  0.00     0.065 A 
HETATM   24  C   UNL     1      42.040 -12.409   3.951  1.00  0.00     0.037 A 
HETATM   25  C   UNL     1      41.839 -13.738   3.577  1.00  0.00     0.012 A 
BRANCH  23  26
HETATM   26  O   UNL     1      41.353 -10.157   3.958  1.00  0.00    -0.361 OA
HETATM   27  H   UNL     1      41.330  -9.582   3.175  1.00  0.00     0.217 HD
ENDBRANCH  23  26
ENDBRANCH   2  20
BRANCH   6  28
HETATM   28  C   UNL     1      43.380 -18.524   3.561  1.00  0.00     0.042 A 
HETATM   29  C   UNL     1      43.522 -19.728   2.859  1.00  0.00     0.030 A 
HETATM   30  C   UNL     1      44.448 -20.682   3.282  1.00  0.00     0.002 A 
HETATM   31  C   UNL     1      45.234 -20.442   4.409  1.00  0.00     0.000 A 
HETATM   32  C   UNL     1      45.096 -19.247   5.114  1.00  0.00     0.002 A 
HETATM   33  C   UNL     1      44.173 -18.287   4.692  1.00  0.00     0.030 A 
ENDBRANCH   6  28
TORSDOF 5
ENDMDL
MODEL 4
REMARK VINA RESULT:      -7.5      1.971      2.444
REMARK  5 active torsions:
REMARK  status: ('A' for Active; 'I' for Inactive)
REMARK    1  A    between atoms: C_5  and  N_6 
REMARK       I    between atoms: N_6  and  C_7 
REMARK    2  A    between atoms: C_7  and  C_8 
REMARK    3  A    between atoms: C_9  and  C_10 
REMARK    4  A    between atoms: C_13  and  O_14 
REMARK    5  A    between atoms: N_20  and  C_21 
ROOT
HETATM    1  C   UNL     1      41.476 -14.319   2.715  1.00  0.00     0.060 C 
HETATM    2  C   UNL     1      41.975 -12.934   2.936  1.00  0.00     0.158 C 
HETATM    3  N   UNL     1      42.154 -12.259   1.676  1.00  0.00    -0.354 N 
HETATM    4  C   UNL     1      41.600 -12.617   0.481  1.00  0.00     0.179 C 
HETATM    5  S   UNL     1      41.818 -11.497  -0.756  1.00  0.00    -0.040 SA
HETATM    6  N   UNL     1      40.976 -13.885   0.421  1.00  0.00    -0.292 N 
HETATM    7  C   UNL     1      40.993 -14.759   1.535  1.00  0.00     0.030 C 
HETATM    8  C   UNL     1      40.408 -16.150   1.388  1.00  0.00     0.070 C 
HETATM    9  H   UNL     1      42.586 -11.343   1.691  1.00  0.00     0.163 HD
ENDROOT
BRANCH   1  10
HETATM   10  C   UNL     1      41.689 -15.260   3.848  1.00  0.00     0.257 C 
HETATM   11  N   UNL     1      42.960 -15.781   3.888  1.00  0.00    -0.306 N 
HETATM   12  H   UNL     1      43.646 -15.487   3.208  1.00  0.00     0.170 HD
HETATM   13  O   UNL     1      40.755 -15.487   4.606  1.00  0.00    -0.267 OA
BRANCH  11  14
HETATM   14  C   UNL     1      43.365 -16.765   4.772  1.00  0.00     0.160 A 
HETATM   15  N   UNL     1      43.723 -16.576   6.044  1.00  0.00    -0.110 NA
HETATM   16  O   UNL     1      44.024 -17.822   6.555  1.00  0.00    -0.216 OA
HETATM   17  C   UNL     1      43.839 -18.761   5.593  1.00  0.00     0.078 A 
HETATM   18  C   UNL     1      44.097 -20.161   5.976  1.00  0.00     0.079 C 
HETATM   19  C   UNL     1      43.429 -18.141   4.439  1.00  0.00     0.087 A 
ENDBRANCH  11  14
ENDBRANCH   1  10
BRANCH   2  20
HETATM   20  C   UNL     1      41.061 -12.103   3.829  1.00  0.00    -0.031 A 
HETATM   21  C   UNL     1      39.679 -12.062   3.579  1.00  0.00     0.012 A 
HETATM   22  C   UNL     1      38.833 -11.281   4.373  1.00  0.00     0.037 A 
HETATM   23  C   UNL     1      39.369 -10.537   5.418  1.00  0.00     0.065 A 
HETATM   24  C   UNL     1      40.732 -10.562   5.685  1.00  0.00     0.037 A 
HETATM   25  C   UNL     1      41.575 -11.346   4.898  1.00  0.00     0.012 A 
BRANCH  23  26
HETATM   26  O   UNL     1      38.582  -9.760   6.214  1.00  0.00    -0.361 OA
HETATM   27  H   UNL     1      39.098  -8.993   6.514  1.00  0.00     0.217 HD
ENDBRANCH  23  26
ENDBRANCH   2  20
BRANCH   6  28
HETATM   28  C   UNL     1      40.456 -14.324  -0.845  1.00  0.00     0.042 A 
HETATM   29  C   UNL     1      41.242 -15.110  -1.699  1.00  0.00     0.030 A 
HETATM   30  C   UNL     1      40.736 -15.526  -2.931  1.00  0.00     0.002 A 
HETATM   31  C   UNL     1      39.449 -15.158  -3.319  1.00  0.00     0.000 A 
HETATM   32  C   UNL     1      38.663 -14.374  -2.476  1.00  0.00     0.002 A 
HETATM   33  C   UNL     1      39.163 -13.958  -1.239  1.00  0.00     0.030 A 
ENDBRANCH   6  28
TORSDOF 5
ENDMDL
MODEL 5
REMARK VINA RESULT:      -7.4      1.644      2.370
REMARK  5 active torsions:
REMARK  status: ('A' for Active; 'I' for Inactive)
REMARK    1  A    between atoms: C_5  and  N_6 
REMARK       I    between atoms: N_6  and  C_7 
REMARK    2  A    between atoms: C_7  and  C_8 
REMARK    3  A    between atoms: C_9  and  C_10 
REMARK    4  A    between atoms: C_13  and  O_14 
REMARK    5  A    between atoms: N_20  and  C_21 
ROOT
HETATM    1  C   UNL     1      42.346 -15.430   3.239  1.00  0.00     0.060 C 
HETATM    2  C   UNL     1      43.322 -14.322   3.429  1.00  0.00     0.158 C 
HETATM    3  N   UNL     1      43.084 -13.276   2.468  1.00  0.00    -0.354 N 
HETATM    4  C   UNL     1      41.937 -13.079   1.753  1.00  0.00     0.179 C 
HETATM    5  S   UNL     1      41.891 -11.639   0.884  1.00  0.00    -0.040 SA
HETATM    6  N   UNL     1      40.978 -14.119   1.788  1.00  0.00    -0.292 N 
HETATM    7  C   UNL     1      41.237 -15.327   2.478  1.00  0.00     0.030 C 
HETATM    8  C   UNL     1      40.227 -16.454   2.395  1.00  0.00     0.070 C 
HETATM    9  H   UNL     1      43.747 -12.511   2.431  1.00  0.00     0.163 HD
ENDROOT
BRANCH   1  10
HETATM   10  C   UNL     1      42.750 -16.739   3.821  1.00  0.00     0.257 C 
HETATM   11  N   UNL     1      43.620 -17.442   3.021  1.00  0.00    -0.306 N 
HETATM   12  H   UNL     1      43.943 -17.039   2.154  1.00  0.00     0.170 HD
HETATM   13  O   UNL     1      42.288 -17.068   4.906  1.00  0.00    -0.267 OA
BRANCH  11  14
HETATM   14  C   UNL     1      44.044 -18.732   3.287  1.00  0.00     0.160 A 
HETATM   15  N   UNL     1      44.693 -19.134   4.382  1.00  0.00    -0.110 NA
HETATM   16  O   UNL     1      44.895 -20.491   4.241  1.00  0.00    -0.216 OA
HETATM   17  C   UNL     1      44.361 -20.907   3.065  1.00  0.00     0.078 A 
HETATM   18  C   UNL     1      44.470 -22.345   2.761  1.00  0.00     0.079 C 
HETATM   19  C   UNL     1      43.815 -19.827   2.416  1.00  0.00     0.087 A 
ENDBRANCH  11  14
ENDBRANCH   1  10
BRANCH   2  20
HETATM   20  C   UNL     1      43.294 -13.733   4.835  1.00  0.00    -0.031 A 
HETATM   21  C   UNL     1      42.267 -12.849   5.209  1.00  0.00     0.012 A 
HETATM   22  C   UNL     1      42.246 -12.280   6.485  1.00  0.00     0.037 A 
HETATM   23  C   UNL     1      43.254 -12.591   7.391  1.00  0.00     0.065 A 
HETATM   24  C   UNL     1      44.278 -13.463   7.045  1.00  0.00     0.037 A 
HETATM   25  C   UNL     1      44.296 -14.036   5.774  1.00  0.00     0.012 A 
BRANCH  23  26
HETATM   26  O   UNL     1      43.273 -12.057   8.644  1.00  0.00    -0.361 OA
HETATM   27  H   UNL     1      43.679 -12.697   9.253  1.00  0.00     0.217 HD
ENDBRANCH  23  26
ENDBRANCH   2  20
BRANCH   6  28
HETATM   28  C   UNL     1      39.798 -13.977   0.979  1.00  0.00     0.042 A 
HETATM   29  C   UNL     1      39.859 -14.185  -0.405  1.00  0.00     0.030 A 
HETATM   30  C   UNL     1      38.712 -14.038  -1.187  1.00  0.00     0.002 A 
HETATM   31  C   UNL     1      37.503 -13.678  -0.594  1.00  0.00     0.000 A 
HETATM   32  C   UNL     1      37.436 -13.467   0.782  1.00  0.00     0.002 A 
HETATM   33  C   UNL     1      38.580 -13.617   1.570  1.00  0.00     0.030 A 
ENDBRANCH   6  28
TORSDOF 5
ENDMDL
MODEL 6
REMARK VINA RESULT:      -7.4      2.058      2.588
REMARK  5 active torsions:
REMARK  status: ('A' for Active; 'I' for Inactive)
REMARK    1  A    between atoms: C_5  and  N_6 
REMARK       I    between atoms: N_6  and  C_7 
REMARK    2  A    between atoms: C_7  and  C_8 
REMARK    3  A    between atoms: C_9  and  C_10 
REMARK    4  A    between atoms: C_13  and  O_14 
REMARK    5  A    between atoms: N_20  and  C_21 
ROOT
HETATM    1  C   UNL     1      41.567 -14.458   3.656  1.00  0.00     0.060 C 
HETATM    2  C   UNL     1      42.109 -13.110   3.979  1.00  0.00     0.158 C 
HETATM    3  N   UNL     1      42.300 -12.345   2.774  1.00  0.00    -0.354 N 
HETATM    4  C   UNL     1      41.727 -12.592   1.559  1.00  0.00     0.179 C 
HETATM    5  S   UNL     1      41.970 -11.386   0.411  1.00  0.00    -0.040 SA
HETATM    6  N   UNL     1      41.064 -13.833   1.407  1.00  0.00    -0.292 N 
HETATM    7  C   UNL     1      41.063 -14.791   2.450  1.00  0.00     0.030 C 
HETATM    8  C   UNL     1      40.435 -16.148   2.201  1.00  0.00     0.070 C 
HETATM    9  H   UNL     1      42.759 -11.446   2.855  1.00  0.00     0.163 HD
ENDROOT
BRANCH   1  10
HETATM   10  C   UNL     1      41.759 -15.490   4.711  1.00  0.00     0.257 C 
HETATM   11  N   UNL     1      43.027 -16.019   4.726  1.00  0.00    -0.306 N 
HETATM   12  H   UNL     1      43.725 -15.673   4.083  1.00  0.00     0.170 HD
HETATM   13  O   UNL     1      40.812 -15.774   5.434  1.00  0.00    -0.267 OA
BRANCH  11  14
HETATM   14  C   UNL     1      43.415 -17.075   5.533  1.00  0.00     0.160 A 
HETATM   15  N   UNL     1      44.032 -16.975   6.712  1.00  0.00    -0.110 NA
HETATM   16  O   UNL     1      44.204 -18.263   7.175  1.00  0.00    -0.216 OA
HETATM   17  C   UNL     1      43.683 -19.137   6.277  1.00  0.00     0.078 A 
HETATM   18  C   UNL     1      43.763 -20.568   6.625  1.00  0.00     0.079 C 
HETATM   19  C   UNL     1      43.177 -18.435   5.212  1.00  0.00     0.087 A 
ENDBRANCH  11  14
ENDBRANCH   1  10
BRANCH   2  20
HETATM   20  C   UNL     1      41.227 -12.324   4.942  1.00  0.00    -0.031 A 
HETATM   21  C   UNL     1      39.910 -11.991   4.580  1.00  0.00     0.012 A 
HETATM   22  C   UNL     1      39.100 -11.246   5.442  1.00  0.00     0.037 A 
HETATM   23  C   UNL     1      39.605 -10.830   6.668  1.00  0.00     0.065 A 
HETATM   24  C   UNL     1      40.903 -11.148   7.049  1.00  0.00     0.037 A 
HETATM   25  C   UNL     1      41.709 -11.897   6.192  1.00  0.00     0.012 A 
BRANCH  23  26
HETATM   26  O   UNL     1      38.852 -10.100   7.538  1.00  0.00    -0.361 OA
HETATM   27  H   UNL     1      38.761  -9.196   7.193  1.00  0.00     0.217 HD
ENDBRANCH  23  26
ENDBRANCH   2  20
BRANCH   6  28
HETATM   28  C   UNL     1      40.523 -14.157   0.116  1.00  0.00     0.042 A 
HETATM   29  C   UNL     1      41.254 -14.947  -0.781  1.00  0.00     0.030 A 
HETATM   30  C   UNL     1      40.728 -15.252  -2.037  1.00  0.00     0.002 A 
HETATM   31  C   UNL     1      39.475 -14.765  -2.407  1.00  0.00     0.000 A 
HETATM   32  C   UNL     1      38.743 -13.975  -1.521  1.00  0.00     0.002 A 
HETATM   33  C   UNL     1      39.263 -13.671  -0.260  1.00  0.00     0.030 A 
ENDBRANCH   6  28
TORSDOF 5
ENDMDL
MODEL 7
REMARK VINA RESULT:      -7.4      4.308      7.782
REMARK  5 active torsions:
REMARK  status: ('A' for Active; 'I' for Inactive)
REMARK    1  A    between atoms: C_5  and  N_6 
REMARK       I    between atoms: N_6  and  C_7 
REMARK    2  A    between atoms: C_7  and  C_8 
REMARK    3  A    between atoms: C_9  and  C_10 
REMARK    4  A    between atoms: C_13  and  O_14 
REMARK    5  A    between atoms: N_20  and  C_21 
ROOT
HETATM    1  C   UNL     1      42.707 -13.933   5.687  1.00  0.00     0.060 C 
HETATM    2  C   UNL     1      43.337 -14.296   6.987  1.00  0.00     0.158 C 
HETATM    3  N   UNL     1      43.626 -15.706   7.027  1.00  0.00    -0.354 N 
HETATM    4  C   UNL     1      43.714 -16.545   5.952  1.00  0.00     0.179 C 
HETATM    5  S   UNL     1      44.291 -18.085   6.311  1.00  0.00    -0.040 SA
HETATM    6  N   UNL     1      43.263 -16.040   4.710  1.00  0.00    -0.292 N 
HETATM    7  C   UNL     1      42.687 -14.750   4.613  1.00  0.00     0.030 C 
HETATM    8  C   UNL     1      42.117 -14.296   3.284  1.00  0.00     0.070 C 
HETATM    9  H   UNL     1      43.965 -16.092   7.900  1.00  0.00     0.163 HD
ENDROOT
BRANCH   1  10
HETATM   10  C   UNL     1      41.946 -12.654   5.684  1.00  0.00     0.257 C 
HETATM   11  N   UNL     1      41.260 -12.430   6.853  1.00  0.00    -0.306 N 
HETATM   12  H   UNL     1      41.335 -13.088   7.615  1.00  0.00     0.170 HD
HETATM   13  O   UNL     1      41.986 -11.950   4.684  1.00  0.00    -0.267 OA
BRANCH  11  14
HETATM   14  C   UNL     1      40.388 -11.373   7.048  1.00  0.00     0.160 A 
HETATM   15  N   UNL     1      39.219 -11.198   6.429  1.00  0.00    -0.110 NA
HETATM   16  O   UNL     1      38.675 -10.038   6.940  1.00  0.00    -0.216 OA
HETATM   17  C   UNL     1      39.514  -9.519   7.872  1.00  0.00     0.078 A 
HETATM   18  C   UNL     1      39.076  -8.280   8.540  1.00  0.00     0.079 C 
HETATM   19  C   UNL     1      40.622 -10.325   7.973  1.00  0.00     0.087 A 
ENDBRANCH  11  14
ENDBRANCH   1  10
BRANCH   2  20
HETATM   20  C   UNL     1      44.610 -13.510   7.276  1.00  0.00    -0.031 A 
HETATM   21  C   UNL     1      45.736 -13.663   6.449  1.00  0.00     0.012 A 
HETATM   22  C   UNL     1      46.920 -12.970   6.719  1.00  0.00     0.037 A 
HETATM   23  C   UNL     1      46.981 -12.122   7.820  1.00  0.00     0.065 A 
HETATM   24  C   UNL     1      45.881 -11.954   8.651  1.00  0.00     0.037 A 
HETATM   25  C   UNL     1      44.698 -12.640   8.377  1.00  0.00     0.012 A 
BRANCH  23  26
HETATM   26  O   UNL     1      48.114 -11.430   8.122  1.00  0.00    -0.361 OA
HETATM   27  H   UNL     1      48.517 -11.110   7.298  1.00  0.00     0.217 HD
ENDBRANCH  23  26
ENDBRANCH   2  20
BRANCH   6  28
HETATM   28  C   UNL     1      43.265 -16.926   3.579  1.00  0.00     0.042 A 
HETATM   29  C   UNL     1      42.455 -18.069   3.573  1.00  0.00     0.030 A 
HETATM   30  C   UNL     1      42.468 -18.932   2.476  1.00  0.00     0.002 A 
HETATM   31  C   UNL     1      43.291 -18.661   1.383  1.00  0.00     0.000 A 
HETATM   32  C   UNL     1      44.102 -17.528   1.384  1.00  0.00     0.002 A 
HETATM   33  C   UNL     1      44.090 -16.658   2.478  1.00  0.00     0.030 A 
ENDBRANCH   6  28
TORSDOF 5
ENDMDL
MODEL 8
REMARK VINA RESULT:      -7.4      2.488      6.960
REMARK  5 active torsions:
REMARK  status: ('A' for Active; 'I' for Inactive)
REMARK    1  A    between atoms: C_5  and  N_6 
REMARK       I    between atoms: N_6  and  C_7 
REMARK    2  A    between atoms: C_7  and  C_8 
REMARK    3  A    between atoms: C_9  and  C_10 
REMARK    4  A    between atoms: C_13  and  O_14 
REMARK    5  A    between atoms: N_20  and  C_21 
ROOT
HETATM    1  C   UNL     1      41.785 -15.540   1.811  1.00  0.00     0.060 C 
HETATM    2  C   UNL     1      43.224 -15.838   2.051  1.00  0.00     0.158 C 
HETATM    3  N   UNL     1      43.745 -14.989   3.092  1.00  0.00    -0.354 N 
HETATM    4  C   UNL     1      43.013 -14.300   4.016  1.00  0.00     0.179 C 
HETATM    5  S   UNL     1      43.922 -13.582   5.237  1.00  0.00    -0.040 SA
HETATM    6  N   UNL     1      41.616 -14.232   3.802  1.00  0.00    -0.292 N 
HETATM    7  C   UNL     1      41.028 -14.796   2.644  1.00  0.00     0.030 C 
HETATM    8  C   UNL     1      39.544 -14.602   2.403  1.00  0.00     0.070 C 
HETATM    9  H   UNL     1      44.740 -15.028   3.277  1.00  0.00     0.163 HD
ENDROOT
BRANCH   1  10
HETATM   10  C   UNL     1      41.255 -15.984   0.494  1.00  0.00     0.257 C 
HETATM   11  N   UNL     1      41.243 -14.985  -0.450  1.00  0.00    -0.306 N 
HETATM   12  H   UNL     1      41.606 -14.071  -0.220  1.00  0.00     0.170 HD
HETATM   13  O   UNL     1      40.883 -17.144   0.371  1.00  0.00    -0.267 OA
BRANCH  11  14
HETATM   14  C   UNL     1      40.688 -15.119  -1.710  1.00  0.00     0.160 A 
HETATM   15  N   UNL     1      41.315 -15.568  -2.800  1.00  0.00    -0.110 NA
HETATM   16  O   UNL     1      40.385 -15.559  -3.819  1.00  0.00    -0.216 OA
HETATM   17  C   UNL     1      39.197 -15.111  -3.340  1.00  0.00     0.078 A 
HETATM   18  C   UNL     1      38.077 -15.056  -4.298  1.00  0.00     0.079 C 
HETATM   19  C   UNL     1      39.337 -14.810  -2.008  1.00  0.00     0.087 A 
ENDBRANCH  11  14
ENDBRANCH   1  10
BRANCH   2  20
HETATM   20  C   UNL     1      43.482 -17.296   2.413  1.00  0.00    -0.031 A 
HETATM   21  C   UNL     1      43.378 -17.721   3.749  1.00  0.00     0.012 A 
HETATM   22  C   UNL     1      43.640 -19.048   4.098  1.00  0.00     0.037 A 
HETATM   23  C   UNL     1      44.008 -19.956   3.111  1.00  0.00     0.065 A 
HETATM   24  C   UNL     1      44.115 -19.561   1.784  1.00  0.00     0.037 A 
HETATM   25  C   UNL     1      43.848 -18.238   1.434  1.00  0.00     0.012 A 
BRANCH  23  26
HETATM   26  O   UNL     1      44.274 -21.259   3.407  1.00  0.00    -0.361 OA
HETATM   27  H   UNL     1      43.454 -21.689   3.704  1.00  0.00     0.217 HD
ENDBRANCH  23  26
ENDBRANCH   2  20
BRANCH   6  28
HETATM   28  C   UNL     1      40.830 -13.446   4.712  1.00  0.00     0.042 A 
HETATM   29  C   UNL     1      40.689 -12.066   4.516  1.00  0.00     0.030 A 
HETATM   30  C   UNL     1      39.932 -11.304   5.408  1.00  0.00     0.002 A 
HETATM   31  C   UNL     1      39.317 -11.914   6.500  1.00  0.00     0.000 A 
HETATM   32  C   UNL     1      39.456 -13.287   6.703  1.00  0.00     0.002 A 
HETATM   33  C   UNL     1      40.209 -14.054   5.811  1.00  0.00     0.030 A 
ENDBRANCH   6  28
TORSDOF 5
ENDMDL
MODEL 9
REMARK VINA RESULT:      -7.4      3.329      6.490
REMARK  5 active torsions:
REMARK  status: ('A' for Active; 'I' for Inactive)
REMARK    1  A    between atoms: C_5  and  N_6 
REMARK       I    between atoms: N_6  and  C_7 
REMARK    2  A    between atoms: C_7  and  C_8 
REMARK    3  A    between atoms: C_9  and  C_10 
REMARK    4  A    between atoms: C_13  and  O_14 
REMARK    5  A    between atoms: N_20  and  C_21 
ROOT
HETATM    1  C   UNL     1      42.927 -15.531   5.078  1.00  0.00     0.060 C 
HETATM    2  C   UNL     1      42.138 -16.767   5.334  1.00  0.00     0.158 C 
HETATM    3  N   UNL     1      41.007 -16.832   4.445  1.00  0.00    -0.354 N 
HETATM    4  C   UNL     1      40.851 -16.135   3.281  1.00  0.00     0.179 C 
HETATM    5  S   UNL     1      39.524 -16.602   2.357  1.00  0.00    -0.040 SA
HETATM    6  N   UNL     1      41.775 -15.092   3.034  1.00  0.00    -0.292 N 
HETATM    7  C   UNL     1      42.764 -14.753   3.988  1.00  0.00     0.030 C 
HETATM    8  C   UNL     1      43.659 -13.558   3.727  1.00  0.00     0.070 C 
HETATM    9  H   UNL     1      40.336 -17.578   4.590  1.00  0.00     0.163 HD
ENDROOT
BRANCH   1  10
HETATM   10  C   UNL     1      43.817 -15.103   6.191  1.00  0.00     0.257 C 
HETATM   11  N   UNL     1      43.463 -13.890   6.731  1.00  0.00    -0.306 N 
HETATM   12  H   UNL     1      42.648 -13.404   6.387  1.00  0.00     0.170 HD
HETATM   13  O   UNL     1      44.751 -15.828   6.508  1.00  0.00    -0.267 OA
BRANCH  11  14
HETATM   14  C   UNL     1      44.204 -13.226   7.693  1.00  0.00     0.160 A 
HETATM   15  N   UNL     1      45.456 -13.513   8.054  1.00  0.00    -0.110 NA
HETATM   16  O   UNL     1      45.807 -12.591   9.019  1.00  0.00    -0.216 OA
HETATM   17  C   UNL     1      44.768 -11.745   9.232  1.00  0.00     0.078 A 
HETATM   18  C   UNL     1      44.979 -10.676  10.225  1.00  0.00     0.079 C 
HETATM   19  C   UNL     1      43.722 -12.110   8.422  1.00  0.00     0.087 A 
ENDBRANCH  11  14
ENDBRANCH   1  10
BRANCH   2  20
HETATM   20  C   UNL     1      42.961 -18.043   5.198  1.00  0.00    -0.031 A 
HETATM   21  C   UNL     1      43.199 -18.852   6.322  1.00  0.00     0.012 A 
HETATM   22  C   UNL     1      43.976 -20.009   6.217  1.00  0.00     0.037 A 
HETATM   23  C   UNL     1      44.519 -20.360   4.986  1.00  0.00     0.065 A 
HETATM   24  C   UNL     1      44.297 -19.577   3.861  1.00  0.00     0.037 A 
HETATM   25  C   UNL     1      43.516 -18.426   3.964  1.00  0.00     0.012 A 
BRANCH  23  26
HETATM   26  O   UNL     1      45.284 -21.477   4.839  1.00  0.00    -0.361 OA
HETATM   27  H   UNL     1      45.679 -21.474   3.951  1.00  0.00     0.217 HD
ENDBRANCH  23  26
ENDBRANCH   2  20
BRANCH   6  28
HETATM   28  C   UNL     1      41.587 -14.288   1.857  1.00  0.00     0.042 A 
HETATM   29  C   UNL     1      40.924 -13.057   1.939  1.00  0.00     0.030 A 
HETATM   30  C   UNL     1      40.737 -12.283   0.793  1.00  0.00     0.002 A 
HETATM   31  C   UNL     1      41.204 -12.736  -0.440  1.00  0.00     0.000 A 
HETATM   32  C   UNL     1      41.862 -13.962  -0.530  1.00  0.00     0.002 A 
HETATM   33  C   UNL     1      42.056 -14.738   0.616  1.00  0.00     0.030 A 
ENDBRANCH   6  28
TORSDOF 5
ENDMDL
MODEL 10
REMARK VINA RESULT:      -7.4      2.777      7.277
REMARK  5 active torsions:
REMARK  status: ('A' for Active; 'I' for Inactive)
REMARK    1  A    between atoms: C_5  and  N_6 
REMARK       I    between atoms: N_6  and  C_7 
REMARK    2  A    between atoms: C_7  and  C_8 
REMARK    3  A    between atoms: C_9  and  C_10 
REMARK    4  A    between atoms: C_13  and  O_14 
REMARK    5  A    between atoms: N_20  and  C_21 
ROOT
HETATM    1  C   UNL     1      42.144 -13.676   2.543  1.00  0.00     0.060 C 
HETATM    2  C   UNL     1      43.410 -14.413   2.811  1.00  0.00     0.158 C 
HETATM    3  N   UNL     1      43.884 -14.127   4.140  1.00  0.00    -0.354 N 
HETATM    4  C   UNL     1      43.148 -13.610   5.168  1.00  0.00     0.179 C 
HETATM    5  S   UNL     1      43.930 -13.606   6.658  1.00  0.00    -0.040 SA
HETATM    6  N   UNL     1      41.868 -13.101   4.843  1.00  0.00    -0.292 N 
HETATM    7  C   UNL     1      41.413 -13.073   3.503  1.00  0.00     0.030 C 
HETATM    8  C   UNL     1      40.083 -12.418   3.190  1.00  0.00     0.070 C 
HETATM    9  H   UNL     1      44.791 -14.491   4.405  1.00  0.00     0.163 HD
ENDROOT
BRANCH   1  10
HETATM   10  C   UNL     1      41.802 -13.503   1.105  1.00  0.00     0.257 C 
HETATM   11  N   UNL     1      40.836 -14.379   0.669  1.00  0.00    -0.306 N 
HETATM   12  H   UNL     1      40.414 -15.027   1.318  1.00  0.00     0.170 HD
HETATM   13  O   UNL     1      42.389 -12.643   0.461  1.00  0.00    -0.267 OA
BRANCH  11  14
HETATM   14  C   UNL     1      40.437 -14.494  -0.651  1.00  0.00     0.160 A 
HETATM   15  N   UNL     1      41.109 -15.114  -1.623  1.00  0.00    -0.110 NA
HETATM   16  O   UNL     1      40.339 -15.008  -2.762  1.00  0.00    -0.216 OA
HETATM   17  C   UNL     1      39.198 -14.332  -2.473  1.00  0.00     0.078 A 
HETATM   18  C   UNL     1      38.242 -14.144  -3.580  1.00  0.00     0.079 C 
HETATM   19  C   UNL     1      39.215 -13.975  -1.148  1.00  0.00     0.087 A 
ENDBRANCH  11  14
ENDBRANCH   1  10
BRANCH   2  20
HETATM   20  C   UNL     1      43.274 -15.921   2.637  1.00  0.00    -0.031 A 
HETATM   21  C   UNL     1      44.011 -16.585   1.641  1.00  0.00     0.012 A 
HETATM   22  C   UNL     1      43.874 -17.964   1.452  1.00  0.00     0.037 A 
HETATM   23  C   UNL     1      42.998 -18.682   2.259  1.00  0.00     0.065 A 
HETATM   24  C   UNL     1      42.261 -18.048   3.250  1.00  0.00     0.037 A 
HETATM   25  C   UNL     1      42.401 -16.674   3.443  1.00  0.00     0.012 A 
BRANCH  23  26
HETATM   26  O   UNL     1      42.832 -20.026   2.107  1.00  0.00    -0.361 OA
HETATM   27  H   UNL     1      43.706 -20.449   2.078  1.00  0.00     0.217 HD
ENDBRANCH  23  26
ENDBRANCH   2  20
BRANCH   6  28
HETATM   28  C   UNL     1      41.103 -12.477   5.888  1.00  0.00     0.042 A 
HETATM   29  C   UNL     1      39.994 -13.130   6.442  1.00  0.00     0.030 A 
HETATM   30  C   UNL     1      39.250 -12.516   7.450  1.00  0.00     0.002 A 
HETATM   31  C   UNL     1      39.604 -11.247   7.906  1.00  0.00     0.000 A 
HETATM   32  C   UNL     1      40.704 -10.590   7.358  1.00  0.00     0.002 A 
HETATM   33  C   UNL     1      41.456 -11.202   6.351  1.00  0.00     0.030 A 
ENDBRANCH   6  28
TORSDOF 5
ENDMDL
