MODEL 1
REMARK VINA RESULT:      -8.9      0.000      0.000
REMARK  5 active torsions:
REMARK  status: ('A' for Active; 'I' for Inactive)
REMARK    1  A    between atoms: C_5  and  C_6 
REMARK    2  A    between atoms: C_10  and  C_11 
REMARK       I    between atoms: C_11  and  N_12 
REMARK    3  A    between atoms: N_12  and  C_13 
REMARK    4  A    between atoms: C_13  and  C_14 
REMARK    5  A    between atoms: C_14  and  O_15 
ROOT
HETATM    1  C   UNL     1      42.890 -17.199   4.247  1.00  0.00     0.068 A 
HETATM    2  N   UNL     1      41.882 -16.556   3.609  1.00  0.00    -0.248 NA
HETATM    3  C   UNL     1      41.376 -15.420   4.120  1.00  0.00     0.068 A 
HETATM    4  C   UNL     1      41.863 -14.822   5.298  1.00  0.00     0.008 A 
HETATM    5  C   UNL     1      42.956 -15.474   5.908  1.00  0.00     0.046 A 
HETATM    6  C   UNL     1      43.457 -16.671   5.391  1.00  0.00     0.050 A 
HETATM    7  C   UNL     1      40.319 -14.821   3.449  1.00  0.00     0.032 A 
HETATM    8  C   UNL     1      39.709 -13.656   3.917  1.00  0.00     0.002 A 
HETATM    9  C   UNL     1      40.156 -13.073   5.094  1.00  0.00     0.001 A 
HETATM   10  C   UNL     1      41.219 -13.653   5.785  1.00  0.00     0.015 A 
ENDROOT
BRANCH   5  11
HETATM   11  C   UNL     1      43.674 -14.968   7.104  1.00  0.00     0.252 C 
HETATM   12  N   UNL     1      44.111 -13.663   7.053  1.00  0.00    -0.354 N 
HETATM   13  H   UNL     1      44.032 -13.194   6.158  1.00  0.00     0.162 HD
HETATM   14  O   UNL     1      43.918 -15.738   8.025  1.00  0.00    -0.268 OA
BRANCH  12  15
HETATM   15  C   UNL     1      45.116 -13.119   7.965  1.00  0.00     0.154 C 
BRANCH  15  16
HETATM   16  C   UNL     1      44.569 -12.401   9.215  1.00  0.00     0.132 C 
HETATM   17  C   UNL     1      45.612 -11.460   9.803  1.00  0.00     0.041 C 
BRANCH  16  18
HETATM   18  O   UNL     1      44.248 -13.345  10.238  1.00  0.00    -0.394 OA
HETATM   19  H   UNL     1      44.957 -14.027  10.206  1.00  0.00     0.210 HD
ENDBRANCH  16  18
ENDBRANCH  15  16
ENDBRANCH  12  15
ENDBRANCH   5  11
BRANCH   1  20
HETATM   20  C   UNL     1      43.350 -18.464   3.636  1.00  0.00    -0.007 A 
HETATM   21  C   UNL     1      44.259 -19.302   4.307  1.00  0.00     0.014 A 
HETATM   22  C   UNL     1      44.689 -20.513   3.750  1.00  0.00     0.007 A 
HETATM   23  C   UNL     1      44.231 -20.917   2.495  1.00  0.00    -0.062 A 
HETATM   24  C   UNL     1      44.661 -22.223   1.898  1.00  0.00     0.048 C 
HETATM   25  C   UNL     1      43.332 -20.097   1.810  1.00  0.00     0.007 A 
HETATM   26  C   UNL     1      42.905 -18.887   2.370  1.00  0.00     0.014 A 
ENDBRANCH   1  20
TORSDOF 5
ENDMDL
MODEL 2
REMARK VINA RESULT:      -8.6      4.114      6.386
REMARK  5 active torsions:
REMARK  status: ('A' for Active; 'I' for Inactive)
REMARK    1  A    between atoms: C_5  and  C_6 
REMARK    2  A    between atoms: C_10  and  C_11 
REMARK       I    between atoms: C_11  and  N_12 
REMARK    3  A    between atoms: N_12  and  C_13 
REMARK    4  A    between atoms: C_13  and  C_14 
REMARK    5  A    between atoms: C_14  and  O_15 
ROOT
HETATM    1  C   UNL     1      42.864 -17.143   2.685  1.00  0.00     0.068 A 
HETATM    2  N   UNL     1      43.058 -16.371   3.782  1.00  0.00    -0.248 NA
HETATM    3  C   UNL     1      42.668 -15.085   3.778  1.00  0.00     0.068 A 
HETATM    4  C   UNL     1      42.026 -14.477   2.682  1.00  0.00     0.008 A 
HETATM    5  C   UNL     1      41.777 -15.318   1.577  1.00  0.00     0.046 A 
HETATM    6  C   UNL     1      42.212 -16.646   1.573  1.00  0.00     0.050 A 
HETATM    7  C   UNL     1      42.923 -14.326   4.913  1.00  0.00     0.032 A 
HETATM    8  C   UNL     1      42.582 -12.975   4.993  1.00  0.00     0.002 A 
HETATM    9  C   UNL     1      41.980 -12.354   3.909  1.00  0.00     0.001 A 
HETATM   10  C   UNL     1      41.709 -13.094   2.759  1.00  0.00     0.015 A 
ENDROOT
BRANCH   5  11
HETATM   11  C   UNL     1      41.039 -14.906   0.357  1.00  0.00     0.252 C 
HETATM   12  N   UNL     1      41.799 -14.624  -0.756  1.00  0.00    -0.354 N 
HETATM   13  H   UNL     1      42.803 -14.586  -0.620  1.00  0.00     0.162 HD
HETATM   14  O   UNL     1      39.824 -14.753   0.416  1.00  0.00    -0.268 OA
BRANCH  12  15
HETATM   15  C   UNL     1      41.288 -13.883  -1.908  1.00  0.00     0.154 C 
BRANCH  15  16
HETATM   16  C   UNL     1      41.187 -14.677  -3.226  1.00  0.00     0.132 C 
HETATM   17  C   UNL     1      40.321 -15.918  -3.049  1.00  0.00     0.041 C 
BRANCH  16  18
HETATM   18  O   UNL     1      42.476 -15.135  -3.637  1.00  0.00    -0.394 OA
HETATM   19  H   UNL     1      43.045 -15.094  -2.836  1.00  0.00     0.210 HD
ENDBRANCH  16  18
ENDBRANCH  15  16
ENDBRANCH  12  15
ENDBRANCH   5  11
BRANCH   1  20
HETATM   20  C   UNL     1      43.366 -18.531   2.764  1.00  0.00    -0.007 A 
HETATM   21  C   UNL     1      44.120 -18.965   3.868  1.00  0.00     0.014 A 
HETATM   22  C   UNL     1      44.587 -20.282   3.966  1.00  0.00     0.007 A 
HETATM   23  C   UNL     1      44.324 -21.204   2.952  1.00  0.00    -0.062 A 
HETATM   24  C   UNL     1      44.793 -22.624   3.054  1.00  0.00     0.048 C 
HETATM   25  C   UNL     1      43.582 -20.791   1.843  1.00  0.00     0.007 A 
HETATM   26  C   UNL     1      43.118 -19.474   1.749  1.00  0.00     0.014 A 
ENDBRANCH   1  20
TORSDOF 5
ENDMDL
MODEL 3
REMARK VINA RESULT:      -8.2      2.866      3.858
REMARK  5 active torsions:
REMARK  status: ('A' for Active; 'I' for Inactive)
REMARK    1  A    between atoms: C_5  and  C_6 
REMARK    2  A    between atoms: C_10  and  C_11 
REMARK       I    between atoms: C_11  and  N_12 
REMARK    3  A    between atoms: N_12  and  C_13 
REMARK    4  A    between atoms: C_13  and  C_14 
REMARK    5  A    between atoms: C_14  and  O_15 
ROOT
HETATM    1  C   UNL     1      43.109 -17.553   2.331  1.00  0.00     0.068 A 
HETATM    2  N   UNL     1      42.527 -17.391   1.118  1.00  0.00    -0.248 NA
HETATM    3  C   UNL     1      42.033 -16.192   0.761  1.00  0.00     0.068 A 
HETATM    4  C   UNL     1      42.110 -15.052   1.584  1.00  0.00     0.008 A 
HETATM    5  C   UNL     1      42.778 -15.230   2.814  1.00  0.00     0.046 A 
HETATM    6  C   UNL     1      43.261 -16.484   3.194  1.00  0.00     0.050 A 
HETATM    7  C   UNL     1      41.414 -16.088  -0.477  1.00  0.00     0.032 A 
HETATM    8  C   UNL     1      40.846 -14.893  -0.923  1.00  0.00     0.002 A 
HETATM    9  C   UNL     1      40.884 -13.770  -0.110  1.00  0.00     0.001 A 
HETATM   10  C   UNL     1      41.504 -13.847   1.137  1.00  0.00     0.015 A 
ENDROOT
BRANCH   5  11
HETATM   11  C   UNL     1      43.046 -14.143   3.789  1.00  0.00     0.252 C 
HETATM   12  N   UNL     1      42.154 -14.019   4.831  1.00  0.00    -0.354 N 
HETATM   13  H   UNL     1      41.314 -14.584   4.778  1.00  0.00     0.162 HD
HETATM   14  O   UNL     1      43.973 -13.369   3.583  1.00  0.00    -0.268 OA
BRANCH  12  15
HETATM   15  C   UNL     1      42.059 -12.821   5.665  1.00  0.00     0.154 C 
BRANCH  15  16
HETATM   16  C   UNL     1      41.166 -11.690   5.114  1.00  0.00     0.132 C 
HETATM   17  C   UNL     1      39.874 -12.250   4.534  1.00  0.00     0.041 C 
BRANCH  16  18
HETATM   18  O   UNL     1      41.825 -11.001   4.052  1.00  0.00    -0.394 OA
HETATM   19  H   UNL     1      42.199 -10.183   4.453  1.00  0.00     0.210 HD
ENDBRANCH  16  18
ENDBRANCH  15  16
ENDBRANCH  12  15
ENDBRANCH   5  11
BRANCH   1  20
HETATM   20  C   UNL     1      43.580 -18.916   2.655  1.00  0.00    -0.007 A 
HETATM   21  C   UNL     1      44.214 -19.190   3.879  1.00  0.00     0.014 A 
HETATM   22  C   UNL     1      44.649 -20.480   4.208  1.00  0.00     0.007 A 
HETATM   23  C   UNL     1      44.474 -21.536   3.312  1.00  0.00    -0.062 A 
HETATM   24  C   UNL     1      44.910 -22.927   3.661  1.00  0.00     0.048 C 
HETATM   25  C   UNL     1      43.851 -21.284   2.088  1.00  0.00     0.007 A 
HETATM   26  C   UNL     1      43.419 -19.993   1.763  1.00  0.00     0.014 A 
ENDBRANCH   1  20
TORSDOF 5
ENDMDL
MODEL 4
REMARK VINA RESULT:      -8.2      1.676      2.227
REMARK  5 active torsions:
REMARK  status: ('A' for Active; 'I' for Inactive)
REMARK    1  A    between atoms: C_5  and  C_6 
REMARK    2  A    between atoms: C_10  and  C_11 
REMARK       I    between atoms: C_11  and  N_12 
REMARK    3  A    between atoms: N_12  and  C_13 
REMARK    4  A    between atoms: C_13  and  C_14 
REMARK    5  A    between atoms: C_14  and  O_15 
ROOT
HETATM    1  C   UNL     1      42.725 -17.567   3.209  1.00  0.00     0.068 A 
HETATM    2  N   UNL     1      41.579 -17.334   2.525  1.00  0.00    -0.248 NA
HETATM    3  C   UNL     1      40.981 -16.132   2.600  1.00  0.00     0.068 A 
HETATM    4  C   UNL     1      41.503 -15.058   3.345  1.00  0.00     0.008 A 
HETATM    5  C   UNL     1      42.731 -15.304   3.996  1.00  0.00     0.046 A 
HETATM    6  C   UNL     1      43.332 -16.564   3.941  1.00  0.00     0.050 A 
HETATM    7  C   UNL     1      39.789 -15.956   1.911  1.00  0.00     0.032 A 
HETATM    8  C   UNL     1      39.080 -14.754   1.951  1.00  0.00     0.002 A 
HETATM    9  C   UNL     1      39.564 -13.698   2.708  1.00  0.00     0.001 A 
HETATM   10  C   UNL     1      40.762 -13.847   3.407  1.00  0.00     0.015 A 
ENDROOT
BRANCH   5  11
HETATM   11  C   UNL     1      43.495 -14.288   4.760  1.00  0.00     0.252 C 
HETATM   12  N   UNL     1      43.499 -14.424   6.131  1.00  0.00    -0.354 N 
HETATM   13  H   UNL     1      42.873 -15.120   6.518  1.00  0.00     0.162 HD
HETATM   14  O   UNL     1      44.003 -13.346   4.163  1.00  0.00    -0.268 OA
BRANCH  12  15
HETATM   15  C   UNL     1      43.890 -13.349   7.041  1.00  0.00     0.154 C 
BRANCH  15  16
HETATM   16  C   UNL     1      45.333 -13.417   7.581  1.00  0.00     0.132 C 
HETATM   17  C   UNL     1      45.562 -12.368   8.661  1.00  0.00     0.041 C 
BRANCH  16  18
HETATM   18  O   UNL     1      46.273 -13.144   6.541  1.00  0.00    -0.394 OA
HETATM   19  H   UNL     1      46.462 -14.010   6.115  1.00  0.00     0.210 HD
ENDBRANCH  16  18
ENDBRANCH  15  16
ENDBRANCH  12  15
ENDBRANCH   5  11
BRANCH   1  20
HETATM   20  C   UNL     1      43.285 -18.931   3.104  1.00  0.00    -0.007 A 
HETATM   21  C   UNL     1      43.046 -19.725   1.969  1.00  0.00     0.014 A 
HETATM   22  C   UNL     1      43.585 -21.012   1.846  1.00  0.00     0.007 A 
HETATM   23  C   UNL     1      44.371 -21.550   2.866  1.00  0.00    -0.062 A 
HETATM   24  C   UNL     1      44.977 -22.915   2.739  1.00  0.00     0.048 C 
HETATM   25  C   UNL     1      44.616 -20.780   4.005  1.00  0.00     0.007 A 
HETATM   26  C   UNL     1      44.075 -19.495   4.124  1.00  0.00     0.014 A 
ENDBRANCH   1  20
TORSDOF 5
ENDMDL
MODEL 5
REMARK VINA RESULT:      -8.1      2.592      5.537
REMARK  5 active torsions:
REMARK  status: ('A' for Active; 'I' for Inactive)
REMARK    1  A    between atoms: C_5  and  C_6 
REMARK    2  A    between atoms: C_10  and  C_11 
REMARK       I    between atoms: C_11  and  N_12 
REMARK    3  A    between atoms: N_12  and  C_13 
REMARK    4  A    between atoms: C_13  and  C_14 
REMARK    5  A    between atoms: C_14  and  O_15 
ROOT
HETATM    1  C   UNL     1      41.801 -16.635   1.858  1.00  0.00     0.068 A 
HETATM    2  N   UNL     1      42.299 -17.830   1.459  1.00  0.00    -0.248 NA
HETATM    3  C   UNL     1      42.993 -18.593   2.321  1.00  0.00     0.068 A 
HETATM    4  C   UNL     1      43.218 -18.231   3.663  1.00  0.00     0.008 A 
HETATM    5  C   UNL     1      42.634 -17.013   4.072  1.00  0.00     0.046 A 
HETATM    6  C   UNL     1      41.941 -16.208   3.165  1.00  0.00     0.050 A 
HETATM    7  C   UNL     1      43.514 -19.792   1.852  1.00  0.00     0.032 A 
HETATM    8  C   UNL     1      44.273 -20.638   2.664  1.00  0.00     0.002 A 
HETATM    9  C   UNL     1      44.531 -20.278   3.978  1.00  0.00     0.001 A 
HETATM   10  C   UNL     1      44.015 -19.081   4.475  1.00  0.00     0.015 A 
ENDROOT
BRANCH   5  11
HETATM   11  C   UNL     1      42.674 -16.487   5.460  1.00  0.00     0.252 C 
HETATM   12  N   UNL     1      43.736 -15.668   5.776  1.00  0.00    -0.354 N 
HETATM   13  H   UNL     1      44.475 -15.599   5.086  1.00  0.00     0.162 HD
HETATM   14  O   UNL     1      41.833 -16.863   6.267  1.00  0.00    -0.268 OA
BRANCH  12  15
HETATM   15  C   UNL     1      44.122 -15.353   7.151  1.00  0.00     0.154 C 
BRANCH  15  16
HETATM   16  C   UNL     1      44.425 -13.869   7.439  1.00  0.00     0.132 C 
HETATM   17  C   UNL     1      45.817 -13.492   6.949  1.00  0.00     0.041 C 
BRANCH  16  18
HETATM   18  O   UNL     1      44.404 -13.615   8.844  1.00  0.00    -0.394 OA
HETATM   19  H   UNL     1      44.887 -12.767   8.971  1.00  0.00     0.210 HD
ENDBRANCH  16  18
ENDBRANCH  15  16
ENDBRANCH  12  15
ENDBRANCH   5  11
BRANCH   1  20
HETATM   20  C   UNL     1      41.093 -15.844   0.829  1.00  0.00    -0.007 A 
HETATM   21  C   UNL     1      40.085 -14.931   1.187  1.00  0.00     0.014 A 
HETATM   22  C   UNL     1      39.418 -14.161   0.226  1.00  0.00     0.007 A 
HETATM   23  C   UNL     1      39.732 -14.291  -1.128  1.00  0.00    -0.062 A 
HETATM   24  C   UNL     1      39.047 -13.454  -2.166  1.00  0.00     0.048 C 
HETATM   25  C   UNL     1      40.727 -15.196  -1.504  1.00  0.00     0.007 A 
HETATM   26  C   UNL     1      41.390 -15.964  -0.541  1.00  0.00     0.014 A 
ENDBRANCH   1  20
TORSDOF 5
ENDMDL
MODEL 6
REMARK VINA RESULT:      -8.0      2.919      6.496
REMARK  5 active torsions:
REMARK  status: ('A' for Active; 'I' for Inactive)
REMARK    1  A    between atoms: C_5  and  C_6 
REMARK    2  A    between atoms: C_10  and  C_11 
REMARK       I    between atoms: C_11  and  N_12 
REMARK    3  A    between atoms: N_12  and  C_13 
REMARK    4  A    between atoms: C_13  and  C_14 
REMARK    5  A    between atoms: C_14  and  O_15 
ROOT
HETATM    1  C   UNL     1      40.469 -15.484   2.911  1.00  0.00     0.068 A 
HETATM    2  N   UNL     1      41.118 -16.245   1.997  1.00  0.00    -0.248 NA
HETATM    3  C   UNL     1      42.008 -17.169   2.399  1.00  0.00     0.068 A 
HETATM    4  C   UNL     1      42.297 -17.422   3.754  1.00  0.00     0.008 A 
HETATM    5  C   UNL     1      41.560 -16.662   4.688  1.00  0.00     0.046 A 
HETATM    6  C   UNL     1      40.660 -15.682   4.265  1.00  0.00     0.050 A 
HETATM    7  C   UNL     1      42.674 -17.897   1.422  1.00  0.00     0.032 A 
HETATM    8  C   UNL     1      43.636 -18.857   1.741  1.00  0.00     0.002 A 
HETATM    9  C   UNL     1      43.955 -19.094   3.070  1.00  0.00     0.001 A 
HETATM   10  C   UNL     1      43.298 -18.379   4.070  1.00  0.00     0.015 A 
ENDROOT
BRANCH   5  11
HETATM   11  C   UNL     1      41.645 -16.830   6.160  1.00  0.00     0.252 C 
HETATM   12  N   UNL     1      42.907 -16.794   6.711  1.00  0.00    -0.354 N 
HETATM   13  H   UNL     1      43.685 -16.795   6.061  1.00  0.00     0.162 HD
HETATM   14  O   UNL     1      40.626 -17.074   6.795  1.00  0.00    -0.268 OA
BRANCH  12  15
HETATM   15  C   UNL     1      43.207 -17.281   8.057  1.00  0.00     0.154 C 
BRANCH  15  16
HETATM   16  C   UNL     1      44.200 -18.459   8.138  1.00  0.00     0.132 C 
HETATM   17  C   UNL     1      43.673 -19.669   7.378  1.00  0.00     0.041 C 
BRANCH  16  18
HETATM   18  O   UNL     1      44.378 -18.874   9.493  1.00  0.00    -0.394 OA
HETATM   19  H   UNL     1      44.711 -19.799   9.449  1.00  0.00     0.210 HD
ENDBRANCH  16  18
ENDBRANCH  15  16
ENDBRANCH  12  15
ENDBRANCH   5  11
BRANCH   1  20
HETATM   20  C   UNL     1      39.544 -14.463   2.374  1.00  0.00    -0.007 A 
HETATM   21  C   UNL     1      38.598 -14.792   1.388  1.00  0.00     0.014 A 
HETATM   22  C   UNL     1      37.703 -13.840   0.884  1.00  0.00     0.007 A 
HETATM   23  C   UNL     1      37.737 -12.523   1.343  1.00  0.00    -0.062 A 
HETATM   24  C   UNL     1      36.767 -11.499   0.833  1.00  0.00     0.048 C 
HETATM   25  C   UNL     1      38.673 -12.174   2.319  1.00  0.00     0.007 A 
HETATM   26  C   UNL     1      39.566 -13.127   2.820  1.00  0.00     0.014 A 
ENDBRANCH   1  20
TORSDOF 5
ENDMDL
MODEL 7
REMARK VINA RESULT:      -8.0      2.843      3.587
REMARK  5 active torsions:
REMARK  status: ('A' for Active; 'I' for Inactive)
REMARK    1  A    between atoms: C_5  and  C_6 
REMARK    2  A    between atoms: C_10  and  C_11 
REMARK       I    between atoms: C_11  and  N_12 
REMARK    3  A    between atoms: N_12  and  C_13 
REMARK    4  A    between atoms: C_13  and  C_14 
REMARK    5  A    between atoms: C_14  and  O_15 
ROOT
HETATM    1  C   UNL     1      43.216 -17.499   3.163  1.00  0.00     0.068 A 
HETATM    2  N   UNL     1      42.769 -17.488   1.884  1.00  0.00    -0.248 NA
HETATM    3  C   UNL     1      42.219 -16.373   1.372  1.00  0.00     0.068 A 
HETATM    4  C   UNL     1      42.099 -15.171   2.095  1.00  0.00     0.008 A 
HETATM    5  C   UNL     1      42.631 -15.188   3.402  1.00  0.00     0.046 A 
HETATM    6  C   UNL     1      43.173 -16.358   3.941  1.00  0.00     0.050 A 
HETATM    7  C   UNL     1      41.742 -16.424   0.069  1.00  0.00     0.032 A 
HETATM    8  C   UNL     1      41.129 -15.328  -0.539  1.00  0.00     0.002 A 
HETATM    9  C   UNL     1      40.974 -14.147   0.172  1.00  0.00     0.001 A 
HETATM   10  C   UNL     1      41.448 -14.068   1.481  1.00  0.00     0.015 A 
ENDROOT
BRANCH   5  11
HETATM   11  C   UNL     1      42.687 -14.009   4.302  1.00  0.00     0.252 C 
HETATM   12  N   UNL     1      41.572 -13.772   5.074  1.00  0.00    -0.354 N 
HETATM   13  H   UNL     1      40.752 -14.333   4.871  1.00  0.00     0.162 HD
HETATM   14  O   UNL     1      43.661 -13.268   4.256  1.00  0.00    -0.268 OA
BRANCH  12  15
HETATM   15  C   UNL     1      41.314 -12.494   5.737  1.00  0.00     0.154 C 
BRANCH  15  16
HETATM   16  C   UNL     1      39.908 -12.328   6.350  1.00  0.00     0.132 C 
HETATM   17  C   UNL     1      39.891 -11.203   7.376  1.00  0.00     0.041 C 
BRANCH  16  18
HETATM   18  O   UNL     1      39.516 -13.515   7.039  1.00  0.00    -0.394 OA
HETATM   19  H   UNL     1      38.599 -13.709   6.740  1.00  0.00     0.210 HD
ENDBRANCH  16  18
ENDBRANCH  15  16
ENDBRANCH  12  15
ENDBRANCH   5  11
BRANCH   1  20
HETATM   20  C   UNL     1      43.763 -18.782   3.655  1.00  0.00    -0.007 A 
HETATM   21  C   UNL     1      43.956 -19.006   5.029  1.00  0.00     0.014 A 
HETATM   22  C   UNL     1      44.455 -20.222   5.511  1.00  0.00     0.007 A 
HETATM   23  C   UNL     1      44.790 -21.250   4.628  1.00  0.00    -0.062 A 
HETATM   24  C   UNL     1      45.300 -22.567   5.130  1.00  0.00     0.048 C 
HETATM   25  C   UNL     1      44.612 -21.045   3.258  1.00  0.00     0.007 A 
HETATM   26  C   UNL     1      44.113 -19.828   2.781  1.00  0.00     0.014 A 
ENDBRANCH   1  20
TORSDOF 5
ENDMDL
MODEL 8
REMARK VINA RESULT:      -8.0      3.906      6.079
REMARK  5 active torsions:
REMARK  status: ('A' for Active; 'I' for Inactive)
REMARK    1  A    between atoms: C_5  and  C_6 
REMARK    2  A    between atoms: C_10  and  C_11 
REMARK       I    between atoms: C_11  and  N_12 
REMARK    3  A    between atoms: N_12  and  C_13 
REMARK    4  A    between atoms: C_13  and  C_14 
REMARK    5  A    between atoms: C_14  and  O_15 
ROOT
HETATM    1  C   UNL     1      42.038 -17.192   2.980  1.00  0.00     0.068 A 
HETATM    2  N   UNL     1      41.733 -16.713   4.211  1.00  0.00    -0.248 NA
HETATM    3  C   UNL     1      41.079 -15.546   4.337  1.00  0.00     0.068 A 
HETATM    4  C   UNL     1      40.653 -14.778   3.236  1.00  0.00     0.008 A 
HETATM    5  C   UNL     1      40.924 -15.329   1.966  1.00  0.00     0.046 A 
HETATM    6  C   UNL     1      41.631 -16.527   1.839  1.00  0.00     0.050 A 
HETATM    7  C   UNL     1      40.824 -15.080   5.620  1.00  0.00     0.032 A 
HETATM    8  C   UNL     1      40.177 -13.865   5.853  1.00  0.00     0.002 A 
HETATM    9  C   UNL     1      39.781 -13.082   4.778  1.00  0.00     0.001 A 
HETATM   10  C   UNL     1      40.022 -13.529   3.479  1.00  0.00     0.015 A 
ENDROOT
BRANCH   5  11
HETATM   11  C   UNL     1      40.487 -14.731   0.680  1.00  0.00     0.252 C 
HETATM   12  N   UNL     1      41.484 -14.354  -0.193  1.00  0.00    -0.354 N 
HETATM   13  H   UNL     1      42.432 -14.386   0.162  1.00  0.00     0.162 HD
HETATM   14  O   UNL     1      39.295 -14.522   0.491  1.00  0.00    -0.268 OA
BRANCH  12  15
HETATM   15  C   UNL     1      41.261 -13.450  -1.320  1.00  0.00     0.154 C 
BRANCH  15  16
HETATM   16  C   UNL     1      41.441 -14.068  -2.722  1.00  0.00     0.132 C 
HETATM   17  C   UNL     1      41.055 -15.541  -2.721  1.00  0.00     0.041 C 
BRANCH  16  18
HETATM   18  O   UNL     1      42.809 -14.005  -3.128  1.00  0.00    -0.394 OA
HETATM   19  H   UNL     1      42.941 -13.099  -3.488  1.00  0.00     0.210 HD
ENDBRANCH  16  18
ENDBRANCH  15  16
ENDBRANCH  12  15
ENDBRANCH   5  11
BRANCH   1  20
HETATM   20  C   UNL     1      42.799 -18.459   2.940  1.00  0.00    -0.007 A 
HETATM   21  C   UNL     1      43.613 -18.847   4.019  1.00  0.00     0.014 A 
HETATM   22  C   UNL     1      44.325 -20.053   4.004  1.00  0.00     0.007 A 
HETATM   23  C   UNL     1      44.254 -20.903   2.899  1.00  0.00    -0.062 A 
HETATM   24  C   UNL     1      44.988 -22.210   2.879  1.00  0.00     0.048 C 
HETATM   25  C   UNL     1      43.456 -20.533   1.815  1.00  0.00     0.007 A 
HETATM   26  C   UNL     1      42.746 -19.327   1.834  1.00  0.00     0.014 A 
ENDBRANCH   1  20
TORSDOF 5
ENDMDL
MODEL 9
REMARK VINA RESULT:      -8.0      1.897      5.816
REMARK  5 active torsions:
REMARK  status: ('A' for Active; 'I' for Inactive)
REMARK    1  A    between atoms: C_5  and  C_6 
REMARK    2  A    between atoms: C_10  and  C_11 
REMARK       I    between atoms: C_11  and  N_12 
REMARK    3  A    between atoms: N_12  and  C_13 
REMARK    4  A    between atoms: C_13  and  C_14 
REMARK    5  A    between atoms: C_14  and  O_15 
ROOT
HETATM    1  C   UNL     1      40.723 -15.345   2.900  1.00  0.00     0.068 A 
HETATM    2  N   UNL     1      41.039 -16.429   2.150  1.00  0.00    -0.248 NA
HETATM    3  C   UNL     1      41.988 -17.285   2.567  1.00  0.00     0.068 A 
HETATM    4  C   UNL     1      42.676 -17.137   3.786  1.00  0.00     0.008 A 
HETATM    5  C   UNL     1      42.285 -16.038   4.580  1.00  0.00     0.046 A 
HETATM    6  C   UNL     1      41.321 -15.134   4.128  1.00  0.00     0.050 A 
HETATM    7  C   UNL     1      42.300 -18.359   1.744  1.00  0.00     0.032 A 
HETATM    8  C   UNL     1      43.291 -19.284   2.078  1.00  0.00     0.002 A 
HETATM    9  C   UNL     1      44.001 -19.133   3.260  1.00  0.00     0.001 A 
HETATM   10  C   UNL     1      43.704 -18.065   4.106  1.00  0.00     0.015 A 
ENDROOT
BRANCH   5  11
HETATM   11  C   UNL     1      42.819 -15.747   5.934  1.00  0.00     0.252 C 
HETATM   12  N   UNL     1      43.840 -14.826   6.007  1.00  0.00    -0.354 N 
HETATM   13  H   UNL     1      44.240 -14.523   5.127  1.00  0.00     0.162 HD
HETATM   14  O   UNL     1      42.400 -16.385   6.892  1.00  0.00    -0.268 OA
BRANCH  12  15
HETATM   15  C   UNL     1      44.705 -14.681   7.178  1.00  0.00     0.154 C 
BRANCH  15  16
HETATM   16  C   UNL     1      44.711 -13.288   7.838  1.00  0.00     0.132 C 
HETATM   17  C   UNL     1      46.115 -12.697   7.852  1.00  0.00     0.041 C 
BRANCH  16  18
HETATM   18  O   UNL     1      44.292 -13.375   9.201  1.00  0.00    -0.394 OA
HETATM   19  H   UNL     1      43.328 -13.567   9.174  1.00  0.00     0.210 HD
ENDBRANCH  16  18
ENDBRANCH  15  16
ENDBRANCH  12  15
ENDBRANCH   5  11
BRANCH   1  20
HETATM   20  C   UNL     1      39.702 -14.435   2.340  1.00  0.00    -0.007 A 
HETATM   21  C   UNL     1      38.702 -14.916   1.477  1.00  0.00     0.014 A 
HETATM   22  C   UNL     1      37.716 -14.070   0.953  1.00  0.00     0.007 A 
HETATM   23  C   UNL     1      37.710 -12.710   1.267  1.00  0.00    -0.062 A 
HETATM   24  C   UNL     1      36.647 -11.797   0.736  1.00  0.00     0.048 C 
HETATM   25  C   UNL     1      38.700 -12.211   2.118  1.00  0.00     0.007 A 
HETATM   26  C   UNL     1      39.683 -13.060   2.638  1.00  0.00     0.014 A 
ENDBRANCH   1  20
TORSDOF 5
ENDMDL
MODEL 10
REMARK VINA RESULT:      -7.8      3.735      5.301
REMARK  5 active torsions:
REMARK  status: ('A' for Active; 'I' for Inactive)
REMARK    1  A    between atoms: C_5  and  C_6 
REMARK    2  A    between atoms: C_10  and  C_11 
REMARK       I    between atoms: C_11  and  N_12 
REMARK    3  A    between atoms: N_12  and  C_13 
REMARK    4  A    between atoms: C_13  and  C_14 
REMARK    5  A    between atoms: C_14  and  O_15 
ROOT
HETATM    1  C   UNL     1      42.196 -17.375   3.045  1.00  0.00     0.068 A 
HETATM    2  N   UNL     1      41.795 -16.948   4.267  1.00  0.00    -0.248 NA
HETATM    3  C   UNL     1      41.172 -15.764   4.397  1.00  0.00     0.068 A 
HETATM    4  C   UNL     1      40.877 -14.925   3.305  1.00  0.00     0.008 A 
HETATM    5  C   UNL     1      41.246 -15.420   2.036  1.00  0.00     0.046 A 
HETATM    6  C   UNL     1      41.921 -16.637   1.910  1.00  0.00     0.050 A 
HETATM    7  C   UNL     1      40.814 -15.356   5.675  1.00  0.00     0.032 A 
HETATM    8  C   UNL     1      40.190 -14.130   5.914  1.00  0.00     0.002 A 
HETATM    9  C   UNL     1      39.923 -13.278   4.852  1.00  0.00     0.001 A 
HETATM   10  C   UNL     1      40.269 -13.666   3.558  1.00  0.00     0.015 A 
ENDROOT
BRANCH   5  11
HETATM   11  C   UNL     1      40.952 -14.740   0.751  1.00  0.00     0.252 C 
HETATM   12  N   UNL     1      41.980 -14.016   0.189  1.00  0.00    -0.354 N 
HETATM   13  H   UNL     1      42.809 -13.890   0.759  1.00  0.00     0.162 HD
HETATM   14  O   UNL     1      39.813 -14.777   0.301  1.00  0.00    -0.268 OA
BRANCH  12  15
HETATM   15  C   UNL     1      41.777 -13.018  -0.860  1.00  0.00     0.154 C 
BRANCH  15  16
HETATM   16  C   UNL     1      42.113 -11.563  -0.476  1.00  0.00     0.132 C 
HETATM   17  C   UNL     1      43.142 -10.971  -1.431  1.00  0.00     0.041 C 
BRANCH  16  18
HETATM   18  O   UNL     1      42.688 -11.506   0.829  1.00  0.00    -0.394 OA
HETATM   19  H   UNL     1      43.008 -10.583   0.942  1.00  0.00     0.210 HD
ENDBRANCH  16  18
ENDBRANCH  15  16
ENDBRANCH  12  15
ENDBRANCH   5  11
BRANCH   1  20
HETATM   20  C   UNL     1      42.914 -18.667   3.005  1.00  0.00    -0.007 A 
HETATM   21  C   UNL     1      42.762 -19.545   1.918  1.00  0.00     0.014 A 
HETATM   22  C   UNL     1      43.450 -20.763   1.857  1.00  0.00     0.007 A 
HETATM   23  C   UNL     1      44.303 -21.147   2.892  1.00  0.00    -0.062 A 
HETATM   24  C   UNL     1      45.067 -22.435   2.829  1.00  0.00     0.048 C 
HETATM   25  C   UNL     1      44.464 -20.291   3.984  1.00  0.00     0.007 A 
HETATM   26  C   UNL     1      43.774 -19.075   4.042  1.00  0.00     0.014 A 
ENDBRANCH   1  20
TORSDOF 5
ENDMDL
