MODEL 1
REMARK VINA RESULT:      -8.6      0.000      0.000
REMARK  8 active torsions:
REMARK  status: ('A' for Active; 'I' for Inactive)
REMARK    1  A    between atoms: C_2  and  O_3 
REMARK    2  A    between atoms: O_3  and  C_4 
REMARK    3  A    between atoms: C_5  and  N_6 
REMARK       I    between atoms: N_6  and  C_7 
REMARK    4  A    between atoms: C_7  and  C_8 
REMARK    5  A    between atoms: N_11  and  C_12 
REMARK    6  A    between atoms: C_12  and  C_13 
REMARK       I    between atoms: C_13  and  N_14 
REMARK    7  A    between atoms: N_14  and  C_15 
REMARK    8  A    between atoms: C_24  and  N_25 
ROOT
HETATM    1  C   UNL     1      41.087 -15.236   5.716  1.00  0.00     0.187 C 
HETATM    2  N   UNL     1      40.863 -16.390   6.438  1.00  0.00    -0.150 NA
HETATM    3  N   UNL     1      42.000 -16.741   7.023  1.00  0.00     0.007 NA
HETATM    4  N   UNL     1      42.939 -15.857   6.632  1.00  0.00    -0.248 N 
HETATM    5  C   UNL     1      42.396 -14.825   5.910  1.00  0.00     0.151 C 
ENDROOT
BRANCH   1   6
HETATM    6  C   UNL     1      40.076 -14.576   4.915  1.00  0.00     0.280 C 
HETATM    7  N   UNL     1      39.845 -14.979   3.616  1.00  0.00    -0.319 N 
HETATM    8  H   UNL     1      38.922 -14.713   3.306  1.00  0.00     0.169 HD
HETATM    9  O   UNL     1      39.344 -13.702   5.389  1.00  0.00    -0.265 OA
BRANCH   7  10
HETATM   10  C   UNL     1      40.682 -15.582   2.652  1.00  0.00     0.068 A 
HETATM   11  C   UNL     1      41.876 -15.055   2.138  1.00  0.00     0.095 A 
HETATM   12  C   UNL     1      42.619 -15.760   1.181  1.00  0.00     0.039 A 
HETATM   13  C   UNL     1      42.148 -16.967   0.674  1.00  0.00     0.003 A 
HETATM   14  C   UNL     1      40.935 -17.475   1.127  1.00  0.00     0.002 A 
HETATM   15  C   UNL     1      40.208 -16.785   2.105  1.00  0.00     0.032 A 
BRANCH  11  16
HETATM   16  O   UNL     1      42.375 -13.835   2.501  1.00  0.00    -0.349 OA
BRANCH  16  17
HETATM   17  C   UNL     1      42.063 -12.824   1.536  1.00  0.00     0.171 C 
HETATM   18  C   UNL     1      41.052 -11.884   2.169  1.00  0.00     0.034 C 
ENDBRANCH  16  17
ENDBRANCH  11  16
ENDBRANCH   7  10
ENDBRANCH   1   6
BRANCH   5  19
HETATM   19  N   UNL     1      43.104 -13.755   5.470  1.00  0.00    -0.382 N 
HETATM   20  H   UNL     1      43.912 -13.387   5.981  1.00  0.00     0.157 HD
HETATM   21  H   UNL     1      42.602 -13.015   4.975  1.00  0.00     0.157 HD
ENDBRANCH   5  19
BRANCH   4  22
HETATM   22  C   UNL     1      44.328 -16.165   6.854  1.00  0.00     0.251 C 
BRANCH  22  23
HETATM   23  C   UNL     1      44.703 -17.509   6.285  1.00  0.00     0.241 C 
HETATM   24  N   UNL     1      43.719 -18.068   5.488  1.00  0.00    -0.326 N 
HETATM   25  H   UNL     1      42.772 -17.721   5.606  1.00  0.00     0.169 HD
HETATM   26  O   UNL     1      45.796 -18.013   6.536  1.00  0.00    -0.271 OA
BRANCH  24  27
HETATM   27  C   UNL     1      43.886 -19.139   4.586  1.00  0.00     0.037 A 
HETATM   28  C   UNL     1      44.399 -20.382   4.958  1.00  0.00     0.072 A 
HETATM   29  C   UNL     1      44.616 -21.363   3.992  1.00  0.00     0.124 A 
HETATM   30  F   UNL     1      45.150 -22.533   4.372  1.00  0.00    -0.205 F 
HETATM   31  C   UNL     1      44.310 -21.145   2.647  1.00  0.00    -0.023 A 
HETATM   32  C   UNL     1      44.600 -22.192   1.617  1.00  0.00     0.051 C 
HETATM   33  C   UNL     1      43.794 -19.900   2.276  1.00  0.00     0.012 A 
HETATM   34  C   UNL     1      43.586 -18.904   3.237  1.00  0.00     0.030 A 
ENDBRANCH  24  27
ENDBRANCH  22  23
ENDBRANCH   4  22
TORSDOF 8
ENDMDL
MODEL 2
REMARK VINA RESULT:      -8.5      2.104      4.509
REMARK  8 active torsions:
REMARK  status: ('A' for Active; 'I' for Inactive)
REMARK    1  A    between atoms: C_2  and  O_3 
REMARK    2  A    between atoms: O_3  and  C_4 
REMARK    3  A    between atoms: C_5  and  N_6 
REMARK       I    between atoms: N_6  and  C_7 
REMARK    4  A    between atoms: C_7  and  C_8 
REMARK    5  A    between atoms: N_11  and  C_12 
REMARK    6  A    between atoms: C_12  and  C_13 
REMARK       I    between atoms: C_13  and  N_14 
REMARK    7  A    between atoms: N_14  and  C_15 
REMARK    8  A    between atoms: C_24  and  N_25 
ROOT
HETATM    1  C   UNL     1      41.156 -14.219   3.778  1.00  0.00     0.187 C 
HETATM    2  N   UNL     1      42.358 -13.677   3.372  1.00  0.00    -0.150 NA
HETATM    3  N   UNL     1      42.619 -14.113   2.147  1.00  0.00     0.007 NA
HETATM    4  N   UNL     1      41.627 -14.961   1.808  1.00  0.00    -0.248 N 
HETATM    5  C   UNL     1      40.625 -14.971   2.743  1.00  0.00     0.151 C 
ENDROOT
BRANCH   1   6
HETATM    6  C   UNL     1      40.568 -13.990   5.082  1.00  0.00     0.280 C 
HETATM    7  N   UNL     1      41.254 -14.337   6.226  1.00  0.00    -0.319 N 
HETATM    8  H   UNL     1      40.923 -13.818   7.027  1.00  0.00     0.169 HD
HETATM    9  O   UNL     1      39.484 -13.412   5.209  1.00  0.00    -0.265 OA
BRANCH   7  10
HETATM   10  C   UNL     1      42.230 -15.326   6.479  1.00  0.00     0.068 A 
HETATM   11  C   UNL     1      43.620 -15.139   6.500  1.00  0.00     0.095 A 
HETATM   12  C   UNL     1      44.485 -16.208   6.769  1.00  0.00     0.039 A 
HETATM   13  C   UNL     1      43.980 -17.492   6.952  1.00  0.00     0.003 A 
HETATM   14  C   UNL     1      42.609 -17.708   6.874  1.00  0.00     0.002 A 
HETATM   15  C   UNL     1      41.742 -16.634   6.635  1.00  0.00     0.032 A 
BRANCH  11  16
HETATM   16  O   UNL     1      44.219 -13.938   6.239  1.00  0.00    -0.349 OA
BRANCH  16  17
HETATM   17  C   UNL     1      45.311 -13.685   7.130  1.00  0.00     0.171 C 
HETATM   18  C   UNL     1      44.765 -12.910   8.316  1.00  0.00     0.034 C 
ENDBRANCH  16  17
ENDBRANCH  11  16
ENDBRANCH   7  10
ENDBRANCH   1   6
BRANCH   5  19
HETATM   19  N   UNL     1      39.470 -15.670   2.607  1.00  0.00    -0.382 N 
HETATM   20  H   UNL     1      39.454 -16.637   2.270  1.00  0.00     0.157 HD
HETATM   21  H   UNL     1      38.628 -15.161   2.330  1.00  0.00     0.157 HD
ENDBRANCH   5  19
BRANCH   4  22
HETATM   22  C   UNL     1      41.803 -15.825   0.669  1.00  0.00     0.251 C 
BRANCH  22  23
HETATM   23  C   UNL     1      41.989 -17.263   1.078  1.00  0.00     0.241 C 
HETATM   24  N   UNL     1      43.300 -17.588   1.382  1.00  0.00    -0.326 N 
HETATM   25  H   UNL     1      44.027 -16.980   1.017  1.00  0.00     0.169 HD
HETATM   26  O   UNL     1      41.030 -18.031   1.123  1.00  0.00    -0.271 OA
BRANCH  24  27
HETATM   27  C   UNL     1      43.734 -18.735   2.079  1.00  0.00     0.037 A 
HETATM   28  C   UNL     1      43.787 -20.005   1.506  1.00  0.00     0.072 A 
HETATM   29  C   UNL     1      44.146 -21.106   2.283  1.00  0.00     0.124 A 
HETATM   30  F   UNL     1      44.147 -22.321   1.716  1.00  0.00    -0.205 F 
HETATM   31  C   UNL     1      44.478 -20.970   3.632  1.00  0.00    -0.023 A 
HETATM   32  C   UNL     1      44.807 -22.171   4.463  1.00  0.00     0.051 C 
HETATM   33  C   UNL     1      44.426 -19.696   4.205  1.00  0.00     0.012 A 
HETATM   34  C   UNL     1      44.054 -18.588   3.435  1.00  0.00     0.030 A 
ENDBRANCH  24  27
ENDBRANCH  22  23
ENDBRANCH   4  22
TORSDOF 8
ENDMDL
MODEL 3
REMARK VINA RESULT:      -8.0      1.699      2.162
REMARK  8 active torsions:
REMARK  status: ('A' for Active; 'I' for Inactive)
REMARK    1  A    between atoms: C_2  and  O_3 
REMARK    2  A    between atoms: O_3  and  C_4 
REMARK    3  A    between atoms: C_5  and  N_6 
REMARK       I    between atoms: N_6  and  C_7 
REMARK    4  A    between atoms: C_7  and  C_8 
REMARK    5  A    between atoms: N_11  and  C_12 
REMARK    6  A    between atoms: C_12  and  C_13 
REMARK       I    between atoms: C_13  and  N_14 
REMARK    7  A    between atoms: N_14  and  C_15 
REMARK    8  A    between atoms: C_24  and  N_25 
ROOT
HETATM    1  C   UNL     1      42.102 -14.539   5.497  1.00  0.00     0.187 C 
HETATM    2  N   UNL     1      41.170 -15.548   5.622  1.00  0.00    -0.150 NA
HETATM    3  N   UNL     1      41.612 -16.414   6.524  1.00  0.00     0.007 NA
HETATM    4  N   UNL     1      42.829 -15.990   6.919  1.00  0.00    -0.248 N 
HETATM    5  C   UNL     1      43.132 -14.758   6.397  1.00  0.00     0.151 C 
ENDROOT
BRANCH   1   6
HETATM    6  C   UNL     1      41.972 -13.431   4.573  1.00  0.00     0.280 C 
HETATM    7  N   UNL     1      41.597 -13.654   3.266  1.00  0.00    -0.319 N 
HETATM    8  H   UNL     1      41.202 -12.824   2.848  1.00  0.00     0.169 HD
HETATM    9  O   UNL     1      42.112 -12.261   4.944  1.00  0.00    -0.265 OA
BRANCH   7  10
HETATM   10  C   UNL     1      41.759 -14.769   2.414  1.00  0.00     0.068 A 
HETATM   11  C   UNL     1      40.742 -15.439   1.717  1.00  0.00     0.095 A 
HETATM   12  C   UNL     1      41.037 -16.536   0.897  1.00  0.00     0.039 A 
HETATM   13  C   UNL     1      42.337 -17.023   0.814  1.00  0.00     0.003 A 
HETATM   14  C   UNL     1      43.347 -16.410   1.546  1.00  0.00     0.002 A 
HETATM   15  C   UNL     1      43.058 -15.295   2.343  1.00  0.00     0.032 A 
BRANCH  11  16
HETATM   16  O   UNL     1      39.421 -15.097   1.805  1.00  0.00    -0.349 OA
BRANCH  16  17
HETATM   17  C   UNL     1      39.003 -14.300   0.691  1.00  0.00     0.171 C 
HETATM   18  C   UNL     1      37.515 -14.042   0.847  1.00  0.00     0.034 C 
ENDBRANCH  16  17
ENDBRANCH  11  16
ENDBRANCH   7  10
ENDBRANCH   1   6
BRANCH   5  19
HETATM   19  N   UNL     1      44.256 -14.064   6.703  1.00  0.00    -0.382 N 
HETATM   20  H   UNL     1      44.600 -13.976   7.664  1.00  0.00     0.157 HD
HETATM   21  H   UNL     1      44.477 -13.235   6.147  1.00  0.00     0.157 HD
ENDBRANCH   5  19
BRANCH   4  22
HETATM   22  C   UNL     1      43.681 -16.890   7.652  1.00  0.00     0.251 C 
BRANCH  22  23
HETATM   23  C   UNL     1      44.418 -17.836   6.738  1.00  0.00     0.241 C 
HETATM   24  N   UNL     1      43.600 -18.781   6.142  1.00  0.00    -0.326 N 
HETATM   25  H   UNL     1      42.704 -18.965   6.583  1.00  0.00     0.169 HD
HETATM   26  O   UNL     1      45.631 -17.730   6.571  1.00  0.00    -0.271 OA
BRANCH  24  27
HETATM   27  C   UNL     1      43.926 -19.581   5.028  1.00  0.00     0.037 A 
HETATM   28  C   UNL     1      43.635 -19.219   3.713  1.00  0.00     0.072 A 
HETATM   29  C   UNL     1      43.911 -20.101   2.670  1.00  0.00     0.124 A 
HETATM   30  F   UNL     1      43.581 -19.744   1.420  1.00  0.00    -0.205 F 
HETATM   31  C   UNL     1      44.497 -21.347   2.902  1.00  0.00    -0.023 A 
HETATM   32  C   UNL     1      44.735 -22.302   1.774  1.00  0.00     0.051 C 
HETATM   33  C   UNL     1      44.790 -21.708   4.220  1.00  0.00     0.012 A 
HETATM   34  C   UNL     1      44.503 -20.834   5.275  1.00  0.00     0.030 A 
ENDBRANCH  24  27
ENDBRANCH  22  23
ENDBRANCH   4  22
TORSDOF 8
ENDMDL
MODEL 4
REMARK VINA RESULT:      -8.0      4.649      7.681
REMARK  8 active torsions:
REMARK  status: ('A' for Active; 'I' for Inactive)
REMARK    1  A    between atoms: C_2  and  O_3 
REMARK    2  A    between atoms: O_3  and  C_4 
REMARK    3  A    between atoms: C_5  and  N_6 
REMARK       I    between atoms: N_6  and  C_7 
REMARK    4  A    between atoms: C_7  and  C_8 
REMARK    5  A    between atoms: N_11  and  C_12 
REMARK    6  A    between atoms: C_12  and  C_13 
REMARK       I    between atoms: C_13  and  N_14 
REMARK    7  A    between atoms: N_14  and  C_15 
REMARK    8  A    between atoms: C_24  and  N_25 
ROOT
HETATM    1  C   UNL     1      42.178 -14.715   5.321  1.00  0.00     0.187 C 
HETATM    2  N   UNL     1      42.821 -13.640   4.744  1.00  0.00    -0.150 NA
HETATM    3  N   UNL     1      43.975 -13.460   5.371  1.00  0.00     0.007 NA
HETATM    4  N   UNL     1      44.034 -14.370   6.364  1.00  0.00    -0.248 N 
HETATM    5  C   UNL     1      42.991 -15.257   6.302  1.00  0.00     0.151 C 
ENDROOT
BRANCH   1   6
HETATM    6  C   UNL     1      40.868 -15.184   4.916  1.00  0.00     0.280 C 
HETATM    7  N   UNL     1      40.734 -16.382   4.247  1.00  0.00    -0.319 N 
HETATM    8  H   UNL     1      39.801 -16.757   4.346  1.00  0.00     0.169 HD
HETATM    9  O   UNL     1      39.839 -14.575   5.225  1.00  0.00    -0.265 OA
BRANCH   7  10
HETATM   10  C   UNL     1      41.610 -17.094   3.399  1.00  0.00     0.068 A 
HETATM   11  C   UNL     1      42.488 -18.120   3.780  1.00  0.00     0.095 A 
HETATM   12  C   UNL     1      43.307 -18.751   2.834  1.00  0.00     0.039 A 
HETATM   13  C   UNL     1      43.313 -18.323   1.510  1.00  0.00     0.003 A 
HETATM   14  C   UNL     1      42.494 -17.267   1.128  1.00  0.00     0.002 A 
HETATM   15  C   UNL     1      41.653 -16.655   2.066  1.00  0.00     0.032 A 
BRANCH  11  16
HETATM   16  O   UNL     1      42.626 -18.549   5.070  1.00  0.00    -0.349 OA
BRANCH  16  17
HETATM   17  C   UNL     1      43.851 -19.264   5.264  1.00  0.00     0.171 C 
HETATM   18  C   UNL     1      43.765 -19.962   6.610  1.00  0.00     0.034 C 
ENDBRANCH  16  17
ENDBRANCH  11  16
ENDBRANCH   7  10
ENDBRANCH   1   6
BRANCH   5  19
HETATM   19  N   UNL     1      42.857 -16.324   7.129  1.00  0.00    -0.382 N 
HETATM   20  H   UNL     1      43.664 -16.794   7.551  1.00  0.00     0.157 HD
HETATM   21  H   UNL     1      42.092 -16.978   6.952  1.00  0.00     0.157 HD
ENDBRANCH   5  19
BRANCH   4  22
HETATM   22  C   UNL     1      45.021 -14.212   7.401  1.00  0.00     0.251 C 
BRANCH  22  23
HETATM   23  C   UNL     1      44.971 -12.838   8.019  1.00  0.00     0.241 C 
HETATM   24  N   UNL     1      43.702 -12.454   8.417  1.00  0.00    -0.326 N 
HETATM   25  H   UNL     1      42.915 -12.941   7.997  1.00  0.00     0.169 HD
HETATM   26  O   UNL     1      45.993 -12.166   8.135  1.00  0.00    -0.271 OA
BRANCH  24  27
HETATM   27  C   UNL     1      43.387 -11.390   9.287  1.00  0.00     0.037 A 
HETATM   28  C   UNL     1      44.030 -11.182  10.507  1.00  0.00     0.072 A 
HETATM   29  C   UNL     1      43.606 -10.158  11.353  1.00  0.00     0.124 A 
HETATM   30  F   UNL     1      44.215 -10.009  12.538  1.00  0.00    -0.205 F 
HETATM   31  C   UNL     1      42.556  -9.309  11.001  1.00  0.00    -0.023 A 
HETATM   32  C   UNL     1      42.079  -8.250  11.947  1.00  0.00     0.051 C 
HETATM   33  C   UNL     1      41.913  -9.517   9.777  1.00  0.00     0.012 A 
HETATM   34  C   UNL     1      42.324 -10.551   8.929  1.00  0.00     0.030 A 
ENDBRANCH  24  27
ENDBRANCH  22  23
ENDBRANCH   4  22
TORSDOF 8
ENDMDL
MODEL 5
REMARK VINA RESULT:      -7.9      4.670      7.198
REMARK  8 active torsions:
REMARK  status: ('A' for Active; 'I' for Inactive)
REMARK    1  A    between atoms: C_2  and  O_3 
REMARK    2  A    between atoms: O_3  and  C_4 
REMARK    3  A    between atoms: C_5  and  N_6 
REMARK       I    between atoms: N_6  and  C_7 
REMARK    4  A    between atoms: C_7  and  C_8 
REMARK    5  A    between atoms: N_11  and  C_12 
REMARK    6  A    between atoms: C_12  and  C_13 
REMARK       I    between atoms: C_13  and  N_14 
REMARK    7  A    between atoms: N_14  and  C_15 
REMARK    8  A    between atoms: C_24  and  N_25 
ROOT
HETATM    1  C   UNL     1      42.110 -15.339   5.840  1.00  0.00     0.187 C 
HETATM    2  N   UNL     1      42.536 -16.178   6.849  1.00  0.00    -0.150 NA
HETATM    3  N   UNL     1      43.642 -15.669   7.374  1.00  0.00     0.007 NA
HETATM    4  N   UNL     1      43.942 -14.558   6.671  1.00  0.00    -0.248 N 
HETATM    5  C   UNL     1      42.951 -14.240   5.778  1.00  0.00     0.151 C 
ENDROOT
BRANCH   1   6
HETATM    6  C   UNL     1      40.946 -15.595   5.016  1.00  0.00     0.280 C 
HETATM    7  N   UNL     1      40.983 -16.570   4.042  1.00  0.00    -0.319 N 
HETATM    8  H   UNL     1      40.055 -16.889   3.804  1.00  0.00     0.169 HD
HETATM    9  O   UNL     1      39.876 -15.012   5.212  1.00  0.00    -0.265 OA
BRANCH   7  10
HETATM   10  C   UNL     1      42.045 -17.102   3.278  1.00  0.00     0.068 A 
HETATM   11  C   UNL     1      42.619 -16.526   2.134  1.00  0.00     0.095 A 
HETATM   12  C   UNL     1      43.676 -17.158   1.466  1.00  0.00     0.039 A 
HETATM   13  C   UNL     1      44.131 -18.404   1.888  1.00  0.00     0.003 A 
HETATM   14  C   UNL     1      43.533 -19.017   2.983  1.00  0.00     0.002 A 
HETATM   15  C   UNL     1      42.496 -18.372   3.669  1.00  0.00     0.032 A 
BRANCH  11  16
HETATM   16  O   UNL     1      42.182 -15.353   1.585  1.00  0.00    -0.349 OA
BRANCH  16  17
HETATM   17  C   UNL     1      41.189 -15.575   0.578  1.00  0.00     0.171 C 
HETATM   18  C   UNL     1      39.959 -14.773   0.964  1.00  0.00     0.034 C 
ENDBRANCH  16  17
ENDBRANCH  11  16
ENDBRANCH   7  10
ENDBRANCH   1   6
BRANCH   5  19
HETATM   19  N   UNL     1      42.958 -13.124   5.007  1.00  0.00    -0.382 N 
HETATM   20  H   UNL     1      43.244 -12.210   5.372  1.00  0.00     0.157 HD
HETATM   21  H   UNL     1      42.244 -13.033   4.283  1.00  0.00     0.157 HD
ENDBRANCH   5  19
BRANCH   4  22
HETATM   22  C   UNL     1      45.251 -13.974   6.808  1.00  0.00     0.251 C 
BRANCH  22  23
HETATM   23  C   UNL     1      45.281 -12.908   7.874  1.00  0.00     0.241 C 
HETATM   24  N   UNL     1      44.032 -12.594   8.380  1.00  0.00    -0.326 N 
HETATM   25  H   UNL     1      43.225 -12.839   7.814  1.00  0.00     0.169 HD
HETATM   26  O   UNL     1      46.345 -12.401   8.223  1.00  0.00    -0.271 OA
BRANCH  24  27
HETATM   27  C   UNL     1      43.770 -11.886   9.572  1.00  0.00     0.037 A 
HETATM   28  C   UNL     1      43.137 -10.643   9.600  1.00  0.00     0.072 A 
HETATM   29  C   UNL     1      42.990  -9.965  10.809  1.00  0.00     0.124 A 
HETATM   30  F   UNL     1      42.416  -8.752  10.801  1.00  0.00    -0.205 F 
HETATM   31  C   UNL     1      43.443 -10.509  12.012  1.00  0.00    -0.023 A 
HETATM   32  C   UNL     1      43.324  -9.740  13.292  1.00  0.00     0.051 C 
HETATM   33  C   UNL     1      44.075 -11.755  11.982  1.00  0.00     0.012 A 
HETATM   34  C   UNL     1      44.240 -12.437  10.771  1.00  0.00     0.030 A 
ENDBRANCH  24  27
ENDBRANCH  22  23
ENDBRANCH   4  22
TORSDOF 8
ENDMDL
MODEL 6
REMARK VINA RESULT:      -7.8      4.857      7.782
REMARK  8 active torsions:
REMARK  status: ('A' for Active; 'I' for Inactive)
REMARK    1  A    between atoms: C_2  and  O_3 
REMARK    2  A    between atoms: O_3  and  C_4 
REMARK    3  A    between atoms: C_5  and  N_6 
REMARK       I    between atoms: N_6  and  C_7 
REMARK    4  A    between atoms: C_7  and  C_8 
REMARK    5  A    between atoms: N_11  and  C_12 
REMARK    6  A    between atoms: C_12  and  C_13 
REMARK       I    between atoms: C_13  and  N_14 
REMARK    7  A    between atoms: N_14  and  C_15 
REMARK    8  A    between atoms: C_24  and  N_25 
ROOT
HETATM    1  C   UNL     1      42.696 -15.740   6.312  1.00  0.00     0.187 C 
HETATM    2  N   UNL     1      43.232 -16.277   7.464  1.00  0.00    -0.150 NA
HETATM    3  N   UNL     1      44.204 -15.479   7.883  1.00  0.00     0.007 NA
HETATM    4  N   UNL     1      44.319 -14.484   6.980  1.00  0.00    -0.248 N 
HETATM    5  C   UNL     1      43.321 -14.533   6.041  1.00  0.00     0.151 C 
ENDROOT
BRANCH   1   6
HETATM    6  C   UNL     1      41.632 -16.361   5.551  1.00  0.00     0.280 C 
HETATM    7  N   UNL     1      41.738 -17.676   5.151  1.00  0.00    -0.319 N 
HETATM    8  H   UNL     1      40.831 -18.080   4.966  1.00  0.00     0.169 HD
HETATM    9  O   UNL     1      40.577 -15.766   5.311  1.00  0.00    -0.265 OA
BRANCH   7  10
HETATM   10  C   UNL     1      42.857 -18.490   4.869  1.00  0.00     0.068 A 
HETATM   11  C   UNL     1      43.578 -18.527   3.666  1.00  0.00     0.095 A 
HETATM   12  C   UNL     1      44.678 -19.382   3.515  1.00  0.00     0.039 A 
HETATM   13  C   UNL     1      45.032 -20.261   4.534  1.00  0.00     0.003 A 
HETATM   14  C   UNL     1      44.290 -20.282   5.709  1.00  0.00     0.002 A 
HETATM   15  C   UNL     1      43.209 -19.406   5.873  1.00  0.00     0.032 A 
BRANCH  11  16
HETATM   16  O   UNL     1      43.254 -17.772   2.574  1.00  0.00    -0.349 OA
BRANCH  16  17
HETATM   17  C   UNL     1      42.376 -18.472   1.686  1.00  0.00     0.171 C 
HETATM   18  C   UNL     1      41.195 -17.561   1.398  1.00  0.00     0.034 C 
ENDBRANCH  16  17
ENDBRANCH  11  16
ENDBRANCH   7  10
ENDBRANCH   1   6
BRANCH   5  19
HETATM   19  N   UNL     1      43.150 -13.601   5.070  1.00  0.00    -0.382 N 
HETATM   20  H   UNL     1      43.247 -12.598   5.253  1.00  0.00     0.157 HD
HETATM   21  H   UNL     1      42.459 -13.786   4.341  1.00  0.00     0.157 HD
ENDBRANCH   5  19
BRANCH   4  22
HETATM   22  C   UNL     1      45.491 -13.647   7.004  1.00  0.00     0.251 C 
BRANCH  22  23
HETATM   23  C   UNL     1      45.407 -12.593   8.078  1.00  0.00     0.241 C 
HETATM   24  N   UNL     1      44.135 -12.435   8.601  1.00  0.00    -0.326 N 
HETATM   25  H   UNL     1      43.356 -12.770   8.042  1.00  0.00     0.169 HD
HETATM   26  O   UNL     1      46.407 -11.966   8.420  1.00  0.00    -0.271 OA
BRANCH  24  27
HETATM   27  C   UNL     1      43.804 -11.771   9.801  1.00  0.00     0.037 A 
HETATM   28  C   UNL     1      43.268 -10.484   9.843  1.00  0.00     0.072 A 
HETATM   29  C   UNL     1      43.047  -9.861  11.070  1.00  0.00     0.124 A 
HETATM   30  F   UNL     1      42.570  -8.608  11.078  1.00  0.00    -0.205 F 
HETATM   31  C   UNL     1      43.330 -10.503  12.277  1.00  0.00    -0.023 A 
HETATM   32  C   UNL     1      43.137  -9.796  13.583  1.00  0.00     0.051 C 
HETATM   33  C   UNL     1      43.866 -11.793  12.234  1.00  0.00     0.012 A 
HETATM   34  C   UNL     1      44.104 -12.421  11.006  1.00  0.00     0.030 A 
ENDBRANCH  24  27
ENDBRANCH  22  23
ENDBRANCH   4  22
TORSDOF 8
ENDMDL
MODEL 7
REMARK VINA RESULT:      -7.7      4.523      7.500
REMARK  8 active torsions:
REMARK  status: ('A' for Active; 'I' for Inactive)
REMARK    1  A    between atoms: C_2  and  O_3 
REMARK    2  A    between atoms: O_3  and  C_4 
REMARK    3  A    between atoms: C_5  and  N_6 
REMARK       I    between atoms: N_6  and  C_7 
REMARK    4  A    between atoms: C_7  and  C_8 
REMARK    5  A    between atoms: N_11  and  C_12 
REMARK    6  A    between atoms: C_12  and  C_13 
REMARK       I    between atoms: C_13  and  N_14 
REMARK    7  A    between atoms: N_14  and  C_15 
REMARK    8  A    between atoms: C_24  and  N_25 
ROOT
HETATM    1  C   UNL     1      41.527 -15.327   5.763  1.00  0.00     0.187 C 
HETATM    2  N   UNL     1      42.864 -14.989   5.755  1.00  0.00    -0.150 NA
HETATM    3  N   UNL     1      42.959 -13.667   5.746  1.00  0.00     0.007 NA
HETATM    4  N   UNL     1      41.704 -13.178   5.692  1.00  0.00    -0.248 N 
HETATM    5  C   UNL     1      40.767 -14.171   5.821  1.00  0.00     0.151 C 
ENDROOT
BRANCH   1   6
HETATM    6  C   UNL     1      41.040 -16.691   5.738  1.00  0.00     0.280 C 
HETATM    7  N   UNL     1      41.541 -17.594   4.825  1.00  0.00    -0.319 N 
HETATM    8  H   UNL     1      41.405 -18.546   5.134  1.00  0.00     0.169 HD
HETATM    9  O   UNL     1      40.231 -17.103   6.575  1.00  0.00    -0.265 OA
BRANCH   7  10
HETATM   10  C   UNL     1      42.098 -17.425   3.538  1.00  0.00     0.068 A 
HETATM   11  C   UNL     1      41.454 -16.881   2.417  1.00  0.00     0.095 A 
HETATM   12  C   UNL     1      42.123 -16.765   1.191  1.00  0.00     0.039 A 
HETATM   13  C   UNL     1      43.419 -17.250   1.048  1.00  0.00     0.003 A 
HETATM   14  C   UNL     1      44.051 -17.849   2.132  1.00  0.00     0.002 A 
HETATM   15  C   UNL     1      43.393 -17.938   3.365  1.00  0.00     0.032 A 
BRANCH  11  16
HETATM   16  O   UNL     1      40.153 -16.462   2.429  1.00  0.00    -0.349 OA
BRANCH  16  17
HETATM   17  C   UNL     1      40.051 -15.041   2.284  1.00  0.00     0.171 C 
HETATM   18  C   UNL     1      38.732 -14.744   1.592  1.00  0.00     0.034 C 
ENDBRANCH  16  17
ENDBRANCH  11  16
ENDBRANCH   7  10
ENDBRANCH   1   6
BRANCH   5  19
HETATM   19  N   UNL     1      39.431 -13.945   5.886  1.00  0.00    -0.382 N 
HETATM   20  H   UNL     1      38.872 -14.207   6.704  1.00  0.00     0.157 HD
HETATM   21  H   UNL     1      38.888 -14.010   5.023  1.00  0.00     0.157 HD
ENDBRANCH   5  19
BRANCH   4  22
HETATM   22  C   UNL     1      41.505 -11.792   5.356  1.00  0.00     0.251 C 
BRANCH  22  23
HETATM   23  C   UNL     1      41.673 -10.894   6.554  1.00  0.00     0.241 C 
HETATM   24  N   UNL     1      41.871 -11.581   7.739  1.00  0.00    -0.326 N 
HETATM   25  H   UNL     1      41.580 -12.554   7.767  1.00  0.00     0.169 HD
HETATM   26  O   UNL     1      41.632  -9.671   6.432  1.00  0.00    -0.271 OA
BRANCH  24  27
HETATM   27  C   UNL     1      42.359 -11.038   8.946  1.00  0.00     0.037 A 
HETATM   28  C   UNL     1      43.691 -11.141   9.348  1.00  0.00     0.072 A 
HETATM   29  C   UNL     1      44.081 -10.654  10.595  1.00  0.00     0.124 A 
HETATM   30  F   UNL     1      45.359 -10.805  10.973  1.00  0.00    -0.205 F 
HETATM   31  C   UNL     1      43.171 -10.038  11.456  1.00  0.00    -0.023 A 
HETATM   32  C   UNL     1      43.599  -9.571  12.813  1.00  0.00     0.051 C 
HETATM   33  C   UNL     1      41.838  -9.935  11.051  1.00  0.00     0.012 A 
HETATM   34  C   UNL     1      41.434 -10.433   9.807  1.00  0.00     0.030 A 
ENDBRANCH  24  27
ENDBRANCH  22  23
ENDBRANCH   4  22
TORSDOF 8
ENDMDL
MODEL 8
REMARK VINA RESULT:      -7.7      2.771      6.227
REMARK  8 active torsions:
REMARK  status: ('A' for Active; 'I' for Inactive)
REMARK    1  A    between atoms: C_2  and  O_3 
REMARK    2  A    between atoms: O_3  and  C_4 
REMARK    3  A    between atoms: C_5  and  N_6 
REMARK       I    between atoms: N_6  and  C_7 
REMARK    4  A    between atoms: C_7  and  C_8 
REMARK    5  A    between atoms: N_11  and  C_12 
REMARK    6  A    between atoms: C_12  and  C_13 
REMARK       I    between atoms: C_13  and  N_14 
REMARK    7  A    between atoms: N_14  and  C_15 
REMARK    8  A    between atoms: C_24  and  N_25 
ROOT
HETATM    1  C   UNL     1      41.621 -15.431   5.558  1.00  0.00     0.187 C 
HETATM    2  N   UNL     1      42.949 -15.146   5.318  1.00  0.00    -0.150 NA
HETATM    3  N   UNL     1      43.068 -13.837   5.140  1.00  0.00     0.007 NA
HETATM    4  N   UNL     1      41.829 -13.312   5.209  1.00  0.00    -0.248 N 
HETATM    5  C   UNL     1      40.901 -14.247   5.587  1.00  0.00     0.151 C 
ENDROOT
BRANCH   1   6
HETATM    6  C   UNL     1      41.107 -16.769   5.764  1.00  0.00     0.280 C 
HETATM    7  N   UNL     1      41.646 -17.836   5.077  1.00  0.00    -0.319 N 
HETATM    8  H   UNL     1      41.470 -18.709   5.554  1.00  0.00     0.169 HD
HETATM    9  O   UNL     1      40.239 -17.004   6.610  1.00  0.00    -0.265 OA
BRANCH   7  10
HETATM   10  C   UNL     1      42.285 -17.924   3.821  1.00  0.00     0.068 A 
HETATM   11  C   UNL     1      43.621 -18.287   3.591  1.00  0.00     0.095 A 
HETATM   12  C   UNL     1      44.136 -18.340   2.288  1.00  0.00     0.039 A 
HETATM   13  C   UNL     1      43.347 -17.966   1.204  1.00  0.00     0.003 A 
HETATM   14  C   UNL     1      42.040 -17.545   1.420  1.00  0.00     0.002 A 
HETATM   15  C   UNL     1      41.516 -17.521   2.719  1.00  0.00     0.032 A 
BRANCH  11  16
HETATM   16  O   UNL     1      44.503 -18.581   4.593  1.00  0.00    -0.349 OA
BRANCH  16  17
HETATM   17  C   UNL     1      44.700 -19.992   4.731  1.00  0.00     0.171 C 
HETATM   18  C   UNL     1      44.131 -20.404   6.077  1.00  0.00     0.034 C 
ENDBRANCH  16  17
ENDBRANCH  11  16
ENDBRANCH   7  10
ENDBRANCH   1   6
BRANCH   5  19
HETATM   19  N   UNL     1      39.594 -13.966   5.816  1.00  0.00    -0.382 N 
HETATM   20  H   UNL     1      38.988 -14.588   6.360  1.00  0.00     0.157 HD
HETATM   21  H   UNL     1      39.072 -13.473   5.089  1.00  0.00     0.157 HD
ENDBRANCH   5  19
BRANCH   4  22
HETATM   22  C   UNL     1      41.612 -11.966   4.743  1.00  0.00     0.251 C 
BRANCH  22  23
HETATM   23  C   UNL     1      41.174 -11.934   3.302  1.00  0.00     0.241 C 
HETATM   24  N   UNL     1      42.166 -12.313   2.413  1.00  0.00    -0.326 N 
HETATM   25  H   UNL     1      43.126 -12.265   2.739  1.00  0.00     0.169 HD
HETATM   26  O   UNL     1      40.031 -11.598   3.001  1.00  0.00    -0.271 OA
BRANCH  24  27
HETATM   27  C   UNL     1      41.980 -12.678   1.063  1.00  0.00     0.037 A 
HETATM   28  C   UNL     1      41.590 -13.956   0.662  1.00  0.00     0.072 A 
HETATM   29  C   UNL     1      41.510 -14.266  -0.695  1.00  0.00     0.124 A 
HETATM   30  F   UNL     1      41.174 -15.515  -1.051  1.00  0.00    -0.205 F 
HETATM   31  C   UNL     1      41.792 -13.316  -1.679  1.00  0.00    -0.023 A 
HETATM   32  C   UNL     1      41.753 -13.684  -3.130  1.00  0.00     0.051 C 
HETATM   33  C   UNL     1      42.180 -12.036  -1.275  1.00  0.00     0.012 A 
HETATM   34  C   UNL     1      42.276 -11.720   0.085  1.00  0.00     0.030 A 
ENDBRANCH  24  27
ENDBRANCH  22  23
ENDBRANCH   4  22
TORSDOF 8
ENDMDL
MODEL 9
REMARK VINA RESULT:      -7.6      2.295      4.770
REMARK  8 active torsions:
REMARK  status: ('A' for Active; 'I' for Inactive)
REMARK    1  A    between atoms: C_2  and  O_3 
REMARK    2  A    between atoms: O_3  and  C_4 
REMARK    3  A    between atoms: C_5  and  N_6 
REMARK       I    between atoms: N_6  and  C_7 
REMARK    4  A    between atoms: C_7  and  C_8 
REMARK    5  A    between atoms: N_11  and  C_12 
REMARK    6  A    between atoms: C_12  and  C_13 
REMARK       I    between atoms: C_13  and  N_14 
REMARK    7  A    between atoms: N_14  and  C_15 
REMARK    8  A    between atoms: C_24  and  N_25 
ROOT
HETATM    1  C   UNL     1      41.061 -13.523   3.179  1.00  0.00     0.187 C 
HETATM    2  N   UNL     1      42.267 -13.074   2.684  1.00  0.00    -0.150 NA
HETATM    3  N   UNL     1      42.508 -13.704   1.542  1.00  0.00     0.007 NA
HETATM    4  N   UNL     1      41.499 -14.577   1.349  1.00  0.00    -0.248 N 
HETATM    5  C   UNL     1      40.506 -14.421   2.281  1.00  0.00     0.151 C 
ENDROOT
BRANCH   1   6
HETATM    6  C   UNL     1      40.489 -13.080   4.435  1.00  0.00     0.280 C 
HETATM    7  N   UNL     1      41.225 -13.151   5.598  1.00  0.00    -0.319 N 
HETATM    8  H   UNL     1      40.877 -12.506   6.294  1.00  0.00     0.169 HD
HETATM    9  O   UNL     1      39.371 -12.558   4.487  1.00  0.00    -0.265 OA
BRANCH   7  10
HETATM   10  C   UNL     1      42.272 -14.007   6.003  1.00  0.00     0.068 A 
HETATM   11  C   UNL     1      42.154 -15.361   6.351  1.00  0.00     0.095 A 
HETATM   12  C   UNL     1      43.279 -16.104   6.733  1.00  0.00     0.039 A 
HETATM   13  C   UNL     1      44.524 -15.493   6.840  1.00  0.00     0.003 A 
HETATM   14  C   UNL     1      44.648 -14.137   6.559  1.00  0.00     0.002 A 
HETATM   15  C   UNL     1      43.530 -13.400   6.147  1.00  0.00     0.032 A 
BRANCH  11  16
HETATM   16  O   UNL     1      40.962 -16.030   6.369  1.00  0.00    -0.349 OA
BRANCH  16  17
HETATM   17  C   UNL     1      41.133 -17.427   6.106  1.00  0.00     0.171 C 
HETATM   18  C   UNL     1      40.792 -17.663   4.646  1.00  0.00     0.034 C 
ENDBRANCH  16  17
ENDBRANCH  11  16
ENDBRANCH   7  10
ENDBRANCH   1   6
BRANCH   5  19
HETATM   19  N   UNL     1      39.340 -15.112   2.266  1.00  0.00    -0.382 N 
HETATM   20  H   UNL     1      39.076 -15.756   3.019  1.00  0.00     0.157 HD
HETATM   21  H   UNL     1      38.972 -15.418   1.364  1.00  0.00     0.157 HD
ENDBRANCH   5  19
BRANCH   4  22
HETATM   22  C   UNL     1      41.650 -15.614   0.361  1.00  0.00     0.251 C 
BRANCH  22  23
HETATM   23  C   UNL     1      41.843 -16.969   0.992  1.00  0.00     0.241 C 
HETATM   24  N   UNL     1      43.143 -17.207   1.406  1.00  0.00    -0.326 N 
HETATM   25  H   UNL     1      43.875 -16.641   0.989  1.00  0.00     0.169 HD
HETATM   26  O   UNL     1      40.899 -17.748   1.107  1.00  0.00    -0.271 OA
BRANCH  24  27
HETATM   27  C   UNL     1      43.563 -18.223   2.290  1.00  0.00     0.037 A 
HETATM   28  C   UNL     1      43.974 -17.977   3.600  1.00  0.00     0.072 A 
HETATM   29  C   UNL     1      44.457 -19.022   4.386  1.00  0.00     0.124 A 
HETATM   30  F   UNL     1      44.886 -18.749   5.627  1.00  0.00    -0.205 F 
HETATM   31  C   UNL     1      44.523 -20.330   3.902  1.00  0.00    -0.023 A 
HETATM   32  C   UNL     1      45.096 -21.428   4.743  1.00  0.00     0.051 C 
HETATM   33  C   UNL     1      44.109 -20.575   2.590  1.00  0.00     0.012 A 
HETATM   34  C   UNL     1      43.635 -19.530   1.789  1.00  0.00     0.030 A 
ENDBRANCH  24  27
ENDBRANCH  22  23
ENDBRANCH   4  22
TORSDOF 8
ENDMDL
MODEL 10
REMARK VINA RESULT:      -7.6      2.473      3.285
REMARK  8 active torsions:
REMARK  status: ('A' for Active; 'I' for Inactive)
REMARK    1  A    between atoms: C_2  and  O_3 
REMARK    2  A    between atoms: O_3  and  C_4 
REMARK    3  A    between atoms: C_5  and  N_6 
REMARK       I    between atoms: N_6  and  C_7 
REMARK    4  A    between atoms: C_7  and  C_8 
REMARK    5  A    between atoms: N_11  and  C_12 
REMARK    6  A    between atoms: C_12  and  C_13 
REMARK       I    between atoms: C_13  and  N_14 
REMARK    7  A    between atoms: N_14  and  C_15 
REMARK    8  A    between atoms: C_24  and  N_25 
ROOT
HETATM    1  C   UNL     1      39.668 -12.768   3.829  1.00  0.00     0.187 C 
HETATM    2  N   UNL     1      39.261 -13.565   4.879  1.00  0.00    -0.150 NA
HETATM    3  N   UNL     1      40.227 -13.580   5.787  1.00  0.00     0.007 NA
HETATM    4  N   UNL     1      41.249 -12.853   5.294  1.00  0.00    -0.248 N 
HETATM    5  C   UNL     1      40.906 -12.223   4.125  1.00  0.00     0.151 C 
ENDROOT
BRANCH   1   6
HETATM    6  C   UNL     1      38.881 -12.545   2.633  1.00  0.00     0.280 C 
HETATM    7  N   UNL     1      38.752 -13.541   1.688  1.00  0.00    -0.319 N 
HETATM    8  H   UNL     1      37.928 -13.407   1.121  1.00  0.00     0.169 HD
HETATM    9  O   UNL     1      38.243 -11.501   2.465  1.00  0.00    -0.265 OA
BRANCH   7  10
HETATM   10  C   UNL     1      39.596 -14.613   1.325  1.00  0.00     0.068 A 
HETATM   11  C   UNL     1      40.502 -14.635   0.254  1.00  0.00     0.095 A 
HETATM   12  C   UNL     1      41.289 -15.767   0.002  1.00  0.00     0.039 A 
HETATM   13  C   UNL     1      41.135 -16.916   0.771  1.00  0.00     0.003 A 
HETATM   14  C   UNL     1      40.198 -16.933   1.798  1.00  0.00     0.002 A 
HETATM   15  C   UNL     1      39.433 -15.792   2.070  1.00  0.00     0.032 A 
BRANCH  11  16
HETATM   16  O   UNL     1      40.660 -13.593  -0.617  1.00  0.00    -0.349 OA
BRANCH  16  17
HETATM   17  C   UNL     1      41.984 -13.051  -0.563  1.00  0.00     0.171 C 
HETATM   18  C   UNL     1      42.423 -12.773  -1.989  1.00  0.00     0.034 C 
ENDBRANCH  16  17
ENDBRANCH  11  16
ENDBRANCH   7  10
ENDBRANCH   1   6
BRANCH   5  19
HETATM   19  N   UNL     1      41.719 -11.361   3.465  1.00  0.00    -0.382 N 
HETATM   20  H   UNL     1      41.352 -10.595   2.891  1.00  0.00     0.157 HD
HETATM   21  H   UNL     1      42.603 -11.717   3.096  1.00  0.00     0.157 HD
ENDBRANCH   5  19
BRANCH   4  22
HETATM   22  C   UNL     1      42.544 -12.951   5.917  1.00  0.00     0.251 C 
BRANCH  22  23
HETATM   23  C   UNL     1      43.188 -14.290   5.665  1.00  0.00     0.241 C 
HETATM   24  N   UNL     1      42.435 -15.124   4.856  1.00  0.00    -0.326 N 
HETATM   25  H   UNL     1      41.443 -14.921   4.773  1.00  0.00     0.169 HD
HETATM   26  O   UNL     1      44.281 -14.562   6.155  1.00  0.00    -0.271 OA
BRANCH  24  27
HETATM   27  C   UNL     1      42.894 -16.285   4.199  1.00  0.00     0.037 A 
HETATM   28  C   UNL     1      43.666 -16.254   3.038  1.00  0.00     0.072 A 
HETATM   29  C   UNL     1      44.010 -17.444   2.398  1.00  0.00     0.124 A 
HETATM   30  F   UNL     1      44.716 -17.381   1.260  1.00  0.00    -0.205 F 
HETATM   31  C   UNL     1      43.618 -18.684   2.903  1.00  0.00    -0.023 A 
HETATM   32  C   UNL     1      43.951 -19.948   2.172  1.00  0.00     0.051 C 
HETATM   33  C   UNL     1      42.846 -18.714   4.068  1.00  0.00     0.012 A 
HETATM   34  C   UNL     1      42.484 -17.524   4.709  1.00  0.00     0.030 A 
ENDBRANCH  24  27
ENDBRANCH  22  23
ENDBRANCH   4  22
TORSDOF 8
ENDMDL
