MODEL 1
REMARK VINA RESULT:      -8.7      0.000      0.000
REMARK  5 active torsions:
REMARK  status: ('A' for Active; 'I' for Inactive)
REMARK    1  A    between atoms: C_9  and  C_10 
REMARK       I    between atoms: C_10  and  N_11 
REMARK    2  A    between atoms: N_11  and  C_12 
REMARK    3  A    between atoms: C_15  and  N_16 
REMARK       I    between atoms: N_16  and  C_17 
REMARK       I    between atoms: C_17  and  N_18 
REMARK    4  A    between atoms: N_18  and  C_19 
REMARK    5  A    between atoms: C_19  and  C_20 
ROOT
HETATM    1  C   UNL     1      41.319 -16.168   2.095  1.00  0.00     0.035 A 
HETATM    2  C   UNL     1      41.631 -15.836   0.778  1.00  0.00     0.032 A 
HETATM    3  C   UNL     1      40.800 -14.980   0.038  1.00  0.00     0.032 A 
HETATM    4  C   UNL     1      39.630 -14.465   0.592  1.00  0.00     0.036 A 
HETATM    5  C   UNL     1      39.325 -14.793   1.918  1.00  0.00     0.032 A 
HETATM    6  C   UNL     1      40.161 -15.633   2.663  1.00  0.00     0.032 A 
ENDROOT
BRANCH   1   7
HETATM    7  N   UNL     1      42.118 -16.985   2.909  1.00  0.00    -0.322 N 
HETATM    8  C   UNL     1      43.166 -16.622   3.735  1.00  0.00     0.277 C 
HETATM    9  O   UNL     1      43.639 -15.497   3.857  1.00  0.00    -0.266 OA
HETATM   10  H   UNL     1      41.922 -17.983   2.931  1.00  0.00     0.169 HD
BRANCH   8  11
HETATM   11  C   UNL     1      43.689 -17.781   4.486  1.00  0.00     0.157 A 
HETATM   12  C   UNL     1      43.950 -19.093   3.992  1.00  0.00     0.029 A 
HETATM   13  C   UNL     1      43.817 -19.759   2.756  1.00  0.00     0.023 A 
HETATM   14  C   UNL     1      44.456 -19.794   5.078  1.00  0.00     0.063 A 
HETATM   15  C   UNL     1      44.199 -21.107   2.652  1.00  0.00    -0.061 A 
HETATM   16  C   UNL     1      44.052 -21.842   1.351  1.00  0.00     0.048 C 
HETATM   17  C   UNL     1      44.710 -21.776   3.772  1.00  0.00     0.009 A 
HETATM   18  C   UNL     1      44.850 -21.133   5.008  1.00  0.00     0.032 A 
HETATM   19  N   UNL     1      44.459 -18.903   6.115  1.00  0.00    -0.277 N 
HETATM   20  H   UNL     1      44.768 -19.072   7.065  1.00  0.00     0.189 HD
HETATM   21  N   UNL     1      43.990 -17.681   5.802  1.00  0.00    -0.168 NA
ENDBRANCH   8  11
ENDBRANCH   1   7
BRANCH   4  22
HETATM   22  N   UNL     1      38.742 -13.587  -0.057  1.00  0.00    -0.309 N 
HETATM   23  C   UNL     1      38.113 -13.600  -1.263  1.00  0.00     0.320 C 
HETATM   24  N   UNL     1      38.106 -14.757  -1.973  1.00  0.00    -0.339 N 
HETATM   25  O   UNL     1      37.548 -12.577  -1.646  1.00  0.00    -0.247 OA
HETATM   26  H   UNL     1      38.046 -15.585  -1.400  1.00  0.00     0.164 HD
HETATM   27  H   UNL     1      38.550 -12.716   0.421  1.00  0.00     0.170 HD
BRANCH  24  28
HETATM   28  C   UNL     1      37.389 -14.823  -3.224  1.00  0.00     0.150 C 
BRANCH  28  29
HETATM   29  C   UNL     1      38.170 -15.593  -4.244  1.00  0.00    -0.018 C 
HETATM   30  C   UNL     1      39.299 -16.287  -4.040  1.00  0.00     0.008 C 
ENDBRANCH  28  29
ENDBRANCH  24  28
ENDBRANCH   4  22
TORSDOF 5
ENDMDL
MODEL 2
REMARK VINA RESULT:      -8.3      3.472      9.498
REMARK  5 active torsions:
REMARK  status: ('A' for Active; 'I' for Inactive)
REMARK    1  A    between atoms: C_9  and  C_10 
REMARK       I    between atoms: C_10  and  N_11 
REMARK    2  A    between atoms: N_11  and  C_12 
REMARK    3  A    between atoms: C_15  and  N_16 
REMARK       I    between atoms: N_16  and  C_17 
REMARK       I    between atoms: C_17  and  N_18 
REMARK    4  A    between atoms: N_18  and  C_19 
REMARK    5  A    between atoms: C_19  and  C_20 
ROOT
HETATM    1  C   UNL     1      42.372 -16.840   0.778  1.00  0.00     0.035 A 
HETATM    2  C   UNL     1      41.500 -17.175   1.812  1.00  0.00     0.032 A 
HETATM    3  C   UNL     1      41.886 -18.082   2.811  1.00  0.00     0.032 A 
HETATM    4  C   UNL     1      43.139 -18.691   2.778  1.00  0.00     0.036 A 
HETATM    5  C   UNL     1      44.016 -18.345   1.743  1.00  0.00     0.032 A 
HETATM    6  C   UNL     1      43.638 -17.428   0.755  1.00  0.00     0.032 A 
ENDROOT
BRANCH   1   7
HETATM    7  N   UNL     1      42.073 -15.915  -0.233  1.00  0.00    -0.322 N 
HETATM    8  C   UNL     1      41.703 -14.588  -0.109  1.00  0.00     0.277 C 
HETATM    9  O   UNL     1      41.504 -13.985   0.939  1.00  0.00    -0.266 OA
HETATM   10  H   UNL     1      42.137 -16.221  -1.201  1.00  0.00     0.169 HD
BRANCH   8  11
HETATM   11  C   UNL     1      41.559 -13.942  -1.430  1.00  0.00     0.157 A 
HETATM   12  C   UNL     1      42.063 -12.671  -1.837  1.00  0.00     0.029 A 
HETATM   13  C   UNL     1      42.789 -11.625  -1.233  1.00  0.00     0.023 A 
HETATM   14  C   UNL     1      41.688 -12.544  -3.168  1.00  0.00     0.063 A 
HETATM   15  C   UNL     1      43.117 -10.485  -1.986  1.00  0.00    -0.061 A 
HETATM   16  C   UNL     1      43.876  -9.351  -1.360  1.00  0.00     0.048 C 
HETATM   17  C   UNL     1      42.724 -10.400  -3.328  1.00  0.00     0.009 A 
HETATM   18  C   UNL     1      42.003 -11.427  -3.947  1.00  0.00     0.032 A 
HETATM   19  N   UNL     1      41.005 -13.690  -3.463  1.00  0.00    -0.277 N 
HETATM   20  H   UNL     1      40.587 -13.941  -4.352  1.00  0.00     0.189 HD
HETATM   21  N   UNL     1      40.893 -14.553  -2.437  1.00  0.00    -0.168 NA
ENDBRANCH   8  11
ENDBRANCH   1   7
BRANCH   4  22
HETATM   22  N   UNL     1      43.628 -19.597   3.737  1.00  0.00    -0.309 N 
HETATM   23  C   UNL     1      44.300 -19.459   4.911  1.00  0.00     0.320 C 
HETATM   24  N   UNL     1      44.376 -18.224   5.468  1.00  0.00    -0.339 N 
HETATM   25  O   UNL     1      44.781 -20.461   5.438  1.00  0.00    -0.247 OA
HETATM   26  H   UNL     1      43.549 -17.663   5.329  1.00  0.00     0.164 HD
HETATM   27  H   UNL     1      43.528 -20.579   3.512  1.00  0.00     0.170 HD
BRANCH  24  28
HETATM   28  C   UNL     1      45.023 -18.056   6.748  1.00  0.00     0.150 C 
BRANCH  28  29
HETATM   29  C   UNL     1      44.026 -17.674   7.800  1.00  0.00    -0.018 C 
HETATM   30  C   UNL     1      42.723 -17.417   7.621  1.00  0.00     0.008 C 
ENDBRANCH  28  29
ENDBRANCH  24  28
ENDBRANCH   4  22
TORSDOF 5
ENDMDL
MODEL 3
REMARK VINA RESULT:      -8.1      1.910      2.421
REMARK  5 active torsions:
REMARK  status: ('A' for Active; 'I' for Inactive)
REMARK    1  A    between atoms: C_9  and  C_10 
REMARK       I    between atoms: C_10  and  N_11 
REMARK    2  A    between atoms: N_11  and  C_12 
REMARK    3  A    between atoms: C_15  and  N_16 
REMARK       I    between atoms: N_16  and  C_17 
REMARK       I    between atoms: C_17  and  N_18 
REMARK    4  A    between atoms: N_18  and  C_19 
REMARK    5  A    between atoms: C_19  and  C_20 
ROOT
HETATM    1  C   UNL     1      41.559 -16.347   1.974  1.00  0.00     0.035 A 
HETATM    2  C   UNL     1      40.436 -15.596   2.314  1.00  0.00     0.032 A 
HETATM    3  C   UNL     1      39.760 -14.836   1.345  1.00  0.00     0.032 A 
HETATM    4  C   UNL     1      40.214 -14.793   0.028  1.00  0.00     0.036 A 
HETATM    5  C   UNL     1      41.338 -15.555  -0.310  1.00  0.00     0.032 A 
HETATM    6  C   UNL     1      42.002 -16.326   0.651  1.00  0.00     0.032 A 
ENDROOT
BRANCH   1   7
HETATM    7  N   UNL     1      42.263 -17.159   2.877  1.00  0.00    -0.322 N 
HETATM    8  C   UNL     1      43.157 -16.783   3.862  1.00  0.00     0.277 C 
HETATM    9  O   UNL     1      43.554 -15.645   4.086  1.00  0.00    -0.266 OA
HETATM   10  H   UNL     1      42.111 -18.164   2.839  1.00  0.00     0.169 HD
BRANCH   8  11
HETATM   11  C   UNL     1      43.613 -17.947   4.650  1.00  0.00     0.157 A 
HETATM   12  C   UNL     1      43.928 -19.253   4.172  1.00  0.00     0.029 A 
HETATM   13  C   UNL     1      43.917 -19.909   2.925  1.00  0.00     0.023 A 
HETATM   14  C   UNL     1      44.332 -19.960   5.297  1.00  0.00     0.063 A 
HETATM   15  C   UNL     1      44.315 -21.254   2.847  1.00  0.00    -0.061 A 
HETATM   16  C   UNL     1      44.297 -21.978   1.531  1.00  0.00     0.048 C 
HETATM   17  C   UNL     1      44.721 -21.929   4.005  1.00  0.00     0.009 A 
HETATM   18  C   UNL     1      44.739 -21.297   5.253  1.00  0.00     0.032 A 
HETATM   19  N   UNL     1      44.231 -19.078   6.336  1.00  0.00    -0.277 N 
HETATM   20  H   UNL     1      44.449 -19.254   7.310  1.00  0.00     0.189 HD
HETATM   21  N   UNL     1      43.787 -17.856   5.990  1.00  0.00    -0.168 NA
ENDBRANCH   8  11
ENDBRANCH   1   7
BRANCH   4  22
HETATM   22  N   UNL     1      39.601 -14.079  -1.019  1.00  0.00    -0.309 N 
HETATM   23  C   UNL     1      39.828 -12.870  -1.598  1.00  0.00     0.320 C 
HETATM   24  N   UNL     1      40.997 -12.235  -1.327  1.00  0.00    -0.339 N 
HETATM   25  O   UNL     1      38.984 -12.417  -2.370  1.00  0.00    -0.247 OA
HETATM   26  H   UNL     1      41.782 -12.860  -1.213  1.00  0.00     0.164 HD
HETATM   27  H   UNL     1      38.769 -14.498  -1.414  1.00  0.00     0.170 HD
BRANCH  24  28
HETATM   28  C   UNL     1      41.298 -10.984  -1.980  1.00  0.00     0.150 C 
BRANCH  28  29
HETATM   29  C   UNL     1      42.397 -11.161  -2.984  1.00  0.00    -0.018 C 
HETATM   30  C   UNL     1      42.261 -11.437  -4.289  1.00  0.00     0.008 C 
ENDBRANCH  28  29
ENDBRANCH  24  28
ENDBRANCH   4  22
TORSDOF 5
ENDMDL
MODEL 4
REMARK VINA RESULT:      -8.1      4.890      7.292
REMARK  5 active torsions:
REMARK  status: ('A' for Active; 'I' for Inactive)
REMARK    1  A    between atoms: C_9  and  C_10 
REMARK       I    between atoms: C_10  and  N_11 
REMARK    2  A    between atoms: N_11  and  C_12 
REMARK    3  A    between atoms: C_15  and  N_16 
REMARK       I    between atoms: N_16  and  C_17 
REMARK       I    between atoms: C_17  and  N_18 
REMARK    4  A    between atoms: N_18  and  C_19 
REMARK    5  A    between atoms: C_19  and  C_20 
ROOT
HETATM    1  C   UNL     1      41.587 -14.101   4.748  1.00  0.00     0.035 A 
HETATM    2  C   UNL     1      42.197 -12.882   5.035  1.00  0.00     0.032 A 
HETATM    3  C   UNL     1      41.527 -11.903   5.786  1.00  0.00     0.032 A 
HETATM    4  C   UNL     1      40.225 -12.117   6.237  1.00  0.00     0.036 A 
HETATM    5  C   UNL     1      39.620 -13.346   5.954  1.00  0.00     0.032 A 
HETATM    6  C   UNL     1      40.293 -14.329   5.220  1.00  0.00     0.032 A 
ENDROOT
BRANCH   1   7
HETATM    7  N   UNL     1      42.206 -15.141   4.038  1.00  0.00    -0.322 N 
HETATM    8  C   UNL     1      43.144 -16.054   4.483  1.00  0.00     0.277 C 
HETATM    9  O   UNL     1      43.664 -16.078   5.593  1.00  0.00    -0.266 OA
HETATM   10  H   UNL     1      41.946 -15.281   3.064  1.00  0.00     0.169 HD
BRANCH   8  11
HETATM   11  C   UNL     1      43.478 -17.041   3.436  1.00  0.00     0.157 A 
HETATM   12  C   UNL     1      43.841 -18.408   3.612  1.00  0.00     0.029 A 
HETATM   13  C   UNL     1      44.036 -19.276   4.706  1.00  0.00     0.023 A 
HETATM   14  C   UNL     1      44.021 -18.902   2.327  1.00  0.00     0.063 A 
HETATM   15  C   UNL     1      44.402 -20.612   4.474  1.00  0.00    -0.061 A 
HETATM   16  C   UNL     1      44.630 -21.550   5.625  1.00  0.00     0.048 C 
HETATM   17  C   UNL     1      44.568 -21.071   3.161  1.00  0.00     0.009 A 
HETATM   18  C   UNL     1      44.379 -20.227   2.060  1.00  0.00     0.032 A 
HETATM   19  N   UNL     1      43.774 -17.847   1.495  1.00  0.00    -0.277 N 
HETATM   20  H   UNL     1      43.809 -17.845   0.482  1.00  0.00     0.189 HD
HETATM   21  N   UNL     1      43.457 -16.701   2.126  1.00  0.00    -0.168 NA
ENDBRANCH   8  11
ENDBRANCH   1   7
BRANCH   4  22
HETATM   22  N   UNL     1      39.475 -11.210   7.010  1.00  0.00    -0.309 N 
HETATM   23  C   UNL     1      39.432 -10.908   8.335  1.00  0.00     0.320 C 
HETATM   24  N   UNL     1      40.429 -11.366   9.133  1.00  0.00    -0.339 N 
HETATM   25  O   UNL     1      38.512 -10.204   8.750  1.00  0.00    -0.247 OA
HETATM   26  H   UNL     1      41.332 -11.389   8.683  1.00  0.00     0.164 HD
HETATM   27  H   UNL     1      38.759 -10.693   6.516  1.00  0.00     0.170 HD
BRANCH  24  28
HETATM   28  C   UNL     1      40.449 -11.005  10.530  1.00  0.00     0.150 C 
BRANCH  28  29
HETATM   29  C   UNL     1      41.854 -10.968  11.049  1.00  0.00    -0.018 C 
HETATM   30  C   UNL     1      42.983 -10.991  10.325  1.00  0.00     0.008 C 
ENDBRANCH  28  29
ENDBRANCH  24  28
ENDBRANCH   4  22
TORSDOF 5
ENDMDL
MODEL 5
REMARK VINA RESULT:      -7.9      3.191      9.221
REMARK  5 active torsions:
REMARK  status: ('A' for Active; 'I' for Inactive)
REMARK    1  A    between atoms: C_9  and  C_10 
REMARK       I    between atoms: C_10  and  N_11 
REMARK    2  A    between atoms: N_11  and  C_12 
REMARK    3  A    between atoms: C_15  and  N_16 
REMARK       I    between atoms: N_16  and  C_17 
REMARK       I    between atoms: C_17  and  N_18 
REMARK    4  A    between atoms: N_18  and  C_19 
REMARK    5  A    between atoms: C_19  and  C_20 
ROOT
HETATM    1  C   UNL     1      42.318 -16.388   1.772  1.00  0.00     0.035 A 
HETATM    2  C   UNL     1      41.303 -16.931   2.556  1.00  0.00     0.032 A 
HETATM    3  C   UNL     1      41.600 -17.584   3.763  1.00  0.00     0.032 A 
HETATM    4  C   UNL     1      42.918 -17.730   4.190  1.00  0.00     0.036 A 
HETATM    5  C   UNL     1      43.934 -17.176   3.403  1.00  0.00     0.032 A 
HETATM    6  C   UNL     1      43.638 -16.510   2.208  1.00  0.00     0.032 A 
ENDROOT
BRANCH   1   7
HETATM    7  N   UNL     1      42.097 -15.689   0.575  1.00  0.00    -0.322 N 
HETATM    8  C   UNL     1      41.595 -14.413   0.400  1.00  0.00     0.277 C 
HETATM    9  O   UNL     1      41.182 -13.667   1.281  1.00  0.00    -0.266 OA
HETATM   10  H   UNL     1      42.337 -16.146  -0.301  1.00  0.00     0.169 HD
BRANCH   8  11
HETATM   11  C   UNL     1      41.600 -14.021  -1.025  1.00  0.00     0.157 A 
HETATM   12  C   UNL     1      42.085 -12.806  -1.592  1.00  0.00     0.029 A 
HETATM   13  C   UNL     1      42.663 -11.616  -1.105  1.00  0.00     0.023 A 
HETATM   14  C   UNL     1      41.891 -12.944  -2.960  1.00  0.00     0.063 A 
HETATM   15  C   UNL     1      43.029 -10.604  -2.008  1.00  0.00    -0.061 A 
HETATM   16  C   UNL     1      43.632  -9.322  -1.511  1.00  0.00     0.048 C 
HETATM   17  C   UNL     1      42.821 -10.787  -3.382  1.00  0.00     0.009 A 
HETATM   18  C   UNL     1      42.249 -11.961  -3.886  1.00  0.00     0.032 A 
HETATM   19  N   UNL     1      41.319 -14.175  -3.123  1.00  0.00    -0.277 N 
HETATM   20  H   UNL     1      41.041 -14.609  -3.995  1.00  0.00     0.189 HD
HETATM   21  N   UNL     1      41.113 -14.850  -1.978  1.00  0.00    -0.168 NA
ENDBRANCH   8  11
ENDBRANCH   1   7
BRANCH   4  22
HETATM   22  N   UNL     1      43.320 -18.350   5.388  1.00  0.00    -0.309 N 
HETATM   23  C   UNL     1      43.833 -19.572   5.694  1.00  0.00     0.320 C 
HETATM   24  N   UNL     1      44.289 -20.351   4.681  1.00  0.00    -0.339 N 
HETATM   25  O   UNL     1      43.893 -19.908   6.876  1.00  0.00    -0.247 OA
HETATM   26  H   UNL     1      44.722 -19.831   3.932  1.00  0.00     0.164 HD
HETATM   27  H   UNL     1      43.152 -17.825   6.237  1.00  0.00     0.170 HD
BRANCH  24  28
HETATM   28  C   UNL     1      44.902 -21.623   4.979  1.00  0.00     0.150 C 
BRANCH  28  29
HETATM   29  C   UNL     1      44.712 -22.583   3.844  1.00  0.00    -0.018 C 
HETATM   30  C   UNL     1      44.442 -22.278   2.566  1.00  0.00     0.008 C 
ENDBRANCH  28  29
ENDBRANCH  24  28
ENDBRANCH   4  22
TORSDOF 5
ENDMDL
MODEL 6
REMARK VINA RESULT:      -7.9      5.572      8.678
REMARK  5 active torsions:
REMARK  status: ('A' for Active; 'I' for Inactive)
REMARK    1  A    between atoms: C_9  and  C_10 
REMARK       I    between atoms: C_10  and  N_11 
REMARK    2  A    between atoms: N_11  and  C_12 
REMARK    3  A    between atoms: C_15  and  N_16 
REMARK       I    between atoms: N_16  and  C_17 
REMARK       I    between atoms: C_17  and  N_18 
REMARK    4  A    between atoms: N_18  and  C_19 
REMARK    5  A    between atoms: C_19  and  C_20 
ROOT
HETATM    1  C   UNL     1      43.878 -14.653   6.607  1.00  0.00     0.035 A 
HETATM    2  C   UNL     1      44.715 -14.114   7.581  1.00  0.00     0.032 A 
HETATM    3  C   UNL     1      44.425 -12.874   8.171  1.00  0.00     0.032 A 
HETATM    4  C   UNL     1      43.308 -12.139   7.776  1.00  0.00     0.036 A 
HETATM    5  C   UNL     1      42.465 -12.688   6.803  1.00  0.00     0.032 A 
HETATM    6  C   UNL     1      42.745 -13.932   6.226  1.00  0.00     0.032 A 
ENDROOT
BRANCH   1   7
HETATM    7  N   UNL     1      44.081 -15.901   6.000  1.00  0.00    -0.322 N 
HETATM    8  C   UNL     1      43.666 -17.149   6.428  1.00  0.00     0.277 C 
HETATM    9  O   UNL     1      43.084 -17.400   7.478  1.00  0.00    -0.266 OA
HETATM   10  H   UNL     1      44.588 -15.932   5.118  1.00  0.00     0.169 HD
BRANCH   8  11
HETATM   11  C   UNL     1      44.015 -18.200   5.451  1.00  0.00     0.157 A 
HETATM   12  C   UNL     1      43.483 -18.382   4.141  1.00  0.00     0.029 A 
HETATM   13  C   UNL     1      42.515 -17.745   3.339  1.00  0.00     0.023 A 
HETATM   14  C   UNL     1      44.158 -19.482   3.627  1.00  0.00     0.063 A 
HETATM   15  C   UNL     1      42.257 -18.231   2.046  1.00  0.00    -0.061 A 
HETATM   16  C   UNL     1      41.219 -17.577   1.180  1.00  0.00     0.048 C 
HETATM   17  C   UNL     1      42.965 -19.340   1.565  1.00  0.00     0.009 A 
HETATM   18  C   UNL     1      43.931 -19.987   2.344  1.00  0.00     0.032 A 
HETATM   19  N   UNL     1      45.010 -19.880   4.619  1.00  0.00    -0.277 N 
HETATM   20  H   UNL     1      45.662 -20.655   4.590  1.00  0.00     0.189 HD
HETATM   21  N   UNL     1      44.944 -19.141   5.741  1.00  0.00    -0.168 NA
ENDBRANCH   8  11
ENDBRANCH   1   7
BRANCH   4  22
HETATM   22  N   UNL     1      42.920 -10.898   8.316  1.00  0.00    -0.309 N 
HETATM   23  C   UNL     1      42.368 -10.513   9.497  1.00  0.00     0.320 C 
HETATM   24  N   UNL     1      42.344 -11.407  10.519  1.00  0.00    -0.339 N 
HETATM   25  O   UNL     1      41.944  -9.363   9.604  1.00  0.00    -0.247 OA
HETATM   26  H   UNL     1      43.152 -12.010  10.550  1.00  0.00     0.164 HD
HETATM   27  H   UNL     1      43.000 -10.101   7.698  1.00  0.00     0.170 HD
BRANCH  24  28
HETATM   28  C   UNL     1      41.827 -11.006  11.806  1.00  0.00     0.150 C 
BRANCH  28  29
HETATM   29  C   UNL     1      42.943 -10.803  12.785  1.00  0.00    -0.018 C 
HETATM   30  C   UNL     1      43.344  -9.641  13.321  1.00  0.00     0.008 C 
ENDBRANCH  28  29
ENDBRANCH  24  28
ENDBRANCH   4  22
TORSDOF 5
ENDMDL
MODEL 7
REMARK VINA RESULT:      -7.9      5.390      8.086
REMARK  5 active torsions:
REMARK  status: ('A' for Active; 'I' for Inactive)
REMARK    1  A    between atoms: C_9  and  C_10 
REMARK       I    between atoms: C_10  and  N_11 
REMARK    2  A    between atoms: N_11  and  C_12 
REMARK    3  A    between atoms: C_15  and  N_16 
REMARK       I    between atoms: N_16  and  C_17 
REMARK       I    between atoms: C_17  and  N_18 
REMARK    4  A    between atoms: N_18  and  C_19 
REMARK    5  A    between atoms: C_19  and  C_20 
ROOT
HETATM    1  C   UNL     1      41.164 -13.541   4.864  1.00  0.00     0.035 A 
HETATM    2  C   UNL     1      42.028 -12.618   5.448  1.00  0.00     0.032 A 
HETATM    3  C   UNL     1      41.570 -11.733   6.438  1.00  0.00     0.032 A 
HETATM    4  C   UNL     1      40.235 -11.740   6.838  1.00  0.00     0.036 A 
HETATM    5  C   UNL     1      39.373 -12.675   6.255  1.00  0.00     0.032 A 
HETATM    6  C   UNL     1      39.832 -13.568   5.280  1.00  0.00     0.032 A 
ENDROOT
BRANCH   1   7
HETATM    7  N   UNL     1      41.557 -14.481   3.898  1.00  0.00    -0.322 N 
HETATM    8  C   UNL     1      42.401 -14.308   2.817  1.00  0.00     0.277 C 
HETATM    9  O   UNL     1      42.922 -13.256   2.463  1.00  0.00    -0.266 OA
HETATM   10  H   UNL     1      41.202 -15.431   3.978  1.00  0.00     0.169 HD
BRANCH   8  11
HETATM   11  C   UNL     1      42.618 -15.577   2.092  1.00  0.00     0.157 A 
HETATM   12  C   UNL     1      43.122 -16.804   2.617  1.00  0.00     0.029 A 
HETATM   13  C   UNL     1      43.586 -17.261   3.867  1.00  0.00     0.023 A 
HETATM   14  C   UNL     1      43.103 -17.689   1.547  1.00  0.00     0.063 A 
HETATM   15  C   UNL     1      44.015 -18.592   4.002  1.00  0.00    -0.061 A 
HETATM   16  C   UNL     1      44.528 -19.096   5.321  1.00  0.00     0.048 C 
HETATM   17  C   UNL     1      43.974 -19.453   2.898  1.00  0.00     0.009 A 
HETATM   18  C   UNL     1      43.516 -19.020   1.648  1.00  0.00     0.032 A 
HETATM   19  N   UNL     1      42.619 -16.969   0.490  1.00  0.00    -0.277 N 
HETATM   20  H   UNL     1      42.468 -17.299  -0.456  1.00  0.00     0.189 HD
HETATM   21  N   UNL     1      42.329 -15.686   0.775  1.00  0.00    -0.168 NA
ENDBRANCH   8  11
ENDBRANCH   1   7
BRANCH   4  22
HETATM   22  N   UNL     1      39.681 -10.910   7.831  1.00  0.00    -0.309 N 
HETATM   23  C   UNL     1      39.958 -10.693   9.145  1.00  0.00     0.320 C 
HETATM   24  N   UNL     1      41.128 -11.168   9.642  1.00  0.00    -0.339 N 
HETATM   25  O   UNL     1      39.156 -10.049   9.819  1.00  0.00    -0.247 OA
HETATM   26  H   UNL     1      41.894 -11.132   8.986  1.00  0.00     0.164 HD
HETATM   27  H   UNL     1      38.857 -10.387   7.563  1.00  0.00     0.170 HD
BRANCH  24  28
HETATM   28  C   UNL     1      41.483 -10.895  11.014  1.00  0.00     0.150 C 
BRANCH  28  29
HETATM   29  C   UNL     1      42.728 -10.064  11.085  1.00  0.00    -0.018 C 
HETATM   30  C   UNL     1      43.661 -10.088  12.048  1.00  0.00     0.008 C 
ENDBRANCH  28  29
ENDBRANCH  24  28
ENDBRANCH   4  22
TORSDOF 5
ENDMDL
MODEL 8
REMARK VINA RESULT:      -7.8      1.561      2.027
REMARK  5 active torsions:
REMARK  status: ('A' for Active; 'I' for Inactive)
REMARK    1  A    between atoms: C_9  and  C_10 
REMARK       I    between atoms: C_10  and  N_11 
REMARK    2  A    between atoms: N_11  and  C_12 
REMARK    3  A    between atoms: C_15  and  N_16 
REMARK       I    between atoms: N_16  and  C_17 
REMARK       I    between atoms: C_17  and  N_18 
REMARK    4  A    between atoms: N_18  and  C_19 
REMARK    5  A    between atoms: C_19  and  C_20 
ROOT
HETATM    1  C   UNL     1      40.188 -14.707   2.627  1.00  0.00     0.035 A 
HETATM    2  C   UNL     1      40.214 -13.325   2.805  1.00  0.00     0.032 A 
HETATM    3  C   UNL     1      39.224 -12.509   2.235  1.00  0.00     0.032 A 
HETATM    4  C   UNL     1      38.208 -13.058   1.455  1.00  0.00     0.036 A 
HETATM    5  C   UNL     1      38.180 -14.447   1.286  1.00  0.00     0.032 A 
HETATM    6  C   UNL     1      39.158 -15.263   1.867  1.00  0.00     0.032 A 
ENDROOT
BRANCH   1   7
HETATM    7  N   UNL     1      41.119 -15.589   3.196  1.00  0.00    -0.322 N 
HETATM    8  C   UNL     1      42.205 -16.202   2.599  1.00  0.00     0.277 C 
HETATM    9  O   UNL     1      42.520 -16.131   1.417  1.00  0.00    -0.266 OA
HETATM   10  H   UNL     1      41.020 -15.825   4.181  1.00  0.00     0.169 HD
BRANCH   8  11
HETATM   11  C   UNL     1      42.981 -16.995   3.575  1.00  0.00     0.157 A 
HETATM   12  C   UNL     1      43.480 -18.321   3.419  1.00  0.00     0.029 A 
HETATM   13  C   UNL     1      43.432 -19.315   2.420  1.00  0.00     0.023 A 
HETATM   14  C   UNL     1      44.162 -18.591   4.599  1.00  0.00     0.063 A 
HETATM   15  C   UNL     1      44.072 -20.546   2.637  1.00  0.00    -0.061 A 
HETATM   16  C   UNL     1      44.021 -21.625   1.594  1.00  0.00     0.048 C 
HETATM   17  C   UNL     1      44.754 -20.775   3.840  1.00  0.00     0.009 A 
HETATM   18  C   UNL     1      44.814 -19.802   4.844  1.00  0.00     0.032 A 
HETATM   19  N   UNL     1      44.029 -17.464   5.360  1.00  0.00    -0.277 N 
HETATM   20  H   UNL     1      44.406 -17.305   6.288  1.00  0.00     0.189 HD
HETATM   21  N   UNL     1      43.311 -16.482   4.784  1.00  0.00    -0.168 NA
ENDBRANCH   8  11
ENDBRANCH   1   7
BRANCH   4  22
HETATM   22  N   UNL     1      37.162 -12.332   0.856  1.00  0.00    -0.309 N 
HETATM   23  C   UNL     1      36.899 -11.927  -0.415  1.00  0.00     0.320 C 
HETATM   24  N   UNL     1      37.626 -12.468  -1.426  1.00  0.00    -0.339 N 
HETATM   25  O   UNL     1      35.993 -11.116  -0.602  1.00  0.00    -0.247 OA
HETATM   26  H   UNL     1      37.869 -13.436  -1.279  1.00  0.00     0.164 HD
HETATM   27  H   UNL     1      36.461 -11.962   1.486  1.00  0.00     0.170 HD
BRANCH  24  28
HETATM   28  C   UNL     1      37.324 -12.112  -2.792  1.00  0.00     0.150 C 
BRANCH  28  29
HETATM   29  C   UNL     1      37.618 -13.255  -3.716  1.00  0.00    -0.018 C 
HETATM   30  C   UNL     1      37.465 -14.561  -3.457  1.00  0.00     0.008 C 
ENDBRANCH  28  29
ENDBRANCH  24  28
ENDBRANCH   4  22
TORSDOF 5
ENDMDL
MODEL 9
REMARK VINA RESULT:      -7.8      5.665      8.770
REMARK  5 active torsions:
REMARK  status: ('A' for Active; 'I' for Inactive)
REMARK    1  A    between atoms: C_9  and  C_10 
REMARK       I    between atoms: C_10  and  N_11 
REMARK    2  A    between atoms: N_11  and  C_12 
REMARK    3  A    between atoms: C_15  and  N_16 
REMARK       I    between atoms: N_16  and  C_17 
REMARK       I    between atoms: C_17  and  N_18 
REMARK    4  A    between atoms: N_18  and  C_19 
REMARK    5  A    between atoms: C_19  and  C_20 
ROOT
HETATM    1  C   UNL     1      43.741 -13.995   6.364  1.00  0.00     0.035 A 
HETATM    2  C   UNL     1      44.726 -13.988   7.348  1.00  0.00     0.032 A 
HETATM    3  C   UNL     1      44.744 -12.992   8.338  1.00  0.00     0.032 A 
HETATM    4  C   UNL     1      43.795 -11.971   8.341  1.00  0.00     0.036 A 
HETATM    5  C   UNL     1      42.802 -11.988   7.355  1.00  0.00     0.032 A 
HETATM    6  C   UNL     1      42.773 -12.990   6.378  1.00  0.00     0.032 A 
ENDROOT
BRANCH   1   7
HETATM    7  N   UNL     1      43.635 -14.978   5.367  1.00  0.00    -0.322 N 
HETATM    8  C   UNL     1      42.884 -16.139   5.373  1.00  0.00     0.277 C 
HETATM    9  O   UNL     1      42.207 -16.561   6.304  1.00  0.00    -0.266 OA
HETATM   10  H   UNL     1      44.157 -14.846   4.504  1.00  0.00     0.169 HD
BRANCH   8  11
HETATM   11  C   UNL     1      42.990 -16.857   4.087  1.00  0.00     0.157 A 
HETATM   12  C   UNL     1      43.503 -18.168   3.862  1.00  0.00     0.029 A 
HETATM   13  C   UNL     1      44.073 -19.187   4.652  1.00  0.00     0.023 A 
HETATM   14  C   UNL     1      43.352 -18.386   2.498  1.00  0.00     0.063 A 
HETATM   15  C   UNL     1      44.471 -20.391   4.048  1.00  0.00    -0.061 A 
HETATM   16  C   UNL     1      45.094 -21.485   4.868  1.00  0.00     0.048 C 
HETATM   17  C   UNL     1      44.295 -20.571   2.670  1.00  0.00     0.009 A 
HETATM   18  C   UNL     1      43.731 -19.573   1.867  1.00  0.00     0.032 A 
HETATM   19  N   UNL     1      42.790 -17.240   2.009  1.00  0.00    -0.277 N 
HETATM   20  H   UNL     1      42.537 -17.046   1.047  1.00  0.00     0.189 HD
HETATM   21  N   UNL     1      42.569 -16.287   2.933  1.00  0.00    -0.168 NA
ENDBRANCH   8  11
ENDBRANCH   1   7
BRANCH   4  22
HETATM   22  N   UNL     1      43.715 -10.939   9.295  1.00  0.00    -0.309 N 
HETATM   23  C   UNL     1      42.757 -10.533  10.170  1.00  0.00     0.320 C 
HETATM   24  N   UNL     1      41.704 -11.359  10.400  1.00  0.00    -0.339 N 
HETATM   25  O   UNL     1      42.898  -9.453  10.742  1.00  0.00    -0.247 OA
HETATM   26  H   UNL     1      41.945 -12.339  10.384  1.00  0.00     0.164 HD
HETATM   27  H   UNL     1      44.501 -10.302   9.326  1.00  0.00     0.170 HD
BRANCH  24  28
HETATM   28  C   UNL     1      40.706 -10.988  11.375  1.00  0.00     0.150 C 
BRANCH  28  29
HETATM   29  C   UNL     1      41.121 -11.419  12.749  1.00  0.00    -0.018 C 
HETATM   30  C   UNL     1      41.528 -10.630  13.754  1.00  0.00     0.008 C 
ENDBRANCH  28  29
ENDBRANCH  24  28
ENDBRANCH   4  22
TORSDOF 5
ENDMDL
MODEL 10
REMARK VINA RESULT:      -7.7      1.951      2.753
REMARK  5 active torsions:
REMARK  status: ('A' for Active; 'I' for Inactive)
REMARK    1  A    between atoms: C_9  and  C_10 
REMARK       I    between atoms: C_10  and  N_11 
REMARK    2  A    between atoms: N_11  and  C_12 
REMARK    3  A    between atoms: C_15  and  N_16 
REMARK       I    between atoms: N_16  and  C_17 
REMARK       I    between atoms: C_17  and  N_18 
REMARK    4  A    between atoms: N_18  and  C_19 
REMARK    5  A    between atoms: C_19  and  C_20 
ROOT
HETATM    1  C   UNL     1      42.030 -15.001   0.908  1.00  0.00     0.035 A 
HETATM    2  C   UNL     1      41.905 -13.616   0.993  1.00  0.00     0.032 A 
HETATM    3  C   UNL     1      41.350 -12.879  -0.065  1.00  0.00     0.032 A 
HETATM    4  C   UNL     1      40.937 -13.511  -1.237  1.00  0.00     0.036 A 
HETATM    5  C   UNL     1      41.056 -14.904  -1.315  1.00  0.00     0.032 A 
HETATM    6  C   UNL     1      41.595 -15.641  -0.254  1.00  0.00     0.032 A 
ENDROOT
BRANCH   1   7
HETATM    7  N   UNL     1      42.538 -15.808   1.937  1.00  0.00    -0.322 N 
HETATM    8  C   UNL     1      41.848 -16.603   2.833  1.00  0.00     0.277 C 
HETATM    9  O   UNL     1      40.630 -16.697   2.932  1.00  0.00    -0.266 OA
HETATM   10  H   UNL     1      43.547 -15.849   2.063  1.00  0.00     0.169 HD
BRANCH   8  11
HETATM   11  C   UNL     1      42.770 -17.359   3.706  1.00  0.00     0.157 A 
HETATM   12  C   UNL     1      43.356 -18.634   3.456  1.00  0.00     0.029 A 
HETATM   13  C   UNL     1      43.297 -19.596   2.427  1.00  0.00     0.023 A 
HETATM   14  C   UNL     1      44.161 -18.884   4.559  1.00  0.00     0.063 A 
HETATM   15  C   UNL     1      44.050 -20.777   2.539  1.00  0.00    -0.061 A 
HETATM   16  C   UNL     1      43.991 -21.823   1.463  1.00  0.00     0.048 C 
HETATM   17  C   UNL     1      44.853 -20.987   3.667  1.00  0.00     0.009 A 
HETATM   18  C   UNL     1      44.927 -20.045   4.700  1.00  0.00     0.032 A 
HETATM   19  N   UNL     1      44.009 -17.796   5.372  1.00  0.00    -0.277 N 
HETATM   20  H   UNL     1      44.453 -17.636   6.269  1.00  0.00     0.189 HD
HETATM   21  N   UNL     1      43.166 -16.860   4.900  1.00  0.00    -0.168 NA
ENDBRANCH   8  11
ENDBRANCH   1   7
BRANCH   4  22
HETATM   22  N   UNL     1      40.353 -12.868  -2.344  1.00  0.00    -0.309 N 
HETATM   23  C   UNL     1      39.104 -12.407  -2.619  1.00  0.00     0.320 C 
HETATM   24  N   UNL     1      38.216 -12.305  -1.597  1.00  0.00    -0.339 N 
HETATM   25  O   UNL     1      38.839 -12.070  -3.772  1.00  0.00    -0.247 OA
HETATM   26  H   UNL     1      38.636 -12.038  -0.719  1.00  0.00     0.164 HD
HETATM   27  H   UNL     1      40.946 -12.759  -3.157  1.00  0.00     0.170 HD
BRANCH  24  28
HETATM   28  C   UNL     1      36.905 -11.754  -1.844  1.00  0.00     0.150 C 
BRANCH  28  29
HETATM   29  C   UNL     1      36.395 -11.035  -0.631  1.00  0.00    -0.018 C 
HETATM   30  C   UNL     1      36.129 -11.569   0.570  1.00  0.00     0.008 C 
ENDBRANCH  28  29
ENDBRANCH  24  28
ENDBRANCH   4  22
TORSDOF 5
ENDMDL
