MODEL 1
REMARK VINA RESULT:      -9.9      0.000      0.000
REMARK  6 active torsions:
REMARK  status: ('A' for Active; 'I' for Inactive)
REMARK       I    between atoms: N_2  and  C_3 
REMARK    1  A    between atoms: N_2  and  C_15 
REMARK       I    between atoms: C_3  and  N_4 
REMARK    2  A    between atoms: N_4  and  C_5 
REMARK    3  A    between atoms: C_15  and  C_16 
REMARK    4  A    between atoms: C_16  and  C_17 
REMARK    5  A    between atoms: C_17  and  C_18 
REMARK    6  A    between atoms: C_22  and  C_23 
ROOT
HETATM    1  C   UNL     1      41.534 -14.011   5.826  1.00  0.00     0.154 C 
HETATM    2  N   UNL     1      42.732 -14.712   5.375  1.00  0.00    -0.338 N 
HETATM    3  C   UNL     1      42.551 -15.970   4.794  1.00  0.00     0.322 C 
HETATM    4  N   UNL     1      43.710 -16.677   4.561  1.00  0.00    -0.309 N 
HETATM    5  O   UNL     1      41.426 -16.384   4.527  1.00  0.00    -0.247 OA
HETATM    6  H   UNL     1      44.553 -16.305   4.959  1.00  0.00     0.170 HD
ENDROOT
BRANCH   2   7
HETATM    7  C   UNL     1      44.005 -14.093   5.754  1.00  0.00     0.127 C 
BRANCH   7   8
HETATM    8  C   UNL     1      44.432 -14.332   7.209  1.00  0.00     0.026 C 
BRANCH   8   9
HETATM    9  C   UNL     1      45.189 -13.182   7.877  1.00  0.00     0.060 C 
BRANCH   9  10
HETATM   10  C   UNL     1      44.376 -12.377   8.828  1.00  0.00     0.030 A 
HETATM   11  N   UNL     1      43.298 -11.651   8.409  1.00  0.00    -0.282 N 
HETATM   12  H   UNL     1      42.934 -11.559   7.466  1.00  0.00     0.189 HD
HETATM   13  N   UNL     1      42.649 -11.027   9.398  1.00  0.00    -0.174 NA
HETATM   14  C   UNL     1      43.353 -11.307  10.508  1.00  0.00     0.089 A 
HETATM   15  C   UNL     1      44.459 -12.143  10.183  1.00  0.00     0.060 A 
BRANCH  14  16
HETATM   16  C   UNL     1      42.947 -10.792  11.823  1.00  0.00    -0.006 A 
HETATM   17  C   UNL     1      41.732 -11.199  12.399  1.00  0.00     0.014 A 
HETATM   18  C   UNL     1      41.338 -10.728  13.653  1.00  0.00     0.001 A 
HETATM   19  C   UNL     1      42.151  -9.840  14.350  1.00  0.00     0.000 A 
HETATM   20  C   UNL     1      43.358  -9.421  13.793  1.00  0.00     0.001 A 
HETATM   21  C   UNL     1      43.754  -9.894  12.537  1.00  0.00     0.014 A 
ENDBRANCH  14  16
ENDBRANCH   9  10
ENDBRANCH   8   9
ENDBRANCH   7   8
ENDBRANCH   2   7
BRANCH   4  22
HETATM   22  C   UNL     1      43.842 -17.943   3.947  1.00  0.00     0.036 A 
HETATM   23  C   UNL     1      44.264 -19.095   4.615  1.00  0.00     0.039 A 
HETATM   24  C   UNL     1      44.362 -20.283   3.905  1.00  0.00    -0.024 A 
HETATM   25  C   UNL     1      44.052 -20.349   2.558  1.00  0.00    -0.026 A 
HETATM   26  C   UNL     1      44.812 -21.618   4.373  1.00  0.00     0.207 C 
HETATM   27  C   UNL     1      44.282 -21.731   2.069  1.00  0.00     0.207 C 
HETATM   28  C   UNL     1      43.629 -19.227   1.871  1.00  0.00     0.012 A 
HETATM   29  O   UNL     1      44.533 -22.507   3.265  1.00  0.00    -0.382 OA
HETATM   30  C   UNL     1      43.521 -18.023   2.575  1.00  0.00     0.030 A 
ENDBRANCH   4  22
TORSDOF 6
ENDMDL
MODEL 2
REMARK VINA RESULT:      -9.6      3.387     11.617
REMARK  6 active torsions:
REMARK  status: ('A' for Active; 'I' for Inactive)
REMARK       I    between atoms: N_2  and  C_3 
REMARK    1  A    between atoms: N_2  and  C_15 
REMARK       I    between atoms: C_3  and  N_4 
REMARK    2  A    between atoms: N_4  and  C_5 
REMARK    3  A    between atoms: C_15  and  C_16 
REMARK    4  A    between atoms: C_16  and  C_17 
REMARK    5  A    between atoms: C_17  and  C_18 
REMARK    6  A    between atoms: C_22  and  C_23 
ROOT
HETATM    1  C   UNL     1      46.750 -12.508   7.706  1.00  0.00     0.154 C 
HETATM    2  N   UNL     1      45.430 -12.474   8.327  1.00  0.00    -0.338 N 
HETATM    3  C   UNL     1      45.159 -11.408   9.187  1.00  0.00     0.322 C 
HETATM    4  N   UNL     1      43.985 -11.515   9.898  1.00  0.00    -0.309 N 
HETATM    5  O   UNL     1      45.937 -10.461   9.281  1.00  0.00    -0.247 OA
HETATM    6  H   UNL     1      43.510 -12.399   9.856  1.00  0.00     0.170 HD
ENDROOT
BRANCH   2   7
HETATM    7  C   UNL     1      44.604 -13.667   8.119  1.00  0.00     0.127 C 
BRANCH   7   8
HETATM    8  C   UNL     1      44.625 -14.227   6.689  1.00  0.00     0.026 C 
BRANCH   8   9
HETATM    9  C   UNL     1      43.450 -15.133   6.313  1.00  0.00     0.060 C 
BRANCH   9  10
HETATM   10  C   UNL     1      43.844 -16.485   5.832  1.00  0.00     0.030 A 
HETATM   11  N   UNL     1      44.688 -17.281   6.552  1.00  0.00    -0.282 N 
HETATM   12  H   UNL     1      45.135 -17.077   7.440  1.00  0.00     0.189 HD
HETATM   13  N   UNL     1      44.898 -18.482   6.004  1.00  0.00    -0.174 NA
HETATM   14  C   UNL     1      44.210 -18.464   4.849  1.00  0.00     0.089 A 
HETATM   15  C   UNL     1      43.546 -17.212   4.701  1.00  0.00     0.060 A 
BRANCH  14  16
HETATM   16  C   UNL     1      44.192 -19.624   3.949  1.00  0.00    -0.006 A 
HETATM   17  C   UNL     1      44.745 -20.848   4.358  1.00  0.00     0.014 A 
HETATM   18  C   UNL     1      44.725 -21.963   3.518  1.00  0.00     0.001 A 
HETATM   19  C   UNL     1      44.154 -21.871   2.252  1.00  0.00     0.000 A 
HETATM   20  C   UNL     1      43.604 -20.664   1.826  1.00  0.00     0.001 A 
HETATM   21  C   UNL     1      43.622 -19.547   2.669  1.00  0.00     0.014 A 
ENDBRANCH  14  16
ENDBRANCH   9  10
ENDBRANCH   8   9
ENDBRANCH   7   8
ENDBRANCH   2   7
BRANCH   4  22
HETATM   22  C   UNL     1      43.430 -10.577  10.800  1.00  0.00     0.036 A 
HETATM   23  C   UNL     1      42.410  -9.684  10.466  1.00  0.00     0.039 A 
HETATM   24  C   UNL     1      41.949  -8.802  11.435  1.00  0.00    -0.024 A 
HETATM   25  C   UNL     1      42.475  -8.792  12.714  1.00  0.00    -0.026 A 
HETATM   26  C   UNL     1      40.911  -7.748  11.321  1.00  0.00     0.207 C 
HETATM   27  C   UNL     1      41.812  -7.730  13.509  1.00  0.00     0.207 C 
HETATM   28  C   UNL     1      43.483  -9.667  13.073  1.00  0.00     0.012 A 
HETATM   29  O   UNL     1      40.719  -7.276  12.676  1.00  0.00    -0.382 OA
HETATM   30  C   UNL     1      43.956 -10.564  12.109  1.00  0.00     0.030 A 
ENDBRANCH   4  22
TORSDOF 6
ENDMDL
MODEL 3
REMARK VINA RESULT:      -9.3      5.112      9.000
REMARK  6 active torsions:
REMARK  status: ('A' for Active; 'I' for Inactive)
REMARK       I    between atoms: N_2  and  C_3 
REMARK    1  A    between atoms: N_2  and  C_15 
REMARK       I    between atoms: C_3  and  N_4 
REMARK    2  A    between atoms: N_4  and  C_5 
REMARK    3  A    between atoms: C_15  and  C_16 
REMARK    4  A    between atoms: C_16  and  C_17 
REMARK    5  A    between atoms: C_17  and  C_18 
REMARK    6  A    between atoms: C_22  and  C_23 
ROOT
HETATM    1  C   UNL     1      41.000 -10.688   1.561  1.00  0.00     0.154 C 
HETATM    2  N   UNL     1      41.305 -12.113   1.646  1.00  0.00    -0.338 N 
HETATM    3  C   UNL     1      41.404 -12.666   2.925  1.00  0.00     0.322 C 
HETATM    4  N   UNL     1      41.880 -13.957   2.967  1.00  0.00    -0.309 N 
HETATM    5  O   UNL     1      41.083 -12.017   3.919  1.00  0.00    -0.247 OA
HETATM    6  H   UNL     1      42.253 -14.329   2.113  1.00  0.00     0.170 HD
ENDROOT
BRANCH   2   7
HETATM    7  C   UNL     1      41.656 -12.760   0.379  1.00  0.00     0.127 C 
BRANCH   7   8
HETATM    8  C   UNL     1      40.642 -13.800  -0.118  1.00  0.00     0.026 C 
BRANCH   8   9
HETATM    9  C   UNL     1      41.238 -15.072  -0.726  1.00  0.00     0.060 C 
BRANCH   9  10
HETATM   10  C   UNL     1      41.520 -16.152   0.259  1.00  0.00     0.030 A 
HETATM   11  N   UNL     1      40.519 -16.755   0.965  1.00  0.00    -0.282 N 
HETATM   12  H   UNL     1      39.523 -16.563   0.926  1.00  0.00     0.189 HD
HETATM   13  N   UNL     1      40.940 -17.738   1.768  1.00  0.00    -0.174 NA
HETATM   14  C   UNL     1      42.277 -17.752   1.630  1.00  0.00     0.089 A 
HETATM   15  C   UNL     1      42.679 -16.753   0.698  1.00  0.00     0.060 A 
BRANCH  14  16
HETATM   16  C   UNL     1      43.113 -18.712   2.364  1.00  0.00    -0.006 A 
HETATM   17  C   UNL     1      43.596 -18.397   3.645  1.00  0.00     0.014 A 
HETATM   18  C   UNL     1      44.382 -19.303   4.360  1.00  0.00     0.001 A 
HETATM   19  C   UNL     1      44.700 -20.538   3.804  1.00  0.00     0.000 A 
HETATM   20  C   UNL     1      44.234 -20.867   2.533  1.00  0.00     0.001 A 
HETATM   21  C   UNL     1      43.445 -19.960   1.817  1.00  0.00     0.014 A 
ENDBRANCH  14  16
ENDBRANCH   9  10
ENDBRANCH   8   9
ENDBRANCH   7   8
ENDBRANCH   2   7
BRANCH   4  22
HETATM   22  C   UNL     1      42.041 -14.783   4.103  1.00  0.00     0.036 A 
HETATM   23  C   UNL     1      43.203 -14.829   4.878  1.00  0.00     0.039 A 
HETATM   24  C   UNL     1      43.247 -15.686   5.969  1.00  0.00    -0.024 A 
HETATM   25  C   UNL     1      42.171 -16.489   6.303  1.00  0.00    -0.026 A 
HETATM   26  C   UNL     1      44.362 -15.938   6.915  1.00  0.00     0.207 C 
HETATM   27  C   UNL     1      42.523 -17.312   7.486  1.00  0.00     0.207 C 
HETATM   28  C   UNL     1      41.008 -16.463   5.558  1.00  0.00     0.012 A 
HETATM   29  O   UNL     1      43.786 -16.776   7.945  1.00  0.00    -0.382 OA
HETATM   30  C   UNL     1      40.946 -15.602   4.457  1.00  0.00     0.030 A 
ENDBRANCH   4  22
TORSDOF 6
ENDMDL
MODEL 4
REMARK VINA RESULT:      -9.0      5.041      6.014
REMARK  6 active torsions:
REMARK  status: ('A' for Active; 'I' for Inactive)
REMARK       I    between atoms: N_2  and  C_3 
REMARK    1  A    between atoms: N_2  and  C_15 
REMARK       I    between atoms: C_3  and  N_4 
REMARK    2  A    between atoms: N_4  and  C_5 
REMARK    3  A    between atoms: C_15  and  C_16 
REMARK    4  A    between atoms: C_16  and  C_17 
REMARK    5  A    between atoms: C_17  and  C_18 
REMARK    6  A    between atoms: C_22  and  C_23 
ROOT
HETATM    1  C   UNL     1      40.530 -14.545  -0.200  1.00  0.00     0.154 C 
HETATM    2  N   UNL     1      40.580 -15.403   0.980  1.00  0.00    -0.338 N 
HETATM    3  C   UNL     1      41.593 -16.363   1.026  1.00  0.00     0.322 C 
HETATM    4  N   UNL     1      41.489 -17.273   2.054  1.00  0.00    -0.309 N 
HETATM    5  O   UNL     1      42.495 -16.367   0.191  1.00  0.00    -0.247 OA
HETATM    6  H   UNL     1      40.633 -17.265   2.579  1.00  0.00     0.170 HD
ENDROOT
BRANCH   2   7
HETATM    7  C   UNL     1      39.443 -15.280   1.897  1.00  0.00     0.127 C 
BRANCH   7   8
HETATM    8  C   UNL     1      39.000 -13.839   2.187  1.00  0.00     0.026 C 
BRANCH   8   9
HETATM    9  C   UNL     1      39.725 -13.139   3.339  1.00  0.00     0.060 C 
BRANCH   9  10
HETATM   10  C   UNL     1      40.312 -14.061   4.348  1.00  0.00     0.030 A 
HETATM   11  N   UNL     1      39.560 -14.585   5.361  1.00  0.00    -0.282 N 
HETATM   12  H   UNL     1      38.576 -14.426   5.556  1.00  0.00     0.189 HD
HETATM   13  N   UNL     1      40.228 -15.433   6.149  1.00  0.00    -0.174 NA
HETATM   14  C   UNL     1      41.486 -15.433   5.674  1.00  0.00     0.089 A 
HETATM   15  C   UNL     1      41.579 -14.565   4.548  1.00  0.00     0.060 A 
BRANCH  14  16
HETATM   16  C   UNL     1      42.537 -16.257   6.286  1.00  0.00    -0.006 A 
HETATM   17  C   UNL     1      42.205 -17.447   6.953  1.00  0.00     0.014 A 
HETATM   18  C   UNL     1      43.194 -18.248   7.530  1.00  0.00     0.001 A 
HETATM   19  C   UNL     1      44.530 -17.868   7.451  1.00  0.00     0.000 A 
HETATM   20  C   UNL     1      44.878 -16.688   6.796  1.00  0.00     0.001 A 
HETATM   21  C   UNL     1      43.888 -15.887   6.217  1.00  0.00     0.014 A 
ENDBRANCH  14  16
ENDBRANCH   9  10
ENDBRANCH   8   9
ENDBRANCH   7   8
ENDBRANCH   2   7
BRANCH   4  22
HETATM   22  C   UNL     1      42.384 -18.317   2.379  1.00  0.00     0.036 A 
HETATM   23  C   UNL     1      42.453 -19.530   1.688  1.00  0.00     0.039 A 
HETATM   24  C   UNL     1      43.369 -20.486   2.103  1.00  0.00    -0.024 A 
HETATM   25  C   UNL     1      44.211 -20.264   3.179  1.00  0.00    -0.026 A 
HETATM   26  C   UNL     1      43.609 -21.847   1.563  1.00  0.00     0.207 C 
HETATM   27  C   UNL     1      45.048 -21.467   3.403  1.00  0.00     0.207 C 
HETATM   28  C   UNL     1      44.168 -19.073   3.879  1.00  0.00     0.012 A 
HETATM   29  O   UNL     1      44.792 -22.312   2.256  1.00  0.00    -0.382 OA
HETATM   30  C   UNL     1      43.252 -18.098   3.470  1.00  0.00     0.030 A 
ENDBRANCH   4  22
TORSDOF 6
ENDMDL
MODEL 5
REMARK VINA RESULT:      -8.9      4.754      8.709
REMARK  6 active torsions:
REMARK  status: ('A' for Active; 'I' for Inactive)
REMARK       I    between atoms: N_2  and  C_3 
REMARK    1  A    between atoms: N_2  and  C_15 
REMARK       I    between atoms: C_3  and  N_4 
REMARK    2  A    between atoms: N_4  and  C_5 
REMARK    3  A    between atoms: C_15  and  C_16 
REMARK    4  A    between atoms: C_16  and  C_17 
REMARK    5  A    between atoms: C_17  and  C_18 
REMARK    6  A    between atoms: C_22  and  C_23 
ROOT
HETATM    1  C   UNL     1      40.872 -14.925   5.911  1.00  0.00     0.154 C 
HETATM    2  N   UNL     1      42.086 -15.393   5.251  1.00  0.00    -0.338 N 
HETATM    3  C   UNL     1      42.091 -16.711   4.788  1.00  0.00     0.322 C 
HETATM    4  N   UNL     1      43.312 -17.171   4.350  1.00  0.00    -0.309 N 
HETATM    5  O   UNL     1      41.062 -17.382   4.789  1.00  0.00    -0.247 OA
HETATM    6  H   UNL     1      44.108 -16.589   4.538  1.00  0.00     0.170 HD
ENDROOT
BRANCH   2   7
HETATM    7  C   UNL     1      43.232 -14.480   5.316  1.00  0.00     0.127 C 
BRANCH   7   8
HETATM    8  C   UNL     1      43.672 -13.898   3.966  1.00  0.00     0.026 C 
BRANCH   8   9
HETATM    9  C   UNL     1      42.593 -13.145   3.184  1.00  0.00     0.060 C 
BRANCH   9  10
HETATM   10  C   UNL     1      42.130 -13.836   1.949  1.00  0.00     0.030 A 
HETATM   11  N   UNL     1      42.537 -15.104   1.645  1.00  0.00    -0.282 N 
HETATM   12  H   UNL     1      43.167 -15.702   2.171  1.00  0.00     0.189 HD
HETATM   13  N   UNL     1      41.989 -15.595   0.529  1.00  0.00    -0.174 NA
HETATM   14  C   UNL     1      41.231 -14.596   0.044  1.00  0.00     0.089 A 
HETATM   15  C   UNL     1      41.310 -13.465   0.907  1.00  0.00     0.060 A 
BRANCH  14  16
HETATM   16  C   UNL     1      40.456 -14.753  -1.193  1.00  0.00    -0.006 A 
HETATM   17  C   UNL     1      39.283 -14.007  -1.394  1.00  0.00     0.014 A 
HETATM   18  C   UNL     1      38.540 -14.138  -2.570  1.00  0.00     0.001 A 
HETATM   19  C   UNL     1      38.958 -15.018  -3.563  1.00  0.00     0.000 A 
HETATM   20  C   UNL     1      40.117 -15.770  -3.380  1.00  0.00     0.001 A 
HETATM   21  C   UNL     1      40.862 -15.639  -2.203  1.00  0.00     0.014 A 
ENDBRANCH  14  16
ENDBRANCH   9  10
ENDBRANCH   8   9
ENDBRANCH   7   8
ENDBRANCH   2   7
BRANCH   4  22
HETATM   22  C   UNL     1      43.610 -18.434   3.787  1.00  0.00     0.036 A 
HETATM   23  C   UNL     1      44.084 -19.523   4.522  1.00  0.00     0.039 A 
HETATM   24  C   UNL     1      44.348 -20.714   3.859  1.00  0.00    -0.024 A 
HETATM   25  C   UNL     1      44.151 -20.842   2.495  1.00  0.00    -0.026 A 
HETATM   26  C   UNL     1      44.882 -21.988   4.401  1.00  0.00     0.207 C 
HETATM   27  C   UNL     1      44.547 -22.207   2.069  1.00  0.00     0.207 C 
HETATM   28  C   UNL     1      43.680 -19.783   1.743  1.00  0.00     0.012 A 
HETATM   29  O   UNL     1      44.775 -22.926   3.304  1.00  0.00    -0.382 OA
HETATM   30  C   UNL     1      43.406 -18.577   2.398  1.00  0.00     0.030 A 
ENDBRANCH   4  22
TORSDOF 6
ENDMDL
MODEL 6
REMARK VINA RESULT:      -8.7      3.448     11.054
REMARK  6 active torsions:
REMARK  status: ('A' for Active; 'I' for Inactive)
REMARK       I    between atoms: N_2  and  C_3 
REMARK    1  A    between atoms: N_2  and  C_15 
REMARK       I    between atoms: C_3  and  N_4 
REMARK    2  A    between atoms: N_4  and  C_5 
REMARK    3  A    between atoms: C_15  and  C_16 
REMARK    4  A    between atoms: C_16  and  C_17 
REMARK    5  A    between atoms: C_17  and  C_18 
REMARK    6  A    between atoms: C_22  and  C_23 
ROOT
HETATM    1  C   UNL     1      41.308 -10.153   4.971  1.00  0.00     0.154 C 
HETATM    2  N   UNL     1      41.344 -10.924   6.210  1.00  0.00    -0.338 N 
HETATM    3  C   UNL     1      41.754 -10.252   7.365  1.00  0.00     0.322 C 
HETATM    4  N   UNL     1      41.960 -11.055   8.464  1.00  0.00    -0.309 N 
HETATM    5  O   UNL     1      41.911  -9.033   7.362  1.00  0.00    -0.247 OA
HETATM    6  H   UNL     1      41.950 -12.046   8.308  1.00  0.00     0.170 HD
ENDROOT
BRANCH   2   7
HETATM    7  C   UNL     1      41.125 -12.365   6.063  1.00  0.00     0.127 C 
BRANCH   7   8
HETATM    8  C   UNL     1      42.276 -13.129   5.393  1.00  0.00     0.026 C 
BRANCH   8   9
HETATM    9  C   UNL     1      41.940 -13.804   4.062  1.00  0.00     0.060 C 
BRANCH   9  10
HETATM   10  C   UNL     1      42.122 -15.282   4.056  1.00  0.00     0.030 A 
HETATM   11  N   UNL     1      41.229 -16.114   4.669  1.00  0.00    -0.282 N 
HETATM   12  H   UNL     1      40.388 -15.862   5.178  1.00  0.00     0.189 HD
HETATM   13  N   UNL     1      41.514 -17.412   4.526  1.00  0.00    -0.174 NA
HETATM   14  C   UNL     1      42.668 -17.443   3.838  1.00  0.00     0.089 A 
HETATM   15  C   UNL     1      43.089 -16.115   3.539  1.00  0.00     0.060 A 
BRANCH  14  16
HETATM   16  C   UNL     1      43.313 -18.712   3.479  1.00  0.00    -0.006 A 
HETATM   17  C   UNL     1      43.008 -19.342   2.261  1.00  0.00     0.014 A 
HETATM   18  C   UNL     1      43.621 -20.544   1.900  1.00  0.00     0.001 A 
HETATM   19  C   UNL     1      44.548 -21.136   2.752  1.00  0.00     0.000 A 
HETATM   20  C   UNL     1      44.861 -20.528   3.967  1.00  0.00     0.001 A 
HETATM   21  C   UNL     1      44.248 -19.323   4.328  1.00  0.00     0.014 A 
ENDBRANCH  14  16
ENDBRANCH   9  10
ENDBRANCH   8   9
ENDBRANCH   7   8
ENDBRANCH   2   7
BRANCH   4  22
HETATM   22  C   UNL     1      42.327 -10.656   9.770  1.00  0.00     0.036 A 
HETATM   23  C   UNL     1      41.449 -10.063  10.680  1.00  0.00     0.039 A 
HETATM   24  C   UNL     1      41.924  -9.706  11.935  1.00  0.00    -0.024 A 
HETATM   25  C   UNL     1      43.241  -9.926  12.299  1.00  0.00    -0.026 A 
HETATM   26  C   UNL     1      41.209  -9.041  13.052  1.00  0.00     0.207 C 
HETATM   27  C   UNL     1      43.461  -9.416  13.674  1.00  0.00     0.207 C 
HETATM   28  C   UNL     1      44.132 -10.513  11.421  1.00  0.00     0.012 A 
HETATM   29  O   UNL     1      42.138  -9.089  14.161  1.00  0.00    -0.382 OA
HETATM   30  C   UNL     1      43.666 -10.882  10.154  1.00  0.00     0.030 A 
ENDBRANCH   4  22
TORSDOF 6
ENDMDL
MODEL 7
REMARK VINA RESULT:      -8.7      5.103      8.870
REMARK  6 active torsions:
REMARK  status: ('A' for Active; 'I' for Inactive)
REMARK       I    between atoms: N_2  and  C_3 
REMARK    1  A    between atoms: N_2  and  C_15 
REMARK       I    between atoms: C_3  and  N_4 
REMARK    2  A    between atoms: N_4  and  C_5 
REMARK    3  A    between atoms: C_15  and  C_16 
REMARK    4  A    between atoms: C_16  and  C_17 
REMARK    5  A    between atoms: C_17  and  C_18 
REMARK    6  A    between atoms: C_22  and  C_23 
ROOT
HETATM    1  C   UNL     1      38.034 -10.209   4.188  1.00  0.00     0.154 C 
HETATM    2  N   UNL     1      38.762 -11.394   3.747  1.00  0.00    -0.338 N 
HETATM    3  C   UNL     1      39.309 -12.210   4.740  1.00  0.00     0.322 C 
HETATM    4  N   UNL     1      40.147 -13.203   4.283  1.00  0.00    -0.309 N 
HETATM    5  O   UNL     1      39.043 -12.024   5.925  1.00  0.00    -0.247 OA
HETATM    6  H   UNL     1      40.410 -13.162   3.315  1.00  0.00     0.170 HD
ENDROOT
BRANCH   2   7
HETATM    7  C   UNL     1      38.994 -11.491   2.303  1.00  0.00     0.127 C 
BRANCH   7   8
HETATM    8  C   UNL     1      38.090 -12.492   1.569  1.00  0.00     0.026 C 
BRANCH   8   9
HETATM    9  C   UNL     1      38.785 -13.384   0.538  1.00  0.00     0.060 C 
BRANCH   9  10
HETATM   10  C   UNL     1      39.492 -14.559   1.116  1.00  0.00     0.030 A 
HETATM   11  N   UNL     1      38.814 -15.552   1.764  1.00  0.00    -0.282 N 
HETATM   12  H   UNL     1      37.816 -15.620   1.934  1.00  0.00     0.189 HD
HETATM   13  N   UNL     1      39.592 -16.558   2.177  1.00  0.00    -0.174 NA
HETATM   14  C   UNL     1      40.841 -16.194   1.838  1.00  0.00     0.089 A 
HETATM   15  C   UNL     1      40.817 -14.930   1.181  1.00  0.00     0.060 A 
BRANCH  14  16
HETATM   16  C   UNL     1      41.996 -17.054   2.129  1.00  0.00    -0.006 A 
HETATM   17  C   UNL     1      42.074 -17.747   3.348  1.00  0.00     0.014 A 
HETATM   18  C   UNL     1      43.160 -18.578   3.635  1.00  0.00     0.001 A 
HETATM   19  C   UNL     1      44.186 -18.726   2.708  1.00  0.00     0.000 A 
HETATM   20  C   UNL     1      44.129 -18.043   1.495  1.00  0.00     0.001 A 
HETATM   21  C   UNL     1      43.040 -17.212   1.206  1.00  0.00     0.014 A 
ENDBRANCH  14  16
ENDBRANCH   9  10
ENDBRANCH   8   9
ENDBRANCH   7   8
ENDBRANCH   2   7
BRANCH   4  22
HETATM   22  C   UNL     1      40.801 -14.200   5.043  1.00  0.00     0.036 A 
HETATM   23  C   UNL     1      42.164 -14.181   5.348  1.00  0.00     0.039 A 
HETATM   24  C   UNL     1      42.698 -15.220   6.097  1.00  0.00    -0.024 A 
HETATM   25  C   UNL     1      41.912 -16.267   6.546  1.00  0.00    -0.026 A 
HETATM   26  C   UNL     1      44.103 -15.444   6.518  1.00  0.00     0.207 C 
HETATM   27  C   UNL     1      42.759 -17.234   7.285  1.00  0.00     0.207 C 
HETATM   28  C   UNL     1      40.560 -16.311   6.263  1.00  0.00     0.012 A 
HETATM   29  O   UNL     1      44.038 -16.572   7.423  1.00  0.00    -0.382 OA
HETATM   30  C   UNL     1      40.007 -15.269   5.511  1.00  0.00     0.030 A 
ENDBRANCH   4  22
TORSDOF 6
ENDMDL
MODEL 8
REMARK VINA RESULT:      -8.5      5.509      9.620
REMARK  6 active torsions:
REMARK  status: ('A' for Active; 'I' for Inactive)
REMARK       I    between atoms: N_2  and  C_3 
REMARK    1  A    between atoms: N_2  and  C_15 
REMARK       I    between atoms: C_3  and  N_4 
REMARK    2  A    between atoms: N_4  and  C_5 
REMARK    3  A    between atoms: C_15  and  C_16 
REMARK    4  A    between atoms: C_16  and  C_17 
REMARK    5  A    between atoms: C_17  and  C_18 
REMARK    6  A    between atoms: C_22  and  C_23 
ROOT
HETATM    1  C   UNL     1      39.746 -12.331   5.217  1.00  0.00     0.154 C 
HETATM    2  N   UNL     1      40.048 -13.381   4.250  1.00  0.00    -0.338 N 
HETATM    3  C   UNL     1      39.735 -13.124   2.913  1.00  0.00     0.322 C 
HETATM    4  N   UNL     1      39.853 -14.204   2.067  1.00  0.00    -0.309 N 
HETATM    5  O   UNL     1      39.379 -12.004   2.554  1.00  0.00    -0.247 OA
HETATM    6  H   UNL     1      40.001 -15.099   2.496  1.00  0.00     0.170 HD
ENDROOT
BRANCH   2   7
HETATM    7  C   UNL     1      40.475 -14.661   4.822  1.00  0.00     0.127 C 
BRANCH   7   8
HETATM    8  C   UNL     1      41.988 -14.796   5.045  1.00  0.00     0.026 C 
BRANCH   8   9
HETATM    9  C   UNL     1      42.847 -14.819   3.779  1.00  0.00     0.060 C 
BRANCH   9  10
HETATM   10  C   UNL     1      43.236 -16.181   3.322  1.00  0.00     0.030 A 
HETATM   11  N   UNL     1      43.600 -16.424   2.028  1.00  0.00    -0.282 N 
HETATM   12  H   UNL     1      43.646 -15.765   1.257  1.00  0.00     0.189 HD
HETATM   13  N   UNL     1      43.968 -17.689   1.798  1.00  0.00    -0.174 NA
HETATM   14  C   UNL     1      43.791 -18.323   2.970  1.00  0.00     0.089 A 
HETATM   15  C   UNL     1      43.314 -17.405   3.950  1.00  0.00     0.060 A 
BRANCH  14  16
HETATM   16  C   UNL     1      44.093 -19.752   3.122  1.00  0.00    -0.006 A 
HETATM   17  C   UNL     1      44.609 -20.242   4.333  1.00  0.00     0.014 A 
HETATM   18  C   UNL     1      44.890 -21.601   4.496  1.00  0.00     0.001 A 
HETATM   19  C   UNL     1      44.663 -22.489   3.451  1.00  0.00     0.000 A 
HETATM   20  C   UNL     1      44.155 -22.021   2.240  1.00  0.00     0.001 A 
HETATM   21  C   UNL     1      43.871 -20.660   2.076  1.00  0.00     0.014 A 
ENDBRANCH  14  16
ENDBRANCH   9  10
ENDBRANCH   8   9
ENDBRANCH   7   8
ENDBRANCH   2   7
BRANCH   4  22
HETATM   22  C   UNL     1      39.652 -14.234   0.668  1.00  0.00     0.036 A 
HETATM   23  C   UNL     1      40.648 -14.557  -0.257  1.00  0.00     0.039 A 
HETATM   24  C   UNL     1      40.335 -14.547  -1.609  1.00  0.00    -0.024 A 
HETATM   25  C   UNL     1      39.065 -14.225  -2.056  1.00  0.00    -0.026 A 
HETATM   26  C   UNL     1      41.212 -14.817  -2.774  1.00  0.00     0.207 C 
HETATM   27  C   UNL     1      39.042 -14.267  -3.538  1.00  0.00     0.207 C 
HETATM   28  C   UNL     1      38.059 -13.904  -1.164  1.00  0.00     0.012 A 
HETATM   29  O   UNL     1      40.315 -14.845  -3.910  1.00  0.00    -0.382 OA
HETATM   30  C   UNL     1      38.359 -13.914   0.203  1.00  0.00     0.030 A 
ENDBRANCH   4  22
TORSDOF 6
ENDMDL
MODEL 9
REMARK VINA RESULT:      -8.4      4.737      8.954
REMARK  6 active torsions:
REMARK  status: ('A' for Active; 'I' for Inactive)
REMARK       I    between atoms: N_2  and  C_3 
REMARK    1  A    between atoms: N_2  and  C_15 
REMARK       I    between atoms: C_3  and  N_4 
REMARK    2  A    between atoms: N_4  and  C_5 
REMARK    3  A    between atoms: C_15  and  C_16 
REMARK    4  A    between atoms: C_16  and  C_17 
REMARK    5  A    between atoms: C_17  and  C_18 
REMARK    6  A    between atoms: C_22  and  C_23 
ROOT
HETATM    1  C   UNL     1      39.634 -13.085   3.238  1.00  0.00     0.154 C 
HETATM    2  N   UNL     1      40.843 -13.902   3.284  1.00  0.00    -0.338 N 
HETATM    3  C   UNL     1      41.029 -14.699   4.415  1.00  0.00     0.322 C 
HETATM    4  N   UNL     1      42.264 -15.301   4.508  1.00  0.00    -0.309 N 
HETATM    5  O   UNL     1      40.135 -14.829   5.248  1.00  0.00    -0.247 OA
HETATM    6  H   UNL     1      42.963 -15.001   3.853  1.00  0.00     0.170 HD
ENDROOT
BRANCH   2   7
HETATM    7  C   UNL     1      41.816 -13.649   2.217  1.00  0.00     0.127 C 
BRANCH   7   8
HETATM    8  C   UNL     1      41.227 -13.619   0.799  1.00  0.00     0.026 C 
BRANCH   8   9
HETATM    9  C   UNL     1      41.720 -14.715  -0.148  1.00  0.00     0.060 C 
BRANCH   9  10
HETATM   10  C   UNL     1      41.881 -16.051   0.486  1.00  0.00     0.030 A 
HETATM   11  N   UNL     1      40.803 -16.826   0.803  1.00  0.00    -0.282 N 
HETATM   12  H   UNL     1      39.819 -16.614   0.669  1.00  0.00     0.189 HD
HETATM   13  N   UNL     1      41.125 -18.017   1.319  1.00  0.00    -0.174 NA
HETATM   14  C   UNL     1      42.467 -18.012   1.397  1.00  0.00     0.089 A 
HETATM   15  C   UNL     1      42.977 -16.780   0.894  1.00  0.00     0.060 A 
BRANCH  14  16
HETATM   16  C   UNL     1      43.209 -19.166   1.920  1.00  0.00    -0.006 A 
HETATM   17  C   UNL     1      44.275 -18.977   2.814  1.00  0.00     0.014 A 
HETATM   18  C   UNL     1      44.983 -20.065   3.329  1.00  0.00     0.001 A 
HETATM   19  C   UNL     1      44.638 -21.360   2.956  1.00  0.00     0.000 A 
HETATM   20  C   UNL     1      43.585 -21.568   2.066  1.00  0.00     0.001 A 
HETATM   21  C   UNL     1      42.875 -20.478   1.551  1.00  0.00     0.014 A 
ENDBRANCH  14  16
ENDBRANCH   9  10
ENDBRANCH   8   9
ENDBRANCH   7   8
ENDBRANCH   2   7
BRANCH   4  22
HETATM   22  C   UNL     1      42.719 -16.193   5.507  1.00  0.00     0.036 A 
HETATM   23  C   UNL     1      42.770 -17.580   5.349  1.00  0.00     0.039 A 
HETATM   24  C   UNL     1      43.230 -18.358   6.404  1.00  0.00    -0.024 A 
HETATM   25  C   UNL     1      43.637 -17.789   7.598  1.00  0.00    -0.026 A 
HETATM   26  C   UNL     1      43.346 -19.834   6.495  1.00  0.00     0.207 C 
HETATM   27  C   UNL     1      44.041 -18.863   8.538  1.00  0.00     0.207 C 
HETATM   28  C   UNL     1      43.601 -16.420   7.781  1.00  0.00     0.012 A 
HETATM   29  O   UNL     1      44.051 -20.068   7.738  1.00  0.00    -0.382 OA
HETATM   30  C   UNL     1      43.143 -15.623   6.726  1.00  0.00     0.030 A 
ENDBRANCH   4  22
TORSDOF 6
ENDMDL
MODEL 10
REMARK VINA RESULT:      -8.3      6.354      9.728
REMARK  6 active torsions:
REMARK  status: ('A' for Active; 'I' for Inactive)
REMARK       I    between atoms: N_2  and  C_3 
REMARK    1  A    between atoms: N_2  and  C_15 
REMARK       I    between atoms: C_3  and  N_4 
REMARK    2  A    between atoms: N_4  and  C_5 
REMARK    3  A    between atoms: C_15  and  C_16 
REMARK    4  A    between atoms: C_16  and  C_17 
REMARK    5  A    between atoms: C_17  and  C_18 
REMARK    6  A    between atoms: C_22  and  C_23 
ROOT
HETATM    1  C   UNL     1      40.067 -14.731   2.822  1.00  0.00     0.154 C 
HETATM    2  N   UNL     1      41.390 -15.283   2.548  1.00  0.00    -0.338 N 
HETATM    3  C   UNL     1      41.593 -16.630   2.859  1.00  0.00     0.322 C 
HETATM    4  N   UNL     1      42.899 -17.059   2.769  1.00  0.00    -0.309 N 
HETATM    5  O   UNL     1      40.653 -17.349   3.188  1.00  0.00    -0.247 OA
HETATM    6  H   UNL     1      43.599 -16.351   2.641  1.00  0.00     0.170 HD
ENDROOT
BRANCH   2   7
HETATM    7  C   UNL     1      42.410 -14.309   2.150  1.00  0.00     0.127 C 
BRANCH   7   8
HETATM    8  C   UNL     1      42.115 -12.859   2.561  1.00  0.00     0.026 C 
BRANCH   8   9
HETATM    9  C   UNL     1      41.959 -11.862   1.411  1.00  0.00     0.060 C 
BRANCH   9  10
HETATM   10  C   UNL     1      41.553 -12.472   0.116  1.00  0.00     0.030 A 
HETATM   11  N   UNL     1      42.370 -12.438  -0.977  1.00  0.00    -0.282 N 
HETATM   12  H   UNL     1      43.291 -12.020  -1.056  1.00  0.00     0.189 HD
HETATM   13  N   UNL     1      41.875 -13.076  -2.043  1.00  0.00    -0.174 NA
HETATM   14  C   UNL     1      40.660 -13.504  -1.660  1.00  0.00     0.089 A 
HETATM   15  C   UNL     1      40.417 -13.126  -0.308  1.00  0.00     0.060 A 
BRANCH  14  16
HETATM   16  C   UNL     1      39.791 -14.261  -2.571  1.00  0.00    -0.006 A 
HETATM   17  C   UNL     1      40.206 -15.503  -3.077  1.00  0.00     0.014 A 
HETATM   18  C   UNL     1      39.387 -16.240  -3.935  1.00  0.00     0.001 A 
HETATM   19  C   UNL     1      38.140 -15.745  -4.303  1.00  0.00     0.000 A 
HETATM   20  C   UNL     1      37.713 -14.512  -3.815  1.00  0.00     0.001 A 
HETATM   21  C   UNL     1      38.532 -13.774  -2.954  1.00  0.00     0.014 A 
ENDBRANCH  14  16
ENDBRANCH   9  10
ENDBRANCH   8   9
ENDBRANCH   7   8
ENDBRANCH   2   7
BRANCH   4  22
HETATM   22  C   UNL     1      43.396 -18.366   2.974  1.00  0.00     0.036 A 
HETATM   23  C   UNL     1      43.361 -19.375   2.008  1.00  0.00     0.039 A 
HETATM   24  C   UNL     1      43.874 -20.626   2.327  1.00  0.00    -0.024 A 
HETATM   25  C   UNL     1      44.416 -20.889   3.573  1.00  0.00    -0.026 A 
HETATM   26  C   UNL     1      43.922 -21.855   1.498  1.00  0.00     0.207 C 
HETATM   27  C   UNL     1      44.849 -22.307   3.628  1.00  0.00     0.207 C 
HETATM   28  C   UNL     1      44.467 -19.910   4.546  1.00  0.00     0.012 A 
HETATM   29  O   UNL     1      44.724 -22.783   2.267  1.00  0.00    -0.382 OA
HETATM   30  C   UNL     1      43.957 -18.644   4.239  1.00  0.00     0.030 A 
ENDBRANCH   4  22
TORSDOF 6
ENDMDL
