MODEL 1
REMARK VINA RESULT:      -8.3      0.000      0.000
REMARK  6 active torsions:
REMARK  status: ('A' for Active; 'I' for Inactive)
REMARK    1  A    between atoms: C_3  and  C_4 
REMARK    2  A    between atoms: C_4  and  O_5 
REMARK    3  A    between atoms: O_5  and  C_6 
REMARK    4  A    between atoms: C_9  and  C_10 
REMARK       I    between atoms: C_10  and  N_11 
REMARK    5  A    between atoms: N_11  and  N_12 
REMARK       I    between atoms: N_12  and  C_13 
REMARK    6  A    between atoms: C_13  and  C_14 
ROOT
HETATM    1  C   UNL     1      43.795 -21.472   1.748  1.00  0.00     0.001 A 
HETATM    2  C   UNL     1      43.511 -20.106   1.773  1.00  0.00     0.011 A 
HETATM    3  C   UNL     1      43.813 -19.323   2.901  1.00  0.00    -0.013 A 
HETATM    4  C   UNL     1      44.451 -19.942   3.996  1.00  0.00     0.053 A 
HETATM    5  C   UNL     1      44.839 -19.199   5.161  1.00  0.00     0.100 C 
HETATM    6  N   UNL     1      45.154 -18.580   6.091  1.00  0.00    -0.191 NA
HETATM    7  C   UNL     1      44.730 -21.318   3.963  1.00  0.00     0.023 A 
HETATM    8  C   UNL     1      44.400 -22.080   2.845  1.00  0.00     0.002 A 
ENDROOT
BRANCH   3   9
HETATM    9  C   UNL     1      43.513 -17.833   2.902  1.00  0.00     0.216 C 
BRANCH   9  10
HETATM   10  O   UNL     1      42.105 -17.611   3.034  1.00  0.00    -0.347 OA
BRANCH  10  11
HETATM   11  C   UNL     1      41.547 -16.753   2.127  1.00  0.00     0.069 A 
HETATM   12  C   UNL     1      40.600 -15.773   2.421  1.00  0.00     0.038 A 
HETATM   13  C   UNL     1      40.077 -14.978   1.395  1.00  0.00     0.020 A 
HETATM   14  C   UNL     1      40.507 -15.144   0.071  1.00  0.00     0.033 A 
HETATM   15  C   UNL     1      41.475 -16.112  -0.216  1.00  0.00     0.020 A 
HETATM   16  C   UNL     1      41.997 -16.903   0.813  1.00  0.00     0.038 A 
BRANCH  14  17
HETATM   17  C   UNL     1      39.868 -14.305  -0.982  1.00  0.00     0.270 C 
HETATM   18  N   UNL     1      38.508 -14.443  -1.160  1.00  0.00    -0.263 N 
HETATM   19  H   UNL     1      37.922 -15.143  -0.713  1.00  0.00     0.190 HD
HETATM   20  O   UNL     1      40.541 -13.531  -1.660  1.00  0.00    -0.266 OA
BRANCH  18  21
HETATM   21  N   UNL     1      37.894 -13.646  -2.130  1.00  0.00    -0.262 N 
HETATM   22  C   UNL     1      37.439 -14.228  -3.293  1.00  0.00     0.286 C 
HETATM   23  O   UNL     1      37.615 -15.423  -3.531  1.00  0.00    -0.264 OA
HETATM   24  H   UNL     1      37.752 -12.668  -1.891  1.00  0.00     0.190 HD
BRANCH  22  25
HETATM   25  C   UNL     1      36.746 -13.343  -4.202  1.00  0.00     0.102 A 
HETATM   26  N   UNL     1      36.173 -13.814  -5.366  1.00  0.00    -0.361 N 
HETATM   27  H   UNL     1      36.202 -14.786  -5.653  1.00  0.00     0.165 HD
HETATM   28  C   UNL     1      35.577 -12.792  -6.052  1.00  0.00     0.088 A 
HETATM   29  C   UNL     1      35.758 -11.637  -5.327  1.00  0.00     0.019 A 
HETATM   30  C   UNL     1      36.493 -11.981  -4.165  1.00  0.00     0.036 A 
ENDBRANCH  22  25
ENDBRANCH  18  21
ENDBRANCH  14  17
ENDBRANCH  10  11
ENDBRANCH   9  10
ENDBRANCH   3   9
TORSDOF 6
ENDMDL
MODEL 2
REMARK VINA RESULT:      -8.2      5.700      8.093
REMARK  6 active torsions:
REMARK  status: ('A' for Active; 'I' for Inactive)
REMARK    1  A    between atoms: C_3  and  C_4 
REMARK    2  A    between atoms: C_4  and  O_5 
REMARK    3  A    between atoms: O_5  and  C_6 
REMARK    4  A    between atoms: C_9  and  C_10 
REMARK       I    between atoms: C_10  and  N_11 
REMARK    5  A    between atoms: N_11  and  N_12 
REMARK       I    between atoms: N_12  and  C_13 
REMARK    6  A    between atoms: C_13  and  C_14 
ROOT
HETATM    1  C   UNL     1      43.898 -21.326   1.792  1.00  0.00     0.001 A 
HETATM    2  C   UNL     1      43.523 -19.981   1.805  1.00  0.00     0.011 A 
HETATM    3  C   UNL     1      43.723 -19.185   2.947  1.00  0.00    -0.013 A 
HETATM    4  C   UNL     1      44.350 -19.766   4.068  1.00  0.00     0.053 A 
HETATM    5  C   UNL     1      44.636 -19.004   5.250  1.00  0.00     0.100 C 
HETATM    6  N   UNL     1      44.867 -18.369   6.195  1.00  0.00    -0.191 NA
HETATM    7  C   UNL     1      44.721 -21.120   4.047  1.00  0.00     0.023 A 
HETATM    8  C   UNL     1      44.492 -21.897   2.913  1.00  0.00     0.002 A 
ENDROOT
BRANCH   3   9
HETATM    9  C   UNL     1      43.325 -17.718   2.937  1.00  0.00     0.216 C 
BRANCH   9  10
HETATM   10  O   UNL     1      41.917 -17.588   2.710  1.00  0.00    -0.347 OA
BRANCH  10  11
HETATM   11  C   UNL     1      41.302 -16.547   3.350  1.00  0.00     0.069 A 
HETATM   12  C   UNL     1      40.752 -15.429   2.724  1.00  0.00     0.038 A 
HETATM   13  C   UNL     1      40.179 -14.410   3.494  1.00  0.00     0.020 A 
HETATM   14  C   UNL     1      40.135 -14.507   4.892  1.00  0.00     0.033 A 
HETATM   15  C   UNL     1      40.666 -15.643   5.514  1.00  0.00     0.020 A 
HETATM   16  C   UNL     1      41.236 -16.660   4.740  1.00  0.00     0.038 A 
BRANCH  14  17
HETATM   17  C   UNL     1      39.564 -13.363   5.655  1.00  0.00     0.270 C 
HETATM   18  N   UNL     1      39.960 -13.219   6.968  1.00  0.00    -0.263 N 
HETATM   19  H   UNL     1      40.521 -13.886   7.491  1.00  0.00     0.190 HD
HETATM   20  O   UNL     1      38.768 -12.591   5.124  1.00  0.00    -0.266 OA
BRANCH  18  21
HETATM   21  N   UNL     1      39.448 -12.137   7.689  1.00  0.00    -0.262 N 
HETATM   22  C   UNL     1      40.251 -11.043   7.926  1.00  0.00     0.286 C 
HETATM   23  O   UNL     1      41.431 -11.017   7.575  1.00  0.00    -0.264 OA
HETATM   24  H   UNL     1      38.467 -12.188   7.948  1.00  0.00     0.190 HD
BRANCH  22  25
HETATM   25  C   UNL     1      39.614  -9.939   8.609  1.00  0.00     0.102 A 
HETATM   26  N   UNL     1      39.653  -8.658   8.096  1.00  0.00    -0.361 N 
HETATM   27  H   UNL     1      40.122  -8.414   7.231  1.00  0.00     0.165 HD
HETATM   28  C   UNL     1      38.979  -7.796   8.916  1.00  0.00     0.088 A 
HETATM   29  C   UNL     1      38.488  -8.520   9.977  1.00  0.00     0.019 A 
HETATM   30  C   UNL     1      38.886  -9.867   9.787  1.00  0.00     0.036 A 
ENDBRANCH  22  25
ENDBRANCH  18  21
ENDBRANCH  14  17
ENDBRANCH  10  11
ENDBRANCH   9  10
ENDBRANCH   3   9
TORSDOF 6
ENDMDL
MODEL 3
REMARK VINA RESULT:      -8.2      8.580     12.749
REMARK  6 active torsions:
REMARK  status: ('A' for Active; 'I' for Inactive)
REMARK    1  A    between atoms: C_3  and  C_4 
REMARK    2  A    between atoms: C_4  and  O_5 
REMARK    3  A    between atoms: O_5  and  C_6 
REMARK    4  A    between atoms: C_9  and  C_10 
REMARK       I    between atoms: C_10  and  N_11 
REMARK    5  A    between atoms: N_11  and  N_12 
REMARK       I    between atoms: N_12  and  C_13 
REMARK    6  A    between atoms: C_13  and  C_14 
ROOT
HETATM    1  C   UNL     1      40.641  -7.314  11.299  1.00  0.00     0.001 A 
HETATM    2  C   UNL     1      41.779  -8.008  11.714  1.00  0.00     0.011 A 
HETATM    3  C   UNL     1      41.687  -9.322  12.207  1.00  0.00    -0.013 A 
HETATM    4  C   UNL     1      40.420  -9.940  12.234  1.00  0.00     0.053 A 
HETATM    5  C   UNL     1      40.253 -11.296  12.673  1.00  0.00     0.100 C 
HETATM    6  N   UNL     1      40.139 -12.397  13.024  1.00  0.00    -0.191 NA
HETATM    7  C   UNL     1      39.280  -9.233  11.818  1.00  0.00     0.023 A 
HETATM    8  C   UNL     1      39.391  -7.923  11.355  1.00  0.00     0.002 A 
ENDROOT
BRANCH   3   9
HETATM    9  C   UNL     1      42.939 -10.067  12.637  1.00  0.00     0.216 C 
BRANCH   9  10
HETATM   10  O   UNL     1      44.022  -9.772  11.748  1.00  0.00    -0.347 OA
BRANCH  10  11
HETATM   11  C   UNL     1      44.193 -10.640  10.705  1.00  0.00     0.069 A 
HETATM   12  C   UNL     1      43.343 -10.757   9.606  1.00  0.00     0.038 A 
HETATM   13  C   UNL     1      43.609 -11.712   8.617  1.00  0.00     0.020 A 
HETATM   14  C   UNL     1      44.732 -12.545   8.710  1.00  0.00     0.033 A 
HETATM   15  C   UNL     1      45.596 -12.407   9.802  1.00  0.00     0.020 A 
HETATM   16  C   UNL     1      45.328 -11.450  10.786  1.00  0.00     0.038 A 
BRANCH  14  17
HETATM   17  C   UNL     1      44.926 -13.578   7.654  1.00  0.00     0.270 C 
HETATM   18  N   UNL     1      44.050 -14.643   7.646  1.00  0.00    -0.263 N 
HETATM   19  H   UNL     1      43.355 -14.841   8.360  1.00  0.00     0.190 HD
HETATM   20  O   UNL     1      45.836 -13.474   6.835  1.00  0.00    -0.266 OA
BRANCH  18  21
HETATM   21  N   UNL     1      44.207 -15.609   6.647  1.00  0.00    -0.262 N 
HETATM   22  C   UNL     1      43.704 -16.875   6.848  1.00  0.00     0.286 C 
HETATM   23  O   UNL     1      43.173 -17.201   7.910  1.00  0.00    -0.264 OA
HETATM   24  H   UNL     1      44.636 -15.299   5.780  1.00  0.00     0.190 HD
BRANCH  22  25
HETATM   25  C   UNL     1      43.842 -17.784   5.731  1.00  0.00     0.102 A 
HETATM   26  N   UNL     1      44.691 -18.870   5.789  1.00  0.00    -0.361 N 
HETATM   27  H   UNL     1      45.262 -19.094   6.597  1.00  0.00     0.165 HD
HETATM   28  C   UNL     1      44.644 -19.576   4.619  1.00  0.00     0.088 A 
HETATM   29  C   UNL     1      43.749 -18.947   3.785  1.00  0.00     0.019 A 
HETATM   30  C   UNL     1      43.244 -17.821   4.481  1.00  0.00     0.036 A 
ENDBRANCH  22  25
ENDBRANCH  18  21
ENDBRANCH  14  17
ENDBRANCH  10  11
ENDBRANCH   9  10
ENDBRANCH   3   9
TORSDOF 6
ENDMDL
MODEL 4
REMARK VINA RESULT:      -8.0      2.727      3.350
REMARK  6 active torsions:
REMARK  status: ('A' for Active; 'I' for Inactive)
REMARK    1  A    between atoms: C_3  and  C_4 
REMARK    2  A    between atoms: C_4  and  O_5 
REMARK    3  A    between atoms: O_5  and  C_6 
REMARK    4  A    between atoms: C_9  and  C_10 
REMARK       I    between atoms: C_10  and  N_11 
REMARK    5  A    between atoms: N_11  and  N_12 
REMARK       I    between atoms: N_12  and  C_13 
REMARK    6  A    between atoms: C_13  and  C_14 
ROOT
HETATM    1  C   UNL     1      44.500 -21.900   2.540  1.00  0.00     0.001 A 
HETATM    2  C   UNL     1      44.186 -20.540   2.526  1.00  0.00     0.011 A 
HETATM    3  C   UNL     1      44.061 -19.812   3.724  1.00  0.00    -0.013 A 
HETATM    4  C   UNL     1      44.302 -20.481   4.942  1.00  0.00     0.053 A 
HETATM    5  C   UNL     1      44.246 -19.794   6.201  1.00  0.00     0.100 C 
HETATM    6  N   UNL     1      44.204 -19.220   7.210  1.00  0.00    -0.191 NA
HETATM    7  C   UNL     1      44.613 -21.850   4.946  1.00  0.00     0.023 A 
HETATM    8  C   UNL     1      44.709 -22.557   3.749  1.00  0.00     0.002 A 
ENDROOT
BRANCH   3   9
HETATM    9  C   UNL     1      43.737 -18.328   3.688  1.00  0.00     0.216 C 
BRANCH   9  10
HETATM   10  O   UNL     1      42.334 -18.132   3.478  1.00  0.00    -0.347 OA
BRANCH  10  11
HETATM   11  C   UNL     1      41.993 -17.355   2.405  1.00  0.00     0.069 A 
HETATM   12  C   UNL     1      42.627 -17.372   1.163  1.00  0.00     0.038 A 
HETATM   13  C   UNL     1      42.205 -16.500   0.153  1.00  0.00     0.020 A 
HETATM   14  C   UNL     1      41.139 -15.616   0.369  1.00  0.00     0.033 A 
HETATM   15  C   UNL     1      40.490 -15.619   1.609  1.00  0.00     0.020 A 
HETATM   16  C   UNL     1      40.913 -16.494   2.615  1.00  0.00     0.038 A 
BRANCH  14  17
HETATM   17  C   UNL     1      40.778 -14.674  -0.728  1.00  0.00     0.270 C 
HETATM   18  N   UNL     1      41.801 -14.226  -1.537  1.00  0.00    -0.263 N 
HETATM   19  H   UNL     1      42.791 -14.395  -1.384  1.00  0.00     0.190 HD
HETATM   20  O   UNL     1      39.613 -14.317  -0.888  1.00  0.00    -0.266 OA
BRANCH  18  21
HETATM   21  N   UNL     1      41.472 -13.360  -2.583  1.00  0.00    -0.262 N 
HETATM   22  C   UNL     1      42.110 -12.142  -2.676  1.00  0.00     0.286 C 
HETATM   23  O   UNL     1      42.918 -11.767  -1.827  1.00  0.00    -0.264 OA
HETATM   24  H   UNL     1      40.813 -13.709  -3.272  1.00  0.00     0.190 HD
BRANCH  22  25
HETATM   25  C   UNL     1      41.765 -11.346  -3.833  1.00  0.00     0.102 A 
HETATM   26  N   UNL     1      40.484 -10.868  -4.020  1.00  0.00    -0.361 N 
HETATM   27  H   UNL     1      39.720 -11.042  -3.377  1.00  0.00     0.165 HD
HETATM   28  C   UNL     1      40.410 -10.143  -5.178  1.00  0.00     0.088 A 
HETATM   29  C   UNL     1      41.659 -10.142  -5.754  1.00  0.00     0.019 A 
HETATM   30  C   UNL     1      42.512 -10.897  -4.912  1.00  0.00     0.036 A 
ENDBRANCH  22  25
ENDBRANCH  18  21
ENDBRANCH  14  17
ENDBRANCH  10  11
ENDBRANCH   9  10
ENDBRANCH   3   9
TORSDOF 6
ENDMDL
MODEL 5
REMARK VINA RESULT:      -8.0      9.496     13.260
REMARK  6 active torsions:
REMARK  status: ('A' for Active; 'I' for Inactive)
REMARK    1  A    between atoms: C_3  and  C_4 
REMARK    2  A    between atoms: C_4  and  O_5 
REMARK    3  A    between atoms: O_5  and  C_6 
REMARK    4  A    between atoms: C_9  and  C_10 
REMARK       I    between atoms: C_10  and  N_11 
REMARK    5  A    between atoms: N_11  and  N_12 
REMARK       I    between atoms: N_12  and  C_13 
REMARK    6  A    between atoms: C_13  and  C_14 
ROOT
HETATM    1  C   UNL     1      42.346  -9.252  15.529  1.00  0.00     0.001 A 
HETATM    2  C   UNL     1      42.852  -9.344  14.231  1.00  0.00     0.011 A 
HETATM    3  C   UNL     1      42.103  -8.896  13.128  1.00  0.00    -0.013 A 
HETATM    4  C   UNL     1      40.843  -8.312  13.366  1.00  0.00     0.053 A 
HETATM    5  C   UNL     1      40.043  -7.784  12.297  1.00  0.00     0.100 C 
HETATM    6  N   UNL     1      39.414  -7.354  11.421  1.00  0.00    -0.191 NA
HETATM    7  C   UNL     1      40.341  -8.226  14.674  1.00  0.00     0.023 A 
HETATM    8  C   UNL     1      41.089  -8.698  15.751  1.00  0.00     0.002 A 
ENDROOT
BRANCH   3   9
HETATM    9  C   UNL     1      42.678  -8.989  11.724  1.00  0.00     0.216 C 
BRANCH   9  10
HETATM   10  O   UNL     1      43.919  -9.703  11.742  1.00  0.00    -0.347 OA
BRANCH  10  11
HETATM   11  C   UNL     1      44.118 -10.582  10.713  1.00  0.00     0.069 A 
HETATM   12  C   UNL     1      43.227 -10.810   9.665  1.00  0.00     0.038 A 
HETATM   13  C   UNL     1      43.531 -11.765   8.687  1.00  0.00     0.020 A 
HETATM   14  C   UNL     1      44.732 -12.486   8.739  1.00  0.00     0.033 A 
HETATM   15  C   UNL     1      45.634 -12.236   9.779  1.00  0.00     0.020 A 
HETATM   16  C   UNL     1      45.327 -11.279  10.753  1.00  0.00     0.038 A 
BRANCH  14  17
HETATM   17  C   UNL     1      44.968 -13.527   7.700  1.00  0.00     0.270 C 
HETATM   18  N   UNL     1      44.140 -14.630   7.712  1.00  0.00    -0.263 N 
HETATM   19  H   UNL     1      43.455 -14.846   8.432  1.00  0.00     0.190 HD
HETATM   20  O   UNL     1      45.871 -13.397   6.877  1.00  0.00    -0.266 OA
BRANCH  18  21
HETATM   21  N   UNL     1      44.337 -15.603   6.729  1.00  0.00    -0.262 N 
HETATM   22  C   UNL     1      43.575 -16.751   6.753  1.00  0.00     0.286 C 
HETATM   23  O   UNL     1      42.766 -16.973   7.655  1.00  0.00    -0.264 OA
HETATM   24  H   UNL     1      45.001 -15.378   5.994  1.00  0.00     0.190 HD
BRANCH  22  25
HETATM   25  C   UNL     1      43.791 -17.665   5.654  1.00  0.00     0.102 A 
HETATM   26  N   UNL     1      43.067 -17.565   4.483  1.00  0.00    -0.361 N 
HETATM   27  H   UNL     1      42.352 -16.863   4.324  1.00  0.00     0.165 HD
HETATM   28  C   UNL     1      43.454 -18.534   3.599  1.00  0.00     0.088 A 
HETATM   29  C   UNL     1      44.446 -19.276   4.195  1.00  0.00     0.019 A 
HETATM   30  C   UNL     1      44.659 -18.733   5.486  1.00  0.00     0.036 A 
ENDBRANCH  22  25
ENDBRANCH  18  21
ENDBRANCH  14  17
ENDBRANCH  10  11
ENDBRANCH   9  10
ENDBRANCH   3   9
TORSDOF 6
ENDMDL
MODEL 6
REMARK VINA RESULT:      -7.9      6.264     10.345
REMARK  6 active torsions:
REMARK  status: ('A' for Active; 'I' for Inactive)
REMARK    1  A    between atoms: C_3  and  C_4 
REMARK    2  A    between atoms: C_4  and  O_5 
REMARK    3  A    between atoms: O_5  and  C_6 
REMARK    4  A    between atoms: C_9  and  C_10 
REMARK       I    between atoms: C_10  and  N_11 
REMARK    5  A    between atoms: N_11  and  N_12 
REMARK       I    between atoms: N_12  and  C_13 
REMARK    6  A    between atoms: C_13  and  C_14 
ROOT
HETATM    1  C   UNL     1      40.390 -11.026  11.310  1.00  0.00     0.001 A 
HETATM    2  C   UNL     1      40.538 -10.839   9.935  1.00  0.00     0.011 A 
HETATM    3  C   UNL     1      41.813 -10.748   9.348  1.00  0.00    -0.013 A 
HETATM    4  C   UNL     1      42.944 -10.892  10.177  1.00  0.00     0.053 A 
HETATM    5  C   UNL     1      44.277 -10.864   9.645  1.00  0.00     0.100 C 
HETATM    6  N   UNL     1      45.347 -10.848   9.195  1.00  0.00    -0.191 NA
HETATM    7  C   UNL     1      42.786 -11.077  11.560  1.00  0.00     0.023 A 
HETATM    8  C   UNL     1      41.513 -11.140  12.124  1.00  0.00     0.002 A 
ENDROOT
BRANCH   3   9
HETATM    9  C   UNL     1      41.953 -10.562   7.846  1.00  0.00     0.216 C 
BRANCH   9  10
HETATM   10  O   UNL     1      40.838 -11.150   7.168  1.00  0.00    -0.347 OA
BRANCH  10  11
HETATM   11  C   UNL     1      41.101 -12.292   6.461  1.00  0.00     0.069 A 
HETATM   12  C   UNL     1      42.348 -12.656   5.955  1.00  0.00     0.038 A 
HETATM   13  C   UNL     1      42.482 -13.837   5.216  1.00  0.00     0.020 A 
HETATM   14  C   UNL     1      41.377 -14.670   4.991  1.00  0.00     0.033 A 
HETATM   15  C   UNL     1      40.133 -14.313   5.522  1.00  0.00     0.020 A 
HETATM   16  C   UNL     1      40.004 -13.133   6.262  1.00  0.00     0.038 A 
BRANCH  14  17
HETATM   17  C   UNL     1      41.576 -15.883   4.148  1.00  0.00     0.270 C 
HETATM   18  N   UNL     1      42.637 -16.705   4.464  1.00  0.00    -0.263 N 
HETATM   19  H   UNL     1      43.358 -16.500   5.151  1.00  0.00     0.190 HD
HETATM   20  O   UNL     1      40.820 -16.123   3.209  1.00  0.00    -0.266 OA
BRANCH  18  21
HETATM   21  N   UNL     1      42.821 -17.856   3.695  1.00  0.00    -0.262 N 
HETATM   22  C   UNL     1      43.856 -18.713   3.998  1.00  0.00     0.286 C 
HETATM   23  O   UNL     1      44.666 -18.461   4.892  1.00  0.00    -0.264 OA
HETATM   24  H   UNL     1      42.125 -18.039   2.977  1.00  0.00     0.190 HD
BRANCH  22  25
HETATM   25  C   UNL     1      43.922 -19.917   3.201  1.00  0.00     0.102 A 
HETATM   26  N   UNL     1      44.606 -21.033   3.640  1.00  0.00    -0.361 N 
HETATM   27  H   UNL     1      45.097 -21.078   4.527  1.00  0.00     0.165 HD
HETATM   28  C   UNL     1      44.520 -22.039   2.717  1.00  0.00     0.088 A 
HETATM   29  C   UNL     1      43.767 -21.579   1.663  1.00  0.00     0.019 A 
HETATM   30  C   UNL     1      43.391 -20.246   1.964  1.00  0.00     0.036 A 
ENDBRANCH  22  25
ENDBRANCH  18  21
ENDBRANCH  14  17
ENDBRANCH  10  11
ENDBRANCH   9  10
ENDBRANCH   3   9
TORSDOF 6
ENDMDL
MODEL 7
REMARK VINA RESULT:      -7.6      8.800     11.467
REMARK  6 active torsions:
REMARK  status: ('A' for Active; 'I' for Inactive)
REMARK    1  A    between atoms: C_3  and  C_4 
REMARK    2  A    between atoms: C_4  and  O_5 
REMARK    3  A    between atoms: O_5  and  C_6 
REMARK    4  A    between atoms: C_9  and  C_10 
REMARK       I    between atoms: C_10  and  N_11 
REMARK    5  A    between atoms: N_11  and  N_12 
REMARK       I    between atoms: N_12  and  C_13 
REMARK    6  A    between atoms: C_13  and  C_14 
ROOT
HETATM    1  C   UNL     1      42.834  -8.170  13.235  1.00  0.00     0.001 A 
HETATM    2  C   UNL     1      41.599  -8.129  12.585  1.00  0.00     0.011 A 
HETATM    3  C   UNL     1      40.809  -9.285  12.456  1.00  0.00    -0.013 A 
HETATM    4  C   UNL     1      41.274 -10.483  13.036  1.00  0.00     0.053 A 
HETATM    5  C   UNL     1      40.501 -11.692  12.992  1.00  0.00     0.100 C 
HETATM    6  N   UNL     1      39.857 -12.657  12.954  1.00  0.00    -0.191 NA
HETATM    7  C   UNL     1      42.519 -10.516  13.684  1.00  0.00     0.023 A 
HETATM    8  C   UNL     1      43.297  -9.364  13.780  1.00  0.00     0.002 A 
ENDROOT
BRANCH   3   9
HETATM    9  C   UNL     1      39.459  -9.216  11.762  1.00  0.00     0.216 C 
BRANCH   9  10
HETATM   10  O   UNL     1      39.592  -8.592  10.480  1.00  0.00    -0.347 OA
BRANCH  10  11
HETATM   11  C   UNL     1      39.959  -9.414   9.450  1.00  0.00     0.069 A 
HETATM   12  C   UNL     1      41.060  -9.218   8.616  1.00  0.00     0.038 A 
HETATM   13  C   UNL     1      41.311 -10.114   7.571  1.00  0.00     0.020 A 
HETATM   14  C   UNL     1      40.477 -11.221   7.360  1.00  0.00     0.033 A 
HETATM   15  C   UNL     1      39.389 -11.428   8.215  1.00  0.00     0.020 A 
HETATM   16  C   UNL     1      39.143 -10.531   9.260  1.00  0.00     0.038 A 
BRANCH  14  17
HETATM   17  C   UNL     1      40.767 -12.104   6.196  1.00  0.00     0.270 C 
HETATM   18  N   UNL     1      40.245 -13.380   6.226  1.00  0.00    -0.263 N 
HETATM   19  H   UNL     1      39.773 -13.806   7.020  1.00  0.00     0.190 HD
HETATM   20  O   UNL     1      41.450 -11.699   5.258  1.00  0.00    -0.266 OA
BRANCH  18  21
HETATM   21  N   UNL     1      40.491 -14.211   5.130  1.00  0.00    -0.262 N 
HETATM   22  C   UNL     1      41.142 -15.410   5.325  1.00  0.00     0.286 C 
HETATM   23  O   UNL     1      41.570 -15.743   6.430  1.00  0.00    -0.264 OA
HETATM   24  H   UNL     1      40.110 -13.910   4.237  1.00  0.00     0.190 HD
BRANCH  22  25
HETATM   25  C   UNL     1      41.282 -16.240   4.149  1.00  0.00     0.102 A 
HETATM   26  N   UNL     1      40.384 -16.164   3.104  1.00  0.00    -0.361 N 
HETATM   27  H   UNL     1      39.586 -15.539   3.094  1.00  0.00     0.165 HD
HETATM   28  C   UNL     1      40.731 -17.040   2.112  1.00  0.00     0.088 A 
HETATM   29  C   UNL     1      41.873 -17.695   2.510  1.00  0.00     0.019 A 
HETATM   30  C   UNL     1      42.221 -17.195   3.789  1.00  0.00     0.036 A 
ENDBRANCH  22  25
ENDBRANCH  18  21
ENDBRANCH  14  17
ENDBRANCH  10  11
ENDBRANCH   9  10
ENDBRANCH   3   9
TORSDOF 6
ENDMDL
MODEL 8
REMARK VINA RESULT:      -7.4      3.798      5.077
REMARK  6 active torsions:
REMARK  status: ('A' for Active; 'I' for Inactive)
REMARK    1  A    between atoms: C_3  and  C_4 
REMARK    2  A    between atoms: C_4  and  O_5 
REMARK    3  A    between atoms: O_5  and  C_6 
REMARK    4  A    between atoms: C_9  and  C_10 
REMARK       I    between atoms: C_10  and  N_11 
REMARK    5  A    between atoms: N_11  and  N_12 
REMARK       I    between atoms: N_12  and  C_13 
REMARK    6  A    between atoms: C_13  and  C_14 
ROOT
HETATM    1  C   UNL     1      42.587 -13.777   5.860  1.00  0.00     0.001 A 
HETATM    2  C   UNL     1      41.828 -14.927   5.637  1.00  0.00     0.011 A 
HETATM    3  C   UNL     1      42.353 -16.205   5.902  1.00  0.00    -0.013 A 
HETATM    4  C   UNL     1      43.653 -16.296   6.441  1.00  0.00     0.053 A 
HETATM    5  C   UNL     1      44.238 -17.560   6.788  1.00  0.00     0.100 C 
HETATM    6  N   UNL     1      44.690 -18.591   7.070  1.00  0.00    -0.191 NA
HETATM    7  C   UNL     1      44.410 -15.134   6.659  1.00  0.00     0.023 A 
HETATM    8  C   UNL     1      43.879 -13.879   6.366  1.00  0.00     0.002 A 
ENDROOT
BRANCH   3   9
HETATM    9  C   UNL     1      41.506 -17.444   5.670  1.00  0.00     0.216 C 
BRANCH   9  10
HETATM   10  O   UNL     1      42.016 -18.193   4.561  1.00  0.00    -0.347 OA
BRANCH  10  11
HETATM   11  C   UNL     1      41.991 -17.559   3.349  1.00  0.00     0.069 A 
HETATM   12  C   UNL     1      43.086 -17.399   2.501  1.00  0.00     0.038 A 
HETATM   13  C   UNL     1      42.939 -16.698   1.298  1.00  0.00     0.020 A 
HETATM   14  C   UNL     1      41.697 -16.167   0.926  1.00  0.00     0.033 A 
HETATM   15  C   UNL     1      40.595 -16.351   1.768  1.00  0.00     0.020 A 
HETATM   16  C   UNL     1      40.745 -17.054   2.968  1.00  0.00     0.038 A 
BRANCH  14  17
HETATM   17  C   UNL     1      41.622 -15.382  -0.339  1.00  0.00     0.270 C 
HETATM   18  N   UNL     1      41.982 -14.052  -0.279  1.00  0.00    -0.263 N 
HETATM   19  H   UNL     1      42.188 -13.535   0.572  1.00  0.00     0.190 HD
HETATM   20  O   UNL     1      41.248 -15.912  -1.383  1.00  0.00    -0.266 OA
BRANCH  18  21
HETATM   21  N   UNL     1      41.937 -13.311  -1.462  1.00  0.00    -0.262 N 
HETATM   22  C   UNL     1      42.534 -12.070  -1.505  1.00  0.00     0.286 C 
HETATM   23  O   UNL     1      43.053 -11.566  -0.508  1.00  0.00    -0.264 OA
HETATM   24  H   UNL     1      41.514 -13.765  -2.267  1.00  0.00     0.190 HD
BRANCH  22  25
HETATM   25  C   UNL     1      42.508 -11.410  -2.791  1.00  0.00     0.102 A 
HETATM   26  N   UNL     1      42.217 -12.103  -3.949  1.00  0.00    -0.361 N 
HETATM   27  H   UNL     1      42.011 -13.096  -3.972  1.00  0.00     0.165 HD
HETATM   28  C   UNL     1      42.250 -11.264  -5.028  1.00  0.00     0.088 A 
HETATM   29  C   UNL     1      42.562 -10.004  -4.572  1.00  0.00     0.019 A 
HETATM   30  C   UNL     1      42.726 -10.094  -3.168  1.00  0.00     0.036 A 
ENDBRANCH  22  25
ENDBRANCH  18  21
ENDBRANCH  14  17
ENDBRANCH  10  11
ENDBRANCH   9  10
ENDBRANCH   3   9
TORSDOF 6
ENDMDL
MODEL 9
REMARK VINA RESULT:      -7.4      6.861     10.279
REMARK  6 active torsions:
REMARK  status: ('A' for Active; 'I' for Inactive)
REMARK    1  A    between atoms: C_3  and  C_4 
REMARK    2  A    between atoms: C_4  and  O_5 
REMARK    3  A    between atoms: O_5  and  C_6 
REMARK    4  A    between atoms: C_9  and  C_10 
REMARK       I    between atoms: C_10  and  N_11 
REMARK    5  A    between atoms: N_11  and  N_12 
REMARK       I    between atoms: N_12  and  C_13 
REMARK    6  A    between atoms: C_13  and  C_14 
ROOT
HETATM    1  C   UNL     1      42.241 -18.192   1.346  1.00  0.00     0.001 A 
HETATM    2  C   UNL     1      41.437 -17.060   1.201  1.00  0.00     0.011 A 
HETATM    3  C   UNL     1      41.799 -15.833   1.786  1.00  0.00    -0.013 A 
HETATM    4  C   UNL     1      43.018 -15.761   2.491  1.00  0.00     0.053 A 
HETATM    5  C   UNL     1      43.482 -14.532   3.070  1.00  0.00     0.100 C 
HETATM    6  N   UNL     1      43.845 -13.528   3.524  1.00  0.00    -0.191 NA
HETATM    7  C   UNL     1      43.819 -16.905   2.634  1.00  0.00     0.023 A 
HETATM    8  C   UNL     1      43.429 -18.117   2.067  1.00  0.00     0.002 A 
ENDROOT
BRANCH   3   9
HETATM    9  C   UNL     1      40.920 -14.608   1.602  1.00  0.00     0.216 C 
BRANCH   9  10
HETATM   10  O   UNL     1      39.759 -14.701   2.435  1.00  0.00    -0.347 OA
BRANCH  10  11
HETATM   11  C   UNL     1      39.743 -13.885   3.532  1.00  0.00     0.069 A 
HETATM   12  C   UNL     1      39.399 -12.533   3.527  1.00  0.00     0.038 A 
HETATM   13  C   UNL     1      39.456 -11.794   4.714  1.00  0.00     0.020 A 
HETATM   14  C   UNL     1      39.840 -12.401   5.918  1.00  0.00     0.033 A 
HETATM   15  C   UNL     1      40.160 -13.764   5.924  1.00  0.00     0.020 A 
HETATM   16  C   UNL     1      40.100 -14.499   4.735  1.00  0.00     0.038 A 
BRANCH  14  17
HETATM   17  C   UNL     1      39.935 -11.546   7.134  1.00  0.00     0.270 C 
HETATM   18  N   UNL     1      41.114 -11.593   7.847  1.00  0.00    -0.263 N 
HETATM   19  H   UNL     1      41.880 -12.240   7.680  1.00  0.00     0.190 HD
HETATM   20  O   UNL     1      38.991 -10.837   7.476  1.00  0.00    -0.266 OA
BRANCH  18  21
HETATM   21  N   UNL     1      41.224 -10.779   8.978  1.00  0.00    -0.262 N 
HETATM   22  C   UNL     1      42.422 -10.725   9.657  1.00  0.00     0.286 C 
HETATM   23  O   UNL     1      43.383 -11.424   9.333  1.00  0.00    -0.264 OA
HETATM   24  H   UNL     1      40.417 -10.206   9.205  1.00  0.00     0.190 HD
BRANCH  22  25
HETATM   25  C   UNL     1      42.468  -9.797  10.765  1.00  0.00     0.102 A 
HETATM   26  N   UNL     1      41.479  -8.854  10.954  1.00  0.00    -0.361 N 
HETATM   27  H   UNL     1      40.677  -8.751  10.342  1.00  0.00     0.165 HD
HETATM   28  C   UNL     1      41.744  -8.101  12.065  1.00  0.00     0.088 A 
HETATM   29  C   UNL     1      42.919  -8.560  12.614  1.00  0.00     0.019 A 
HETATM   30  C   UNL     1      43.377  -9.624  11.798  1.00  0.00     0.036 A 
ENDBRANCH  22  25
ENDBRANCH  18  21
ENDBRANCH  14  17
ENDBRANCH  10  11
ENDBRANCH   9  10
ENDBRANCH   3   9
TORSDOF 6
ENDMDL
MODEL 10
REMARK VINA RESULT:      -7.4      8.207     12.046
REMARK  6 active torsions:
REMARK  status: ('A' for Active; 'I' for Inactive)
REMARK    1  A    between atoms: C_3  and  C_4 
REMARK    2  A    between atoms: C_4  and  O_5 
REMARK    3  A    between atoms: O_5  and  C_6 
REMARK    4  A    between atoms: C_9  and  C_10 
REMARK       I    between atoms: C_10  and  N_11 
REMARK    5  A    between atoms: N_11  and  N_12 
REMARK       I    between atoms: N_12  and  C_13 
REMARK    6  A    between atoms: C_13  and  C_14 
ROOT
HETATM    1  C   UNL     1      43.089  -8.346  13.313  1.00  0.00     0.001 A 
HETATM    2  C   UNL     1      42.535  -8.672  12.075  1.00  0.00     0.011 A 
HETATM    3  C   UNL     1      41.710  -9.802  11.924  1.00  0.00    -0.013 A 
HETATM    4  C   UNL     1      41.419 -10.576  13.066  1.00  0.00     0.053 A 
HETATM    5  C   UNL     1      40.543 -11.711  13.004  1.00  0.00     0.100 C 
HETATM    6  N   UNL     1      39.825 -12.621  12.936  1.00  0.00    -0.191 NA
HETATM    7  C   UNL     1      41.984 -10.242  14.308  1.00  0.00     0.023 A 
HETATM    8  C   UNL     1      42.819  -9.133  14.429  1.00  0.00     0.002 A 
ENDROOT
BRANCH   3   9
HETATM    9  C   UNL     1      41.101 -10.130  10.572  1.00  0.00     0.216 C 
BRANCH   9  10
HETATM   10  O   UNL     1      41.978  -9.716   9.519  1.00  0.00    -0.347 OA
BRANCH  10  11
HETATM   11  C   UNL     1      42.312 -10.678   8.605  1.00  0.00     0.069 A 
HETATM   12  C   UNL     1      41.594 -10.974   7.447  1.00  0.00     0.038 A 
HETATM   13  C   UNL     1      42.021 -12.008   6.607  1.00  0.00     0.020 A 
HETATM   14  C   UNL     1      43.175 -12.744   6.907  1.00  0.00     0.033 A 
HETATM   15  C   UNL     1      43.907 -12.428   8.057  1.00  0.00     0.020 A 
HETATM   16  C   UNL     1      43.478 -11.391   8.893  1.00  0.00     0.038 A 
BRANCH  14  17
HETATM   17  C   UNL     1      43.543 -13.869   6.003  1.00  0.00     0.270 C 
HETATM   18  N   UNL     1      42.939 -15.087   6.234  1.00  0.00    -0.263 N 
HETATM   19  H   UNL     1      42.350 -15.313   7.031  1.00  0.00     0.190 HD
HETATM   20  O   UNL     1      44.356 -13.704   5.096  1.00  0.00    -0.266 OA
BRANCH  18  21
HETATM   21  N   UNL     1      43.259 -16.146   5.379  1.00  0.00    -0.262 N 
HETATM   22  C   UNL     1      43.947 -17.231   5.876  1.00  0.00     0.286 C 
HETATM   23  O   UNL     1      44.346 -17.267   7.040  1.00  0.00    -0.264 OA
HETATM   24  H   UNL     1      42.900 -16.087   4.430  1.00  0.00     0.190 HD
BRANCH  22  25
HETATM   25  C   UNL     1      44.164 -18.312   4.941  1.00  0.00     0.102 A 
HETATM   26  N   UNL     1      44.990 -19.374   5.249  1.00  0.00    -0.361 N 
HETATM   27  H   UNL     1      45.488 -19.461   6.128  1.00  0.00     0.165 HD
HETATM   28  C   UNL     1      45.030 -20.264   4.211  1.00  0.00     0.088 A 
HETATM   29  C   UNL     1      44.217 -19.782   3.212  1.00  0.00     0.019 A 
HETATM   30  C   UNL     1      43.673 -18.556   3.667  1.00  0.00     0.036 A 
ENDBRANCH  22  25
ENDBRANCH  18  21
ENDBRANCH  14  17
ENDBRANCH  10  11
ENDBRANCH   9  10
ENDBRANCH   3   9
TORSDOF 6
ENDMDL
