MODEL 1
REMARK VINA RESULT:     -10.2      0.000      0.000
REMARK  4 active torsions:
REMARK  status: ('A' for Active; 'I' for Inactive)
REMARK    1  A    between atoms: N_4  and  C_5 
REMARK    2  A    between atoms: C_15  and  N_16 
REMARK       I    between atoms: N_16  and  C_17 
REMARK    3  A    between atoms: C_17  and  C_18 
REMARK       I    between atoms: C_18  and  N_19 
REMARK    4  A    between atoms: N_19  and  C_20 
ROOT
HETATM    1  N   UNL     1      42.042 -12.628   5.518  1.00  0.00    -0.303 N 
HETATM    2  C   UNL     1      41.641 -13.945   5.647  1.00  0.00     0.315 C 
HETATM    3  O   UNL     1      40.507 -14.369   5.833  1.00  0.00    -0.262 OA
HETATM    4  H   UNL     1      42.922 -12.475   5.032  1.00  0.00     0.171 HD
ENDROOT
BRANCH   1   5
HETATM    5  C   UNL     1      41.150 -11.588   5.703  1.00  0.00     0.152 C 
HETATM    6  N   UNL     1      40.806 -10.998   6.917  1.00  0.00    -0.045 N 
HETATM    7  N   UNL     1      39.718 -10.168   6.770  1.00  0.00    -0.156 NA
HETATM    8  C   UNL     1      39.566 -10.058   5.445  1.00  0.00     0.055 C 
HETATM    9  C   UNL     1      38.521  -9.170   4.880  1.00  0.00     0.072 C 
HETATM   10  C   UNL     1      40.466 -10.885   4.737  1.00  0.00     0.079 C 
BRANCH   6  11
HETATM   11  C   UNL     1      41.501 -10.979   8.150  1.00  0.00     0.732 A 
HETATM   12  N   UNL     1      42.792 -10.874   8.265  1.00  0.00    -0.067 NA
HETATM   13  C   UNL     1      43.244 -10.833   9.552  1.00  0.00     0.065 A 
HETATM   14  C   UNL     1      42.487 -10.858  10.650  1.00  0.00     0.036 A 
HETATM   15  C   UNL     1      44.691 -10.725   9.894  1.00  0.00     0.061 C 
HETATM   16  C   UNL     1      43.265 -10.768  11.905  1.00  0.00     0.047 C 
HETATM   17  C   UNL     1      41.035 -10.944  10.511  1.00  0.00     0.268 A 
HETATM   18  C   UNL     1      44.695 -11.010  11.403  1.00  0.00     0.011 C 
HETATM   19  O   UNL     1      40.279 -10.935  11.472  1.00  0.00    -0.267 OA
HETATM   20  N   UNL     1      40.621 -11.019   9.211  1.00  0.00    -0.152 N 
HETATM   21  H   UNL     1      39.625 -11.047   9.012  1.00  0.00     0.188 HD
ENDBRANCH   6  11
ENDBRANCH   1   5
BRANCH   2  22
HETATM   22  C   UNL     1      42.796 -14.947   5.440  1.00  0.00     0.310 C 
HETATM   23  N   UNL     1      42.378 -16.143   4.900  1.00  0.00    -0.348 N 
HETATM   24  H   UNL     1      41.366 -16.211   4.810  1.00  0.00     0.163 HD
HETATM   25  O   UNL     1      43.932 -14.632   5.756  1.00  0.00    -0.262 OA
BRANCH  23  26
HETATM   26  C   UNL     1      43.162 -17.379   4.910  1.00  0.00     0.084 C 
HETATM   27  C   UNL     1      43.086 -17.978   6.338  1.00  0.00     0.025 C 
HETATM   28  C   UNL     1      44.147 -19.049   6.624  1.00  0.00     0.002 C 
HETATM   29  C   UNL     1      43.550 -20.453   6.787  1.00  0.00     0.000 C 
HETATM   30  C   UNL     1      44.590 -21.572   6.620  1.00  0.00     0.000 C 
HETATM   31  C   UNL     1      44.469 -22.298   5.271  1.00  0.00     0.000 C 
HETATM   32  C   UNL     1      44.828 -21.416   4.074  1.00  0.00     0.000 C 
HETATM   33  C   UNL     1      44.054 -21.804   2.816  1.00  0.00     0.000 C 
HETATM   34  C   UNL     1      44.257 -20.824   1.654  1.00  0.00     0.000 C 
HETATM   35  C   UNL     1      43.324 -19.601   1.656  1.00  0.00     0.000 C 
HETATM   36  C   UNL     1      43.689 -18.490   2.651  1.00  0.00     0.002 C 
HETATM   37  C   UNL     1      42.697 -18.382   3.824  1.00  0.00     0.025 C 
ENDBRANCH  23  26
ENDBRANCH   2  22
TORSDOF 4
ENDMDL
MODEL 2
REMARK VINA RESULT:     -10.0      0.911      2.429
REMARK  4 active torsions:
REMARK  status: ('A' for Active; 'I' for Inactive)
REMARK    1  A    between atoms: N_4  and  C_5 
REMARK    2  A    between atoms: C_15  and  N_16 
REMARK       I    between atoms: N_16  and  C_17 
REMARK    3  A    between atoms: C_17  and  C_18 
REMARK       I    between atoms: C_18  and  N_19 
REMARK    4  A    between atoms: N_19  and  C_20 
ROOT
HETATM    1  N   UNL     1      40.479 -13.106   6.257  1.00  0.00    -0.303 N 
HETATM    2  C   UNL     1      41.596 -13.606   5.613  1.00  0.00     0.315 C 
HETATM    3  O   UNL     1      42.495 -12.975   5.070  1.00  0.00    -0.262 OA
HETATM    4  H   UNL     1      40.039 -13.725   6.933  1.00  0.00     0.171 HD
ENDROOT
BRANCH   1   5
HETATM    5  C   UNL     1      40.201 -11.752   6.256  1.00  0.00     0.152 C 
HETATM    6  N   UNL     1      40.476 -10.848   7.281  1.00  0.00    -0.045 N 
HETATM    7  N   UNL     1      39.853  -9.643   7.054  1.00  0.00    -0.156 NA
HETATM    8  C   UNL     1      39.420  -9.730   5.791  1.00  0.00     0.055 C 
HETATM    9  C   UNL     1      38.749  -8.575   5.147  1.00  0.00     0.072 C 
HETATM   10  C   UNL     1      39.658 -11.006   5.235  1.00  0.00     0.079 C 
BRANCH   6  11
HETATM   11  C   UNL     1      41.409 -10.932   8.342  1.00  0.00     0.732 A 
HETATM   12  N   UNL     1      42.700 -10.925   8.188  1.00  0.00    -0.067 NA
HETATM   13  C   UNL     1      43.409 -10.971   9.354  1.00  0.00     0.065 A 
HETATM   14  C   UNL     1      42.895 -10.987  10.584  1.00  0.00     0.036 A 
HETATM   15  C   UNL     1      44.900 -10.982   9.390  1.00  0.00     0.061 C 
HETATM   16  C   UNL     1      43.919 -11.006  11.652  1.00  0.00     0.047 C 
HETATM   17  C   UNL     1      41.443 -10.961  10.748  1.00  0.00     0.268 A 
HETATM   18  C   UNL     1      45.191 -11.330  10.857  1.00  0.00     0.011 C 
HETATM   19  O   UNL     1      40.904 -10.938  11.845  1.00  0.00    -0.267 OA
HETATM   20  N   UNL     1      40.766 -10.952   9.562  1.00  0.00    -0.152 N 
HETATM   21  H   UNL     1      39.752 -10.900   9.574  1.00  0.00     0.188 HD
ENDBRANCH   6  11
ENDBRANCH   1   5
BRANCH   2  22
HETATM   22  C   UNL     1      41.700 -15.143   5.700  1.00  0.00     0.310 C 
HETATM   23  N   UNL     1      42.656 -15.665   4.857  1.00  0.00    -0.348 N 
HETATM   24  H   UNL     1      43.076 -14.966   4.245  1.00  0.00     0.163 HD
HETATM   25  O   UNL     1      40.968 -15.757   6.460  1.00  0.00    -0.262 OA
BRANCH  23  26
HETATM   26  C   UNL     1      42.746 -17.073   4.471  1.00  0.00     0.084 C 
HETATM   27  C   UNL     1      43.091 -17.131   2.960  1.00  0.00     0.025 C 
HETATM   28  C   UNL     1      42.846 -18.502   2.315  1.00  0.00     0.002 C 
HETATM   29  C   UNL     1      44.144 -19.205   1.898  1.00  0.00     0.000 C 
HETATM   30  C   UNL     1      43.967 -20.717   1.681  1.00  0.00     0.000 C 
HETATM   31  C   UNL     1      44.554 -21.553   2.828  1.00  0.00     0.000 C 
HETATM   32  C   UNL     1      43.804 -21.380   4.150  1.00  0.00     0.000 C 
HETATM   33  C   UNL     1      44.717 -21.555   5.361  1.00  0.00     0.000 C 
HETATM   34  C   UNL     1      44.034 -21.207   6.690  1.00  0.00     0.000 C 
HETATM   35  C   UNL     1      44.073 -19.719   7.077  1.00  0.00     0.000 C 
HETATM   36  C   UNL     1      43.079 -18.815   6.335  1.00  0.00     0.002 C 
HETATM   37  C   UNL     1      43.762 -17.859   5.338  1.00  0.00     0.025 C 
ENDBRANCH  23  26
ENDBRANCH   2  22
TORSDOF 4
ENDMDL
MODEL 3
REMARK VINA RESULT:      -9.6      4.923      9.338
REMARK  4 active torsions:
REMARK  status: ('A' for Active; 'I' for Inactive)
REMARK    1  A    between atoms: N_4  and  C_5 
REMARK    2  A    between atoms: C_15  and  N_16 
REMARK       I    between atoms: N_16  and  C_17 
REMARK    3  A    between atoms: C_17  and  C_18 
REMARK       I    between atoms: C_18  and  N_19 
REMARK    4  A    between atoms: N_19  and  C_20 
ROOT
HETATM    1  N   UNL     1      42.687 -15.196   3.582  1.00  0.00    -0.303 N 
HETATM    2  C   UNL     1      41.361 -15.582   3.502  1.00  0.00     0.315 C 
HETATM    3  O   UNL     1      40.589 -15.814   4.425  1.00  0.00    -0.262 OA
HETATM    4  H   UNL     1      43.063 -14.720   2.767  1.00  0.00     0.171 HD
ENDROOT
BRANCH   1   5
HETATM    5  C   UNL     1      43.339 -15.132   4.800  1.00  0.00     0.152 C 
HETATM    6  N   UNL     1      43.691 -16.211   5.609  1.00  0.00    -0.045 N 
HETATM    7  N   UNL     1      44.102 -15.780   6.850  1.00  0.00    -0.156 NA
HETATM    8  C   UNL     1      44.241 -14.458   6.709  1.00  0.00     0.055 C 
HETATM    9  C   UNL     1      44.750 -13.633   7.832  1.00  0.00     0.072 C 
HETATM   10  C   UNL     1      43.826 -14.013   5.435  1.00  0.00     0.079 C 
BRANCH   6  11
HETATM   11  C   UNL     1      43.864 -17.576   5.282  1.00  0.00     0.732 A 
HETATM   12  N   UNL     1      44.186 -18.014   4.100  1.00  0.00    -0.067 NA
HETATM   13  C   UNL     1      44.343 -19.367   4.021  1.00  0.00     0.065 A 
HETATM   14  C   UNL     1      44.230 -20.230   5.032  1.00  0.00     0.036 A 
HETATM   15  C   UNL     1      44.701 -20.065   2.753  1.00  0.00     0.061 C 
HETATM   16  C   UNL     1      44.489 -21.634   4.642  1.00  0.00     0.047 C 
HETATM   17  C   UNL     1      43.901 -19.726   6.363  1.00  0.00     0.268 A 
HETATM   18  C   UNL     1      44.470 -21.540   3.111  1.00  0.00     0.011 C 
HETATM   19  O   UNL     1      43.817 -20.454   7.342  1.00  0.00    -0.267 OA
HETATM   20  N   UNL     1      43.715 -18.373   6.398  1.00  0.00    -0.152 N 
HETATM   21  H   UNL     1      43.516 -17.925   7.287  1.00  0.00     0.188 HD
ENDBRANCH   6  11
ENDBRANCH   1   5
BRANCH   2  22
HETATM   22  C   UNL     1      40.836 -15.626   2.052  1.00  0.00     0.310 C 
HETATM   23  N   UNL     1      41.194 -14.517   1.317  1.00  0.00    -0.348 N 
HETATM   24  H   UNL     1      41.666 -13.805   1.872  1.00  0.00     0.163 HD
HETATM   25  O   UNL     1      40.173 -16.581   1.678  1.00  0.00    -0.262 OA
BRANCH  23  26
HETATM   26  C   UNL     1      40.571 -14.119   0.054  1.00  0.00     0.084 C 
HETATM   27  C   UNL     1      39.079 -13.805   0.338  1.00  0.00     0.025 C 
HETATM   28  C   UNL     1      38.202 -13.747  -0.919  1.00  0.00     0.002 C 
HETATM   29  C   UNL     1      37.691 -12.334  -1.226  1.00  0.00     0.000 C 
HETATM   30  C   UNL     1      37.213 -12.169  -2.678  1.00  0.00     0.000 C 
HETATM   31  C   UNL     1      38.207 -11.382  -3.545  1.00  0.00     0.000 C 
HETATM   32  C   UNL     1      39.526 -12.122  -3.778  1.00  0.00     0.000 C 
HETATM   33  C   UNL     1      40.704 -11.165  -3.948  1.00  0.00     0.000 C 
HETATM   34  C   UNL     1      42.060 -11.880  -3.999  1.00  0.00     0.000 C 
HETATM   35  C   UNL     1      42.701 -12.170  -2.632  1.00  0.00     0.000 C 
HETATM   36  C   UNL     1      42.110 -13.360  -1.861  1.00  0.00     0.002 C 
HETATM   37  C   UNL     1      41.306 -12.933  -0.618  1.00  0.00     0.025 C 
ENDBRANCH  23  26
ENDBRANCH   2  22
TORSDOF 4
ENDMDL
MODEL 4
REMARK VINA RESULT:      -9.6      5.703      9.028
REMARK  4 active torsions:
REMARK  status: ('A' for Active; 'I' for Inactive)
REMARK    1  A    between atoms: N_4  and  C_5 
REMARK    2  A    between atoms: C_15  and  N_16 
REMARK       I    between atoms: N_16  and  C_17 
REMARK    3  A    between atoms: C_17  and  C_18 
REMARK       I    between atoms: C_18  and  N_19 
REMARK    4  A    between atoms: N_19  and  C_20 
ROOT
HETATM    1  N   UNL     1      42.061 -12.540   0.663  1.00  0.00    -0.303 N 
HETATM    2  C   UNL     1      40.909 -12.811   1.379  1.00  0.00     0.315 C 
HETATM    3  O   UNL     1      39.794 -12.330   1.217  1.00  0.00    -0.262 OA
HETATM    4  H   UNL     1      42.782 -13.255   0.691  1.00  0.00     0.171 HD
ENDROOT
BRANCH   1   5
HETATM    5  C   UNL     1      42.084 -11.552  -0.304  1.00  0.00     0.152 C 
HETATM    6  N   UNL     1      41.663 -11.678  -1.627  1.00  0.00    -0.045 N 
HETATM    7  N   UNL     1      42.051 -10.587  -2.371  1.00  0.00    -0.156 NA
HETATM    8  C   UNL     1      42.471  -9.701  -1.462  1.00  0.00     0.055 C 
HETATM    9  C   UNL     1      42.907  -8.346  -1.878  1.00  0.00     0.072 C 
HETATM   10  C   UNL     1      42.464 -10.238  -0.155  1.00  0.00     0.079 C 
BRANCH   6  11
HETATM   11  C   UNL     1      40.780 -12.613  -2.217  1.00  0.00     0.732 A 
HETATM   12  N   UNL     1      39.540 -12.363  -2.519  1.00  0.00    -0.067 NA
HETATM   13  C   UNL     1      38.884 -13.398  -3.120  1.00  0.00     0.065 A 
HETATM   14  C   UNL     1      39.411 -14.582  -3.436  1.00  0.00     0.036 A 
HETATM   15  C   UNL     1      37.454 -13.315  -3.534  1.00  0.00     0.061 C 
HETATM   16  C   UNL     1      38.459 -15.491  -4.110  1.00  0.00     0.047 C 
HETATM   17  C   UNL     1      40.814 -14.842  -3.122  1.00  0.00     0.268 A 
HETATM   18  C   UNL     1      37.123 -14.776  -3.870  1.00  0.00     0.011 C 
HETATM   19  O   UNL     1      41.372 -15.890  -3.415  1.00  0.00    -0.267 OA
HETATM   20  N   UNL     1      41.429 -13.799  -2.489  1.00  0.00    -0.152 N 
HETATM   21  H   UNL     1      42.415 -13.873  -2.261  1.00  0.00     0.188 HD
ENDBRANCH   6  11
ENDBRANCH   1   5
BRANCH   2  22
HETATM   22  C   UNL     1      41.106 -13.918   2.435  1.00  0.00     0.310 C 
HETATM   23  N   UNL     1      42.230 -14.681   2.211  1.00  0.00    -0.348 N 
HETATM   24  H   UNL     1      42.700 -14.454   1.336  1.00  0.00     0.163 HD
HETATM   25  O   UNL     1      40.296 -14.040   3.341  1.00  0.00    -0.262 OA
BRANCH  23  26
HETATM   26  C   UNL     1      42.487 -15.985   2.823  1.00  0.00     0.084 C 
HETATM   27  C   UNL     1      42.891 -16.968   1.695  1.00  0.00     0.025 C 
HETATM   28  C   UNL     1      42.822 -18.447   2.099  1.00  0.00     0.002 C 
HETATM   29  C   UNL     1      44.203 -19.109   2.180  1.00  0.00     0.000 C 
HETATM   30  C   UNL     1      44.199 -20.410   2.999  1.00  0.00     0.000 C 
HETATM   31  C   UNL     1      44.831 -20.238   4.388  1.00  0.00     0.000 C 
HETATM   32  C   UNL     1      44.017 -19.333   5.316  1.00  0.00     0.000 C 
HETATM   33  C   UNL     1      44.899 -18.585   6.314  1.00  0.00     0.000 C 
HETATM   34  C   UNL     1      44.133 -17.537   7.130  1.00  0.00     0.000 C 
HETATM   35  C   UNL     1      43.995 -16.158   6.463  1.00  0.00     0.000 C 
HETATM   36  C   UNL     1      42.937 -16.060   5.355  1.00  0.00     0.002 C 
HETATM   37  C   UNL     1      43.549 -15.910   3.949  1.00  0.00     0.025 C 
ENDBRANCH  23  26
ENDBRANCH   2  22
TORSDOF 4
ENDMDL
MODEL 5
REMARK VINA RESULT:      -9.4      6.087      8.569
REMARK  4 active torsions:
REMARK  status: ('A' for Active; 'I' for Inactive)
REMARK    1  A    between atoms: N_4  and  C_5 
REMARK    2  A    between atoms: C_15  and  N_16 
REMARK       I    between atoms: N_16  and  C_17 
REMARK    3  A    between atoms: C_17  and  C_18 
REMARK       I    between atoms: C_18  and  N_19 
REMARK    4  A    between atoms: N_19  and  C_20 
ROOT
HETATM    1  N   UNL     1      39.248 -14.376  -0.537  1.00  0.00    -0.303 N 
HETATM    2  C   UNL     1      40.508 -14.947  -0.514  1.00  0.00     0.315 C 
HETATM    3  O   UNL     1      41.325 -15.000  -1.426  1.00  0.00    -0.262 OA
HETATM    4  H   UNL     1      38.861 -14.115   0.366  1.00  0.00     0.171 HD
ENDROOT
BRANCH   1   5
HETATM    5  C   UNL     1      38.717 -13.866  -1.707  1.00  0.00     0.152 C 
HETATM    6  N   UNL     1      39.019 -12.636  -2.287  1.00  0.00    -0.045 N 
HETATM    7  N   UNL     1      38.138 -12.342  -3.302  1.00  0.00    -0.156 NA
HETATM    8  C   UNL     1      37.475 -13.486  -3.503  1.00  0.00     0.055 C 
HETATM    9  C   UNL     1      36.471 -13.590  -4.590  1.00  0.00     0.072 C 
HETATM   10  C   UNL     1      37.835 -14.480  -2.568  1.00  0.00     0.079 C 
BRANCH   6  11
HETATM   11  C   UNL     1      40.152 -11.805  -2.120  1.00  0.00     0.732 A 
HETATM   12  N   UNL     1      40.561 -11.339  -0.977  1.00  0.00    -0.067 NA
HETATM   13  C   UNL     1      41.702 -10.593  -1.045  1.00  0.00     0.065 A 
HETATM   14  C   UNL     1      42.414 -10.348  -2.145  1.00  0.00     0.036 A 
HETATM   15  C   UNL     1      42.325  -9.963   0.155  1.00  0.00     0.061 C 
HETATM   16  C   UNL     1      43.622  -9.532  -1.897  1.00  0.00     0.047 C 
HETATM   17  C   UNL     1      41.966 -10.903  -3.420  1.00  0.00     0.268 A 
HETATM   18  C   UNL     1      43.368  -9.026  -0.471  1.00  0.00     0.011 C 
HETATM   19  O   UNL     1      42.588 -10.749  -4.462  1.00  0.00    -0.267 OA
HETATM   20  N   UNL     1      40.802 -11.612  -3.322  1.00  0.00    -0.152 N 
HETATM   21  H   UNL     1      40.430 -12.066  -4.150  1.00  0.00     0.188 HD
ENDBRANCH   6  11
ENDBRANCH   1   5
BRANCH   2  22
HETATM   22  C   UNL     1      40.895 -15.490   0.877  1.00  0.00     0.310 C 
HETATM   23  N   UNL     1      41.990 -16.326   0.842  1.00  0.00    -0.348 N 
HETATM   24  H   UNL     1      42.310 -16.526  -0.104  1.00  0.00     0.163 HD
HETATM   25  O   UNL     1      40.241 -15.166   1.856  1.00  0.00    -0.262 OA
BRANCH  23  26
HETATM   26  C   UNL     1      42.372 -17.242   1.917  1.00  0.00     0.084 C 
HETATM   27  C   UNL     1      43.053 -18.476   1.270  1.00  0.00     0.025 C 
HETATM   28  C   UNL     1      43.166 -19.689   2.203  1.00  0.00     0.002 C 
HETATM   29  C   UNL     1      44.614 -20.004   2.600  1.00  0.00     0.000 C 
HETATM   30  C   UNL     1      44.716 -20.890   3.851  1.00  0.00     0.000 C 
HETATM   31  C   UNL     1      45.146 -20.106   5.100  1.00  0.00     0.000 C 
HETATM   32  C   UNL     1      44.100 -19.094   5.571  1.00  0.00     0.000 C 
HETATM   33  C   UNL     1      44.733 -17.881   6.250  1.00  0.00     0.000 C 
HETATM   34  C   UNL     1      43.724 -16.770   6.567  1.00  0.00     0.000 C 
HETATM   35  C   UNL     1      43.453 -15.784   5.418  1.00  0.00     0.000 C 
HETATM   36  C   UNL     1      42.529 -16.299   4.305  1.00  0.00     0.002 C 
HETATM   37  C   UNL     1      43.271 -16.562   2.980  1.00  0.00     0.025 C 
ENDBRANCH  23  26
ENDBRANCH   2  22
TORSDOF 4
ENDMDL
MODEL 6
REMARK VINA RESULT:      -9.4      4.431      7.432
REMARK  4 active torsions:
REMARK  status: ('A' for Active; 'I' for Inactive)
REMARK    1  A    between atoms: N_4  and  C_5 
REMARK    2  A    between atoms: C_15  and  N_16 
REMARK       I    between atoms: N_16  and  C_17 
REMARK    3  A    between atoms: C_17  and  C_18 
REMARK       I    between atoms: C_18  and  N_19 
REMARK    4  A    between atoms: N_19  and  C_20 
ROOT
HETATM    1  N   UNL     1      40.015 -13.808   3.453  1.00  0.00    -0.303 N 
HETATM    2  C   UNL     1      41.339 -14.168   3.629  1.00  0.00     0.315 C 
HETATM    3  O   UNL     1      42.333 -13.463   3.499  1.00  0.00    -0.262 OA
HETATM    4  H   UNL     1      39.329 -14.388   3.928  1.00  0.00     0.171 HD
ENDROOT
BRANCH   1   5
HETATM    5  C   UNL     1      39.674 -12.555   2.980  1.00  0.00     0.152 C 
HETATM    6  N   UNL     1      39.730 -12.125   1.655  1.00  0.00    -0.045 N 
HETATM    7  N   UNL     1      39.556 -10.763   1.573  1.00  0.00    -0.156 NA
HETATM    8  C   UNL     1      39.147 -10.409   2.796  1.00  0.00     0.055 C 
HETATM    9  C   UNL     1      38.779  -9.002   3.087  1.00  0.00     0.072 C 
HETATM   10  C   UNL     1      39.155 -11.499   3.695  1.00  0.00     0.079 C 
BRANCH   6  11
HETATM   11  C   UNL     1      39.736 -12.875   0.455  1.00  0.00     0.732 A 
HETATM   12  N   UNL     1      40.539 -13.868   0.213  1.00  0.00    -0.067 NA
HETATM   13  C   UNL     1      40.340 -14.476  -0.993  1.00  0.00     0.065 A 
HETATM   14  C   UNL     1      39.400 -14.159  -1.885  1.00  0.00     0.036 A 
HETATM   15  C   UNL     1      41.164 -15.627  -1.461  1.00  0.00     0.061 C 
HETATM   16  C   UNL     1      39.414 -15.020  -3.088  1.00  0.00     0.047 C 
HETATM   17  C   UNL     1      38.482 -13.061  -1.590  1.00  0.00     0.268 A 
HETATM   18  C   UNL     1      40.758 -15.744  -2.938  1.00  0.00     0.011 C 
HETATM   19  O   UNL     1      37.575 -12.739  -2.345  1.00  0.00    -0.267 OA
HETATM   20  N   UNL     1      38.733 -12.454  -0.393  1.00  0.00    -0.152 N 
HETATM   21  H   UNL     1      38.125 -11.701  -0.085  1.00  0.00     0.188 HD
ENDBRANCH   6  11
ENDBRANCH   1   5
BRANCH   2  22
HETATM   22  C   UNL     1      41.505 -15.619   4.127  1.00  0.00     0.310 C 
HETATM   23  N   UNL     1      42.497 -16.305   3.461  1.00  0.00    -0.348 N 
HETATM   24  H   UNL     1      42.897 -15.778   2.686  1.00  0.00     0.163 HD
HETATM   25  O   UNL     1      40.785 -16.037   5.019  1.00  0.00    -0.262 OA
BRANCH  23  26
HETATM   26  C   UNL     1      42.651 -17.760   3.469  1.00  0.00     0.084 C 
HETATM   27  C   UNL     1      43.077 -18.200   2.045  1.00  0.00     0.025 C 
HETATM   28  C   UNL     1      42.910 -19.703   1.778  1.00  0.00     0.002 C 
HETATM   29  C   UNL     1      44.250 -20.433   1.619  1.00  0.00     0.000 C 
HETATM   30  C   UNL     1      44.132 -21.954   1.807  1.00  0.00     0.000 C 
HETATM   31  C   UNL     1      44.684 -22.430   3.159  1.00  0.00     0.000 C 
HETATM   32  C   UNL     1      43.859 -21.946   4.354  1.00  0.00     0.000 C 
HETATM   33  C   UNL     1      44.713 -21.753   5.606  1.00  0.00     0.000 C 
HETATM   34  C   UNL     1      43.949 -21.097   6.763  1.00  0.00     0.000 C 
HETATM   35  C   UNL     1      43.920 -19.559   6.741  1.00  0.00     0.000 C 
HETATM   36  C   UNL     1      42.939 -18.929   5.742  1.00  0.00     0.002 C 
HETATM   37  C   UNL     1      43.644 -18.242   4.557  1.00  0.00     0.025 C 
ENDBRANCH  23  26
ENDBRANCH   2  22
TORSDOF 4
ENDMDL
MODEL 7
REMARK VINA RESULT:      -9.4      2.704      9.695
REMARK  4 active torsions:
REMARK  status: ('A' for Active; 'I' for Inactive)
REMARK    1  A    between atoms: N_4  and  C_5 
REMARK    2  A    between atoms: C_15  and  N_16 
REMARK       I    between atoms: N_16  and  C_17 
REMARK    3  A    between atoms: C_17  and  C_18 
REMARK       I    between atoms: C_18  and  N_19 
REMARK    4  A    between atoms: N_19  and  C_20 
ROOT
HETATM    1  N   UNL     1      40.729 -12.508   4.946  1.00  0.00    -0.303 N 
HETATM    2  C   UNL     1      39.928 -12.261   6.045  1.00  0.00     0.315 C 
HETATM    3  O   UNL     1      38.803 -12.693   6.267  1.00  0.00    -0.262 OA
HETATM    4  H   UNL     1      41.727 -12.367   5.081  1.00  0.00     0.171 HD
ENDROOT
BRANCH   1   5
HETATM    5  C   UNL     1      40.258 -13.234   3.868  1.00  0.00     0.152 C 
HETATM    6  N   UNL     1      40.819 -14.398   3.344  1.00  0.00    -0.045 N 
HETATM    7  N   UNL     1      40.246 -14.718   2.135  1.00  0.00    -0.156 NA
HETATM    8  C   UNL     1      39.182 -13.911   2.052  1.00  0.00     0.055 C 
HETATM    9  C   UNL     1      38.252 -14.012   0.901  1.00  0.00     0.072 C 
HETATM   10  C   UNL     1      39.119 -13.003   3.132  1.00  0.00     0.079 C 
BRANCH   6  11
HETATM   11  C   UNL     1      41.692 -15.337   3.943  1.00  0.00     0.732 A 
HETATM   12  N   UNL     1      42.298 -15.158   5.079  1.00  0.00    -0.067 NA
HETATM   13  C   UNL     1      43.058 -16.215   5.488  1.00  0.00     0.065 A 
HETATM   14  C   UNL     1      43.191 -17.379   4.850  1.00  0.00     0.036 A 
HETATM   15  C   UNL     1      43.839 -16.202   6.758  1.00  0.00     0.061 C 
HETATM   16  C   UNL     1      44.060 -18.344   5.558  1.00  0.00     0.047 C 
HETATM   17  C   UNL     1      42.480 -17.583   3.590  1.00  0.00     0.268 A 
HETATM   18  C   UNL     1      44.722 -17.450   6.614  1.00  0.00     0.011 C 
HETATM   19  O   UNL     1      42.527 -18.636   2.971  1.00  0.00    -0.267 OA
HETATM   20  N   UNL     1      41.759 -16.493   3.194  1.00  0.00    -0.152 N 
HETATM   21  H   UNL     1      41.203 -16.552   2.346  1.00  0.00     0.188 HD
ENDBRANCH   6  11
ENDBRANCH   1   5
BRANCH   2  22
HETATM   22  C   UNL     1      40.628 -11.400   7.117  1.00  0.00     0.310 C 
HETATM   23  N   UNL     1      39.974 -11.414   8.329  1.00  0.00    -0.348 N 
HETATM   24  H   UNL     1      39.085 -11.912   8.299  1.00  0.00     0.163 HD
HETATM   25  O   UNL     1      41.651 -10.796   6.834  1.00  0.00    -0.262 OA
BRANCH  23  26
HETATM   26  C   UNL     1      40.196 -10.448   9.406  1.00  0.00     0.084 C 
HETATM   27  C   UNL     1      38.809  -9.973   9.911  1.00  0.00     0.025 C 
HETATM   28  C   UNL     1      38.856  -8.695  10.759  1.00  0.00     0.002 C 
HETATM   29  C   UNL     1      38.502  -8.941  12.231  1.00  0.00     0.000 C 
HETATM   30  C   UNL     1      38.973  -7.811  13.161  1.00  0.00     0.000 C 
HETATM   31  C   UNL     1      40.210  -8.198  13.985  1.00  0.00     0.000 C 
HETATM   32  C   UNL     1      41.469  -8.392  13.137  1.00  0.00     0.000 C 
HETATM   33  C   UNL     1      42.420  -9.425  13.738  1.00  0.00     0.000 C 
HETATM   34  C   UNL     1      43.597  -9.771  12.818  1.00  0.00     0.000 C 
HETATM   35  C   UNL     1      43.316 -10.871  11.779  1.00  0.00     0.000 C 
HETATM   36  C   UNL     1      42.495 -10.435  10.557  1.00  0.00     0.002 C 
HETATM   37  C   UNL     1      41.073 -11.026  10.545  1.00  0.00     0.025 C 
ENDBRANCH  23  26
ENDBRANCH   2  22
TORSDOF 4
ENDMDL
MODEL 8
REMARK VINA RESULT:      -9.3      4.045      5.566
REMARK  4 active torsions:
REMARK  status: ('A' for Active; 'I' for Inactive)
REMARK    1  A    between atoms: N_4  and  C_5 
REMARK    2  A    between atoms: C_15  and  N_16 
REMARK       I    between atoms: N_16  and  C_17 
REMARK    3  A    between atoms: C_17  and  C_18 
REMARK       I    between atoms: C_18  and  N_19 
REMARK    4  A    between atoms: N_19  and  C_20 
ROOT
HETATM    1  N   UNL     1      40.105 -15.243   0.292  1.00  0.00    -0.303 N 
HETATM    2  C   UNL     1      41.459 -15.036   0.485  1.00  0.00     0.315 C 
HETATM    3  O   UNL     1      42.078 -13.983   0.390  1.00  0.00    -0.262 OA
HETATM    4  H   UNL     1      39.712 -16.066   0.741  1.00  0.00     0.171 HD
ENDROOT
BRANCH   1   5
HETATM    5  C   UNL     1      39.285 -14.227  -0.160  1.00  0.00     0.152 C 
HETATM    6  N   UNL     1      38.570 -13.326   0.627  1.00  0.00    -0.045 N 
HETATM    7  N   UNL     1      37.673 -12.612  -0.135  1.00  0.00    -0.156 NA
HETATM    8  C   UNL     1      38.019 -12.891  -1.397  1.00  0.00     0.055 C 
HETATM    9  C   UNL     1      37.318 -12.239  -2.529  1.00  0.00     0.072 C 
HETATM   10  C   UNL     1      39.051 -13.853  -1.464  1.00  0.00     0.079 C 
BRANCH   6  11
HETATM   11  C   UNL     1      38.771 -12.932   1.971  1.00  0.00     0.732 A 
HETATM   12  N   UNL     1      39.423 -13.631   2.852  1.00  0.00    -0.067 NA
HETATM   13  C   UNL     1      39.532 -13.038   4.076  1.00  0.00     0.065 A 
HETATM   14  C   UNL     1      39.069 -11.832   4.408  1.00  0.00     0.036 A 
HETATM   15  C   UNL     1      40.234 -13.681   5.224  1.00  0.00     0.061 C 
HETATM   16  C   UNL     1      39.368 -11.447   5.804  1.00  0.00     0.047 C 
HETATM   17  C   UNL     1      38.365 -11.040   3.401  1.00  0.00     0.268 A 
HETATM   18  C   UNL     1      39.832 -12.782   6.402  1.00  0.00     0.011 C 
HETATM   19  O   UNL     1      37.945  -9.913   3.624  1.00  0.00    -0.267 OA
HETATM   20  N   UNL     1      38.243 -11.678   2.200  1.00  0.00    -0.152 N 
HETATM   21  H   UNL     1      37.798 -11.193   1.427  1.00  0.00     0.188 HD
ENDBRANCH   6  11
ENDBRANCH   1   5
BRANCH   2  22
HETATM   22  C   UNL     1      42.199 -16.306   0.955  1.00  0.00     0.310 C 
HETATM   23  N   UNL     1      42.002 -16.580   2.290  1.00  0.00    -0.348 N 
HETATM   24  H   UNL     1      41.477 -15.853   2.775  1.00  0.00     0.163 HD
HETATM   25  O   UNL     1      42.874 -16.940   0.160  1.00  0.00    -0.262 OA
BRANCH  23  26
HETATM   26  C   UNL     1      42.827 -17.492   3.083  1.00  0.00     0.084 C 
HETATM   27  C   UNL     1      42.544 -17.208   4.581  1.00  0.00     0.025 C 
HETATM   28  C   UNL     1      43.590 -17.796   5.537  1.00  0.00     0.002 C 
HETATM   29  C   UNL     1      43.037 -18.940   6.396  1.00  0.00     0.000 C 
HETATM   30  C   UNL     1      44.139 -19.821   7.007  1.00  0.00     0.000 C 
HETATM   31  C   UNL     1      44.274 -21.178   6.300  1.00  0.00     0.000 C 
HETATM   32  C   UNL     1      44.785 -21.065   4.863  1.00  0.00     0.000 C 
HETATM   33  C   UNL     1      44.246 -22.179   3.967  1.00  0.00     0.000 C 
HETATM   34  C   UNL     1      44.594 -21.985   2.486  1.00  0.00     0.000 C 
HETATM   35  C   UNL     1      43.620 -21.097   1.694  1.00  0.00     0.000 C 
HETATM   36  C   UNL     1      43.767 -19.585   1.921  1.00  0.00     0.002 C 
HETATM   37  C   UNL     1      42.591 -18.977   2.709  1.00  0.00     0.025 C 
ENDBRANCH  23  26
ENDBRANCH   2  22
TORSDOF 4
ENDMDL
MODEL 9
REMARK VINA RESULT:      -9.2      5.166      8.514
REMARK  4 active torsions:
REMARK  status: ('A' for Active; 'I' for Inactive)
REMARK    1  A    between atoms: N_4  and  C_5 
REMARK    2  A    between atoms: C_15  and  N_16 
REMARK       I    between atoms: N_16  and  C_17 
REMARK    3  A    between atoms: C_17  and  C_18 
REMARK       I    between atoms: C_18  and  N_19 
REMARK    4  A    between atoms: N_19  and  C_20 
ROOT
HETATM    1  N   UNL     1      38.637 -12.859   2.114  1.00  0.00    -0.303 N 
HETATM    2  C   UNL     1      40.003 -12.842   2.327  1.00  0.00     0.315 C 
HETATM    3  O   UNL     1      40.813 -12.007   1.940  1.00  0.00    -0.262 OA
HETATM    4  H   UNL     1      38.089 -13.403   2.776  1.00  0.00     0.171 HD
ENDROOT
BRANCH   1   5
HETATM    5  C   UNL     1      38.030 -11.923   1.298  1.00  0.00     0.152 C 
HETATM    6  N   UNL     1      38.162 -11.820  -0.086  1.00  0.00    -0.045 N 
HETATM    7  N   UNL     1      37.624 -10.640  -0.545  1.00  0.00    -0.156 NA
HETATM    8  C   UNL     1      36.951 -10.156   0.505  1.00  0.00     0.055 C 
HETATM    9  C   UNL     1      36.159  -8.908   0.379  1.00  0.00     0.072 C 
HETATM   10  C   UNL     1      37.131 -10.946   1.662  1.00  0.00     0.079 C 
BRANCH   6  11
HETATM   11  C   UNL     1      38.563 -12.789  -1.037  1.00  0.00     0.732 A 
HETATM   12  N   UNL     1      37.744 -13.467  -1.786  1.00  0.00    -0.067 NA
HETATM   13  C   UNL     1      38.352 -14.316  -2.664  1.00  0.00     0.065 A 
HETATM   14  C   UNL     1      39.668 -14.468  -2.825  1.00  0.00     0.036 A 
HETATM   15  C   UNL     1      37.588 -15.188  -3.602  1.00  0.00     0.061 C 
HETATM   16  C   UNL     1      40.024 -15.444  -3.878  1.00  0.00     0.047 C 
HETATM   17  C   UNL     1      40.580 -13.679  -2.001  1.00  0.00     0.268 A 
HETATM   18  C   UNL     1      38.677 -16.130  -4.137  1.00  0.00     0.011 C 
HETATM   19  O   UNL     1      41.795 -13.740  -2.119  1.00  0.00    -0.267 OA
HETATM   20  N   UNL     1      39.938 -12.867  -1.110  1.00  0.00    -0.152 N 
HETATM   21  H   UNL     1      40.488 -12.254  -0.517  1.00  0.00     0.188 HD
ENDBRANCH   6  11
ENDBRANCH   1   5
BRANCH   2  22
HETATM   22  C   UNL     1      40.484 -13.992   3.236  1.00  0.00     0.310 C 
HETATM   23  N   UNL     1      41.560 -14.674   2.715  1.00  0.00    -0.348 N 
HETATM   24  H   UNL     1      41.809 -14.372   1.774  1.00  0.00     0.163 HD
HETATM   25  O   UNL     1      39.907 -14.211   4.290  1.00  0.00    -0.262 OA
BRANCH  23  26
HETATM   26  C   UNL     1      42.007 -15.993   3.165  1.00  0.00     0.084 C 
HETATM   27  C   UNL     1      42.304 -16.849   1.907  1.00  0.00     0.025 C 
HETATM   28  C   UNL     1      42.410 -18.354   2.186  1.00  0.00     0.002 C 
HETATM   29  C   UNL     1      43.833 -18.897   2.002  1.00  0.00     0.000 C 
HETATM   30  C   UNL     1      44.055 -20.251   2.695  1.00  0.00     0.000 C 
HETATM   31  C   UNL     1      44.880 -20.129   3.985  1.00  0.00     0.000 C 
HETATM   32  C   UNL     1      44.155 -19.372   5.099  1.00  0.00     0.000 C 
HETATM   33  C   UNL     1      45.122 -18.625   6.016  1.00  0.00     0.000 C 
HETATM   34  C   UNL     1      44.416 -17.713   7.026  1.00  0.00     0.000 C 
HETATM   35  C   UNL     1      44.072 -16.305   6.511  1.00  0.00     0.000 C 
HETATM   36  C   UNL     1      42.850 -16.219   5.585  1.00  0.00     0.002 C 
HETATM   37  C   UNL     1      43.223 -15.909   4.122  1.00  0.00     0.025 C 
ENDBRANCH  23  26
ENDBRANCH   2  22
TORSDOF 4
ENDMDL
MODEL 10
REMARK VINA RESULT:      -9.2      5.088      7.063
REMARK  4 active torsions:
REMARK  status: ('A' for Active; 'I' for Inactive)
REMARK    1  A    between atoms: N_4  and  C_5 
REMARK    2  A    between atoms: C_15  and  N_16 
REMARK       I    between atoms: N_16  and  C_17 
REMARK    3  A    between atoms: C_17  and  C_18 
REMARK       I    between atoms: C_18  and  N_19 
REMARK    4  A    between atoms: N_19  and  C_20 
ROOT
HETATM    1  N   UNL     1      39.919 -13.725   1.534  1.00  0.00    -0.303 N 
HETATM    2  C   UNL     1      40.519 -14.627   0.675  1.00  0.00     0.315 C 
HETATM    3  O   UNL     1      40.394 -14.704  -0.541  1.00  0.00    -0.262 OA
HETATM    4  H   UNL     1      40.386 -13.578   2.424  1.00  0.00     0.171 HD
ENDROOT
BRANCH   1   5
HETATM    5  C   UNL     1      38.973 -12.826   1.077  1.00  0.00     0.152 C 
HETATM    6  N   UNL     1      39.212 -11.535   0.611  1.00  0.00    -0.045 N 
HETATM    7  N   UNL     1      38.035 -10.837   0.469  1.00  0.00    -0.156 NA
HETATM    8  C   UNL     1      37.084 -11.768   0.600  1.00  0.00     0.055 C 
HETATM    9  C   UNL     1      35.654 -11.410   0.432  1.00  0.00     0.072 C 
HETATM   10  C   UNL     1      37.620 -13.033   0.929  1.00  0.00     0.079 C 
BRANCH   6  11
HETATM   11  C   UNL     1      40.401 -10.955   0.107  1.00  0.00     0.732 A 
HETATM   12  N   UNL     1      40.955  -9.880   0.584  1.00  0.00    -0.067 NA
HETATM   13  C   UNL     1      42.121  -9.525  -0.029  1.00  0.00     0.065 A 
HETATM   14  C   UNL     1      42.723 -10.191  -1.016  1.00  0.00     0.036 A 
HETATM   15  C   UNL     1      42.903  -8.318   0.365  1.00  0.00     0.061 C 
HETATM   16  C   UNL     1      43.994  -9.574  -1.454  1.00  0.00     0.047 C 
HETATM   17  C   UNL     1      42.110 -11.416  -1.523  1.00  0.00     0.268 A 
HETATM   18  C   UNL     1      43.923  -8.199  -0.777  1.00  0.00     0.011 C 
HETATM   19  O   UNL     1      42.624 -12.096  -2.400  1.00  0.00    -0.267 OA
HETATM   20  N   UNL     1      40.927 -11.721  -0.913  1.00  0.00    -0.152 N 
HETATM   21  H   UNL     1      40.443 -12.574  -1.175  1.00  0.00     0.188 HD
ENDBRANCH   6  11
ENDBRANCH   1   5
BRANCH   2  22
HETATM   22  C   UNL     1      41.514 -15.565   1.390  1.00  0.00     0.310 C 
HETATM   23  N   UNL     1      41.197 -15.777   2.714  1.00  0.00    -0.348 N 
HETATM   24  H   UNL     1      40.413 -15.209   3.033  1.00  0.00     0.163 HD
HETATM   25  O   UNL     1      42.462 -16.024   0.773  1.00  0.00    -0.262 OA
BRANCH  23  26
HETATM   26  C   UNL     1      42.116 -16.323   3.713  1.00  0.00     0.084 C 
HETATM   27  C   UNL     1      41.612 -15.884   5.112  1.00  0.00     0.025 C 
HETATM   28  C   UNL     1      42.653 -16.040   6.229  1.00  0.00     0.002 C 
HETATM   29  C   UNL     1      42.284 -17.134   7.239  1.00  0.00     0.000 C 
HETATM   30  C   UNL     1      43.484 -17.612   8.073  1.00  0.00     0.000 C 
HETATM   31  C   UNL     1      44.002 -18.989   7.633  1.00  0.00     0.000 C 
HETATM   32  C   UNL     1      44.630 -18.983   6.238  1.00  0.00     0.000 C 
HETATM   33  C   UNL     1      44.461 -20.322   5.521  1.00  0.00     0.000 C 
HETATM   34  C   UNL     1      44.917 -20.286   4.057  1.00  0.00     0.000 C 
HETATM   35  C   UNL     1      43.859 -19.798   3.053  1.00  0.00     0.000 C 
HETATM   36  C   UNL     1      43.631 -18.280   3.014  1.00  0.00     0.002 C 
HETATM   37  C   UNL     1      42.268 -17.860   3.597  1.00  0.00     0.025 C 
ENDBRANCH  23  26
ENDBRANCH   2  22
TORSDOF 4
ENDMDL
