MODEL 1
REMARK VINA RESULT:      -8.6      0.000      0.000
REMARK  6 active torsions:
REMARK  status: ('A' for Active; 'I' for Inactive)
REMARK    1  A    between atoms: N_2  and  C_4 
REMARK    2  A    between atoms: C_4  and  C_5 
REMARK       I    between atoms: C_5  and  N_7 
REMARK    3  A    between atoms: N_7  and  C_8 
REMARK    4  A    between atoms: C_8  and  C_9 
REMARK    5  A    between atoms: C_8  and  C_26 
REMARK    6  A    between atoms: C_14  and  C_20 
ROOT
HETATM    1  C   UNL     1      41.466 -15.388   0.612  1.00  0.00     0.135 A 
HETATM    2  N   UNL     1      40.999 -15.200   1.808  1.00  0.00    -0.232 NA
HETATM    3  C   UNL     1      41.562 -15.949   2.855  1.00  0.00     0.074 A 
HETATM    4  C   UNL     1      41.053 -15.792   4.142  1.00  0.00     0.033 A 
HETATM    5  C   UNL     1      41.549 -16.558   5.204  1.00  0.00     0.014 A 
HETATM    6  C   UNL     1      42.565 -17.501   4.993  1.00  0.00    -0.022 A 
HETATM    7  C   UNL     1      43.097 -17.644   3.706  1.00  0.00     0.031 A 
HETATM    8  C   UNL     1      42.591 -16.871   2.654  1.00  0.00     0.061 A 
HETATM    9  C   UNL     1      43.119 -17.012   1.287  1.00  0.00     0.259 A 
HETATM   10  O   UNL     1      44.067 -17.742   1.026  1.00  0.00    -0.267 OA
HETATM   11  N   UNL     1      42.473 -16.277   0.331  1.00  0.00    -0.309 N 
HETATM   12  H   UNL     1      42.874 -16.293  -0.596  1.00  0.00     0.170 HD
ENDROOT
BRANCH   1  13
HETATM   13  C   UNL     1      40.822 -14.679  -0.594  1.00  0.00     0.187 C 
BRANCH  13  14
HETATM   14  N   UNL     1      39.403 -14.389  -0.411  1.00  0.00    -0.344 N 
HETATM   15  C   UNL     1      38.537 -13.941  -1.372  1.00  0.00     0.247 C 
HETATM   16  O   UNL     1      37.496 -13.391  -1.005  1.00  0.00    -0.272 OA
HETATM   17  H   UNL     1      39.115 -14.053   0.500  1.00  0.00     0.163 HD
BRANCH  15  18
HETATM   18  C   UNL     1      38.848 -14.165  -2.855  1.00  0.00     0.373 C 
BRANCH  18  19
HETATM   19  N   UNL     1      38.009 -15.246  -3.410  1.00  0.00     0.088 N 
HETATM   20  C   UNL     1      36.904 -14.705  -4.210  1.00  0.00     0.310 C 
HETATM   21  C   UNL     1      38.829 -16.132  -4.242  1.00  0.00     0.310 C 
ENDBRANCH  18  19
ENDBRANCH  15  18
ENDBRANCH  13  14
BRANCH  13  22
HETATM   22  C   UNL     1      41.615 -13.411  -0.904  1.00  0.00    -0.028 A 
HETATM   23  C   UNL     1      41.687 -12.392   0.062  1.00  0.00     0.011 A 
HETATM   24  C   UNL     1      42.352 -11.193  -0.212  1.00  0.00     0.024 A 
HETATM   25  C   UNL     1      42.949 -11.000  -1.455  1.00  0.00     0.034 A 
HETATM   26 CL   UNL     1      43.761  -9.524  -1.795  1.00  0.00    -0.084 Cl
HETATM   27  C   UNL     1      42.881 -11.993  -2.429  1.00  0.00     0.024 A 
HETATM   28  C   UNL     1      42.212 -13.191  -2.159  1.00  0.00     0.011 A 
ENDBRANCH  13  22
ENDBRANCH   1  13
BRANCH   6  29
HETATM   29  C   UNL     1      43.035 -18.321   6.095  1.00  0.00     0.010 A 
HETATM   30  C   UNL     1      43.571 -19.630   6.116  1.00  0.00     0.152 A 
HETATM   31  N   UNL     1      43.928 -20.024   7.342  1.00  0.00    -0.187 NA
HETATM   32  N   UNL     1      43.625 -18.966   8.112  1.00  0.00    -0.289 N 
HETATM   33  H   UNL     1      43.818 -19.023   9.106  1.00  0.00     0.188 HD
HETATM   34  C   UNL     1      43.091 -17.922   7.414  1.00  0.00     0.123 A 
ENDBRANCH   6  29
TORSDOF 6
ENDMDL
MODEL 2
REMARK VINA RESULT:      -8.5      4.642      6.682
REMARK  6 active torsions:
REMARK  status: ('A' for Active; 'I' for Inactive)
REMARK    1  A    between atoms: N_2  and  C_4 
REMARK    2  A    between atoms: C_4  and  C_5 
REMARK       I    between atoms: C_5  and  N_7 
REMARK    3  A    between atoms: N_7  and  C_8 
REMARK    4  A    between atoms: C_8  and  C_9 
REMARK    5  A    between atoms: C_8  and  C_26 
REMARK    6  A    between atoms: C_14  and  C_20 
ROOT
HETATM    1  C   UNL     1      42.513 -14.796   5.627  1.00  0.00     0.135 A 
HETATM    2  N   UNL     1      42.864 -15.233   4.456  1.00  0.00    -0.232 NA
HETATM    3  C   UNL     1      43.150 -16.602   4.329  1.00  0.00     0.074 A 
HETATM    4  C   UNL     1      43.563 -17.089   3.090  1.00  0.00     0.033 A 
HETATM    5  C   UNL     1      43.910 -18.436   2.934  1.00  0.00     0.014 A 
HETATM    6  C   UNL     1      43.852 -19.322   4.019  1.00  0.00    -0.022 A 
HETATM    7  C   UNL     1      43.413 -18.843   5.259  1.00  0.00     0.031 A 
HETATM    8  C   UNL     1      43.069 -17.493   5.401  1.00  0.00     0.061 A 
HETATM    9  C   UNL     1      42.621 -16.956   6.697  1.00  0.00     0.259 A 
HETATM   10  O   UNL     1      42.451 -17.672   7.676  1.00  0.00    -0.267 OA
HETATM   11  N   UNL     1      42.414 -15.604   6.731  1.00  0.00    -0.309 N 
HETATM   12  H   UNL     1      42.023 -15.230   7.584  1.00  0.00     0.170 HD
ENDROOT
BRANCH   1  13
HETATM   13  C   UNL     1      42.289 -13.290   5.859  1.00  0.00     0.187 C 
BRANCH  13  14
HETATM   14  N   UNL     1      40.891 -12.936   6.089  1.00  0.00    -0.344 N 
HETATM   15  C   UNL     1      40.044 -12.351   5.187  1.00  0.00     0.247 C 
HETATM   16  O   UNL     1      39.041 -11.777   5.619  1.00  0.00    -0.272 OA
HETATM   17  H   UNL     1      40.632 -12.670   7.032  1.00  0.00     0.163 HD
BRANCH  15  18
HETATM   18  C   UNL     1      40.327 -12.453   3.685  1.00  0.00     0.373 C 
BRANCH  18  19
HETATM   19  N   UNL     1      39.269 -13.225   3.002  1.00  0.00     0.088 N 
HETATM   20  C   UNL     1      38.950 -12.646   1.693  1.00  0.00     0.310 C 
HETATM   21  C   UNL     1      39.702 -14.615   2.832  1.00  0.00     0.310 C 
ENDBRANCH  18  19
ENDBRANCH  15  18
ENDBRANCH  13  14
BRANCH  13  22
HETATM   22  C   UNL     1      43.177 -12.828   7.012  1.00  0.00    -0.028 A 
HETATM   23  C   UNL     1      42.750 -11.766   7.827  1.00  0.00     0.011 A 
HETATM   24  C   UNL     1      43.565 -11.278   8.853  1.00  0.00     0.024 A 
HETATM   25  C   UNL     1      44.817 -11.846   9.072  1.00  0.00     0.034 A 
HETATM   26 CL   UNL     1      45.823 -11.242  10.328  1.00  0.00    -0.084 Cl
HETATM   27  C   UNL     1      45.264 -12.893   8.270  1.00  0.00     0.024 A 
HETATM   28  C   UNL     1      44.452 -13.379   7.241  1.00  0.00     0.011 A 
ENDBRANCH  13  22
ENDBRANCH   1  13
BRANCH   6  29
HETATM   29  C   UNL     1      44.261 -20.705   3.852  1.00  0.00     0.010 A 
HETATM   30  C   UNL     1      44.295 -21.532   2.705  1.00  0.00     0.152 A 
HETATM   31  N   UNL     1      44.779 -22.751   2.959  1.00  0.00    -0.187 NA
HETATM   32  N   UNL     1      45.062 -22.709   4.271  1.00  0.00    -0.289 N 
HETATM   33  H   UNL     1      45.459 -23.535   4.704  1.00  0.00     0.188 HD
HETATM   34  C   UNL     1      44.772 -21.507   4.851  1.00  0.00     0.123 A 
ENDBRANCH   6  29
TORSDOF 6
ENDMDL
MODEL 3
REMARK VINA RESULT:      -8.4      3.904      8.958
REMARK  6 active torsions:
REMARK  status: ('A' for Active; 'I' for Inactive)
REMARK    1  A    between atoms: N_2  and  C_4 
REMARK    2  A    between atoms: C_4  and  C_5 
REMARK       I    between atoms: C_5  and  N_7 
REMARK    3  A    between atoms: N_7  and  C_8 
REMARK    4  A    between atoms: C_8  and  C_9 
REMARK    5  A    between atoms: C_8  and  C_26 
REMARK    6  A    between atoms: C_14  and  C_20 
ROOT
HETATM    1  C   UNL     1      42.395 -15.724   3.367  1.00  0.00     0.135 A 
HETATM    2  N   UNL     1      41.170 -16.075   3.121  1.00  0.00    -0.232 NA
HETATM    3  C   UNL     1      40.385 -15.207   2.346  1.00  0.00     0.074 A 
HETATM    4  C   UNL     1      39.055 -15.544   2.099  1.00  0.00     0.033 A 
HETATM    5  C   UNL     1      38.222 -14.680   1.378  1.00  0.00     0.014 A 
HETATM    6  C   UNL     1      38.707 -13.458   0.891  1.00  0.00    -0.022 A 
HETATM    7  C   UNL     1      40.049 -13.127   1.115  1.00  0.00     0.031 A 
HETATM    8  C   UNL     1      40.870 -14.000   1.838  1.00  0.00     0.061 A 
HETATM    9  C   UNL     1      42.280 -13.670   2.104  1.00  0.00     0.259 A 
HETATM   10  O   UNL     1      42.815 -12.671   1.642  1.00  0.00    -0.267 OA
HETATM   11  N   UNL     1      42.947 -14.554   2.908  1.00  0.00    -0.309 N 
HETATM   12  H   UNL     1      43.937 -14.393   3.031  1.00  0.00     0.170 HD
ENDROOT
BRANCH   1  13
HETATM   13  C   UNL     1      43.277 -16.578   4.297  1.00  0.00     0.187 C 
BRANCH  13  14
HETATM   14  N   UNL     1      42.731 -16.729   5.643  1.00  0.00    -0.344 N 
HETATM   15  C   UNL     1      43.357 -16.397   6.814  1.00  0.00     0.247 C 
HETATM   16  O   UNL     1      42.950 -16.914   7.857  1.00  0.00    -0.272 OA
HETATM   17  H   UNL     1      42.091 -17.500   5.797  1.00  0.00     0.163 HD
BRANCH  15  18
HETATM   18  C   UNL     1      44.500 -15.377   6.814  1.00  0.00     0.373 C 
BRANCH  18  19
HETATM   19  N   UNL     1      44.041 -14.073   7.334  1.00  0.00     0.088 N 
HETATM   20  C   UNL     1      45.168 -13.264   7.811  1.00  0.00     0.310 C 
HETATM   21  C   UNL     1      43.324 -13.345   6.283  1.00  0.00     0.310 C 
ENDBRANCH  18  19
ENDBRANCH  15  18
ENDBRANCH  13  14
BRANCH  13  22
HETATM   22  C   UNL     1      43.522 -17.934   3.640  1.00  0.00    -0.028 A 
HETATM   23  C   UNL     1      44.124 -18.962   4.388  1.00  0.00     0.011 A 
HETATM   24  C   UNL     1      44.419 -20.195   3.800  1.00  0.00     0.024 A 
HETATM   25  C   UNL     1      44.116 -20.413   2.459  1.00  0.00     0.034 A 
HETATM   26 CL   UNL     1      44.485 -21.928   1.733  1.00  0.00    -0.084 Cl
HETATM   27  C   UNL     1      43.528 -19.406   1.698  1.00  0.00     0.024 A 
HETATM   28  C   UNL     1      43.238 -18.170   2.283  1.00  0.00     0.011 A 
ENDBRANCH  13  22
ENDBRANCH   1  13
BRANCH   6  29
HETATM   29  C   UNL     1      37.819 -12.552   0.186  1.00  0.00     0.010 A 
HETATM   30  C   UNL     1      37.699 -12.252  -1.191  1.00  0.00     0.152 A 
HETATM   31  N   UNL     1      36.719 -11.381  -1.449  1.00  0.00    -0.187 NA
HETATM   32  N   UNL     1      36.203 -11.123  -0.237  1.00  0.00    -0.289 N 
HETATM   33  H   UNL     1      35.421 -10.480  -0.173  1.00  0.00     0.188 HD
HETATM   34  C   UNL     1      36.824 -11.799   0.774  1.00  0.00     0.123 A 
ENDBRANCH   6  29
TORSDOF 6
ENDMDL
MODEL 4
REMARK VINA RESULT:      -8.3      1.449      2.171
REMARK  6 active torsions:
REMARK  status: ('A' for Active; 'I' for Inactive)
REMARK    1  A    between atoms: N_2  and  C_4 
REMARK    2  A    between atoms: C_4  and  C_5 
REMARK       I    between atoms: C_5  and  N_7 
REMARK    3  A    between atoms: N_7  and  C_8 
REMARK    4  A    between atoms: C_8  and  C_9 
REMARK    5  A    between atoms: C_8  and  C_26 
REMARK    6  A    between atoms: C_14  and  C_20 
ROOT
HETATM    1  C   UNL     1      40.775 -14.907   0.242  1.00  0.00     0.135 A 
HETATM    2  N   UNL     1      41.693 -15.791  -0.006  1.00  0.00    -0.232 NA
HETATM    3  C   UNL     1      42.122 -16.603   1.057  1.00  0.00     0.074 A 
HETATM    4  C   UNL     1      43.132 -17.535   0.824  1.00  0.00     0.033 A 
HETATM    5  C   UNL     1      43.627 -18.325   1.868  1.00  0.00     0.014 A 
HETATM    6  C   UNL     1      43.120 -18.194   3.169  1.00  0.00    -0.022 A 
HETATM    7  C   UNL     1      42.088 -17.278   3.401  1.00  0.00     0.031 A 
HETATM    8  C   UNL     1      41.603 -16.493   2.348  1.00  0.00     0.061 A 
HETATM    9  C   UNL     1      40.530 -15.508   2.566  1.00  0.00     0.259 A 
HETATM   10  O   UNL     1      39.964 -15.389   3.645  1.00  0.00    -0.267 OA
HETATM   11  N   UNL     1      40.217 -14.734   1.483  1.00  0.00    -0.309 N 
HETATM   12  H   UNL     1      39.426 -14.114   1.587  1.00  0.00     0.170 HD
ENDROOT
BRANCH   1  13
HETATM   13  C   UNL     1      40.336 -13.915  -0.851  1.00  0.00     0.187 C 
BRANCH  13  14
HETATM   14  N   UNL     1      38.977 -13.412  -0.671  1.00  0.00    -0.344 N 
HETATM   15  C   UNL     1      38.145 -12.955  -1.657  1.00  0.00     0.247 C 
HETATM   16  O   UNL     1      37.203 -12.228  -1.331  1.00  0.00    -0.272 OA
HETATM   17  H   UNL     1      38.772 -12.942   0.203  1.00  0.00     0.163 HD
BRANCH  15  18
HETATM   18  C   UNL     1      38.366 -13.380  -3.111  1.00  0.00     0.373 C 
BRANCH  18  19
HETATM   19  N   UNL     1      37.787 -14.715  -3.363  1.00  0.00     0.088 N 
HETATM   20  C   UNL     1      36.640 -14.634  -4.274  1.00  0.00     0.310 C 
HETATM   21  C   UNL     1      38.807 -15.598  -3.935  1.00  0.00     0.310 C 
ENDBRANCH  18  19
ENDBRANCH  15  18
ENDBRANCH  13  14
BRANCH  13  22
HETATM   22  C   UNL     1      41.348 -12.774  -0.921  1.00  0.00    -0.028 A 
HETATM   23  C   UNL     1      41.287 -11.742   0.031  1.00  0.00     0.011 A 
HETATM   24  C   UNL     1      42.159 -10.651  -0.039  1.00  0.00     0.024 A 
HETATM   25  C   UNL     1      43.098 -10.581  -1.064  1.00  0.00     0.034 A 
HETATM   26 CL   UNL     1      44.166  -9.236  -1.156  1.00  0.00    -0.084 Cl
HETATM   27  C   UNL     1      43.169 -11.588  -2.023  1.00  0.00     0.024 A 
HETATM   28  C   UNL     1      42.295 -12.677  -1.957  1.00  0.00     0.011 A 
ENDBRANCH  13  22
ENDBRANCH   1  13
BRANCH   6  29
HETATM   29  C   UNL     1      43.677 -18.987   4.249  1.00  0.00     0.010 A 
HETATM   30  C   UNL     1      43.465 -18.933   5.647  1.00  0.00     0.152 A 
HETATM   31  N   UNL     1      44.143 -19.873   6.311  1.00  0.00    -0.187 NA
HETATM   32  N   UNL     1      44.790 -20.538   5.340  1.00  0.00    -0.289 N 
HETATM   33  H   UNL     1      45.378 -21.322   5.603  1.00  0.00     0.188 HD
HETATM   34  C   UNL     1      44.543 -20.048   4.090  1.00  0.00     0.123 A 
ENDBRANCH   6  29
TORSDOF 6
ENDMDL
MODEL 5
REMARK VINA RESULT:      -8.2      3.577      9.088
REMARK  6 active torsions:
REMARK  status: ('A' for Active; 'I' for Inactive)
REMARK    1  A    between atoms: N_2  and  C_4 
REMARK    2  A    between atoms: C_4  and  C_5 
REMARK       I    between atoms: C_5  and  N_7 
REMARK    3  A    between atoms: N_7  and  C_8 
REMARK    4  A    between atoms: C_8  and  C_9 
REMARK    5  A    between atoms: C_8  and  C_26 
REMARK    6  A    between atoms: C_14  and  C_20 
ROOT
HETATM    1  C   UNL     1      42.203 -16.141   3.162  1.00  0.00     0.135 A 
HETATM    2  N   UNL     1      42.466 -16.141   1.892  1.00  0.00    -0.232 NA
HETATM    3  C   UNL     1      41.550 -15.510   1.035  1.00  0.00     0.074 A 
HETATM    4  C   UNL     1      41.792 -15.528  -0.338  1.00  0.00     0.033 A 
HETATM    5  C   UNL     1      40.876 -14.958  -1.231  1.00  0.00     0.014 A 
HETATM    6  C   UNL     1      39.697 -14.361  -0.764  1.00  0.00    -0.022 A 
HETATM    7  C   UNL     1      39.462 -14.317   0.615  1.00  0.00     0.031 A 
HETATM    8  C   UNL     1      40.386 -14.892   1.497  1.00  0.00     0.061 A 
HETATM    9  C   UNL     1      40.158 -14.877   2.951  1.00  0.00     0.259 A 
HETATM   10  O   UNL     1      39.204 -14.299   3.456  1.00  0.00    -0.267 OA
HETATM   11  N   UNL     1      41.081 -15.559   3.696  1.00  0.00    -0.309 N 
HETATM   12  H   UNL     1      40.990 -15.488   4.700  1.00  0.00     0.170 HD
ENDROOT
BRANCH   1  13
HETATM   13  C   UNL     1      43.110 -16.906   4.144  1.00  0.00     0.187 C 
BRANCH  13  14
HETATM   14  N   UNL     1      42.553 -17.015   5.489  1.00  0.00    -0.344 N 
HETATM   15  C   UNL     1      43.183 -16.677   6.657  1.00  0.00     0.247 C 
HETATM   16  O   UNL     1      42.757 -17.162   7.708  1.00  0.00    -0.272 OA
HETATM   17  H   UNL     1      41.893 -17.766   5.656  1.00  0.00     0.163 HD
BRANCH  15  18
HETATM   18  C   UNL     1      44.353 -15.689   6.644  1.00  0.00     0.373 C 
BRANCH  18  19
HETATM   19  N   UNL     1      43.911 -14.345   7.067  1.00  0.00     0.088 N 
HETATM   20  C   UNL     1      45.036 -13.550   7.570  1.00  0.00     0.310 C 
HETATM   21  C   UNL     1      43.285 -13.651   5.937  1.00  0.00     0.310 C 
ENDBRANCH  18  19
ENDBRANCH  15  18
ENDBRANCH  13  14
BRANCH  13  22
HETATM   22  C   UNL     1      43.426 -18.280   3.559  1.00  0.00    -0.028 A 
HETATM   23  C   UNL     1      44.364 -19.104   4.205  1.00  0.00     0.011 A 
HETATM   24  C   UNL     1      44.721 -20.342   3.663  1.00  0.00     0.024 A 
HETATM   25  C   UNL     1      44.147 -20.768   2.468  1.00  0.00     0.034 A 
HETATM   26 CL   UNL     1      44.592 -22.287   1.798  1.00  0.00    -0.084 Cl
HETATM   27  C   UNL     1      43.223 -19.963   1.807  1.00  0.00     0.024 A 
HETATM   28  C   UNL     1      42.868 -18.722   2.345  1.00  0.00     0.011 A 
ENDBRANCH  13  22
ENDBRANCH   1  13
BRANCH   6  29
HETATM   29  C   UNL     1      38.735 -13.817  -1.706  1.00  0.00     0.010 A 
HETATM   30  C   UNL     1      38.099 -14.400  -2.826  1.00  0.00     0.152 A 
HETATM   31  N   UNL     1      37.237 -13.572  -3.422  1.00  0.00    -0.187 NA
HETATM   32  N   UNL     1      37.313 -12.454  -2.682  1.00  0.00    -0.289 N 
HETATM   33  H   UNL     1      36.728 -11.666  -2.939  1.00  0.00     0.188 HD
HETATM   34  C   UNL     1      38.193 -12.550  -1.643  1.00  0.00     0.123 A 
ENDBRANCH   6  29
TORSDOF 6
ENDMDL
MODEL 6
REMARK VINA RESULT:      -8.2      3.187      4.330
REMARK  6 active torsions:
REMARK  status: ('A' for Active; 'I' for Inactive)
REMARK    1  A    between atoms: N_2  and  C_4 
REMARK    2  A    between atoms: C_4  and  C_5 
REMARK       I    between atoms: C_5  and  N_7 
REMARK    3  A    between atoms: N_7  and  C_8 
REMARK    4  A    between atoms: C_8  and  C_9 
REMARK    5  A    between atoms: C_8  and  C_26 
REMARK    6  A    between atoms: C_14  and  C_20 
ROOT
HETATM    1  C   UNL     1      41.419 -15.306   2.309  1.00  0.00     0.135 A 
HETATM    2  N   UNL     1      42.222 -16.016   1.578  1.00  0.00    -0.232 NA
HETATM    3  C   UNL     1      42.684 -17.232   2.108  1.00  0.00     0.074 A 
HETATM    4  C   UNL     1      43.576 -17.996   1.357  1.00  0.00     0.033 A 
HETATM    5  C   UNL     1      44.103 -19.186   1.871  1.00  0.00     0.014 A 
HETATM    6  C   UNL     1      43.748 -19.634   3.151  1.00  0.00    -0.022 A 
HETATM    7  C   UNL     1      42.833 -18.883   3.898  1.00  0.00     0.031 A 
HETATM    8  C   UNL     1      42.314 -17.694   3.372  1.00  0.00     0.061 A 
HETATM    9  C   UNL     1      41.363 -16.875   4.142  1.00  0.00     0.259 A 
HETATM   10  O   UNL     1      40.925 -17.231   5.228  1.00  0.00    -0.267 OA
HETATM   11  N   UNL     1      41.010 -15.687   3.562  1.00  0.00    -0.309 N 
HETATM   12  H   UNL     1      40.293 -15.152   4.032  1.00  0.00     0.170 HD
ENDROOT
BRANCH   1  13
HETATM   13  C   UNL     1      40.960 -13.915   1.832  1.00  0.00     0.187 C 
BRANCH  13  14
HETATM   14  N   UNL     1      39.774 -13.952   0.981  1.00  0.00    -0.344 N 
HETATM   15  C   UNL     1      39.745 -13.779  -0.377  1.00  0.00     0.247 C 
HETATM   16  O   UNL     1      38.674 -13.463  -0.900  1.00  0.00    -0.272 OA
HETATM   17  H   UNL     1      38.903 -13.634   1.390  1.00  0.00     0.163 HD
BRANCH  15  18
HETATM   18  C   UNL     1      41.007 -14.019  -1.211  1.00  0.00     0.373 C 
BRANCH  18  19
HETATM   19  N   UNL     1      40.663 -14.262  -2.627  1.00  0.00     0.088 N 
HETATM   20  C   UNL     1      41.428 -13.382  -3.518  1.00  0.00     0.310 C 
HETATM   21  C   UNL     1      40.932 -15.662  -2.968  1.00  0.00     0.310 C 
ENDBRANCH  18  19
ENDBRANCH  15  18
ENDBRANCH  13  14
BRANCH  13  22
HETATM   22  C   UNL     1      40.744 -13.020   3.050  1.00  0.00    -0.028 A 
HETATM   23  C   UNL     1      41.856 -12.593   3.796  1.00  0.00     0.011 A 
HETATM   24  C   UNL     1      41.690 -11.824   4.951  1.00  0.00     0.024 A 
HETATM   25  C   UNL     1      40.410 -11.476   5.374  1.00  0.00     0.034 A 
HETATM   26 CL   UNL     1      40.204 -10.537   6.799  1.00  0.00    -0.084 Cl
HETATM   27  C   UNL     1      39.294 -11.897   4.656  1.00  0.00     0.024 A 
HETATM   28  C   UNL     1      39.458 -12.671   3.503  1.00  0.00     0.011 A 
ENDBRANCH  13  22
ENDBRANCH   1  13
BRANCH   6  29
HETATM   29  C   UNL     1      44.340 -20.845   3.688  1.00  0.00     0.010 A 
HETATM   30  C   UNL     1      44.905 -21.121   4.955  1.00  0.00     0.152 A 
HETATM   31  N   UNL     1      45.312 -22.388   5.077  1.00  0.00    -0.187 NA
HETATM   32  N   UNL     1      45.006 -22.931   3.888  1.00  0.00    -0.289 N 
HETATM   33  H   UNL     1      45.217 -23.912   3.737  1.00  0.00     0.188 HD
HETATM   34  C   UNL     1      44.421 -22.051   3.023  1.00  0.00     0.123 A 
ENDBRANCH   6  29
TORSDOF 6
ENDMDL
MODEL 7
REMARK VINA RESULT:      -8.1      3.045      4.848
REMARK  6 active torsions:
REMARK  status: ('A' for Active; 'I' for Inactive)
REMARK    1  A    between atoms: N_2  and  C_4 
REMARK    2  A    between atoms: C_4  and  C_5 
REMARK       I    between atoms: C_5  and  N_7 
REMARK    3  A    between atoms: N_7  and  C_8 
REMARK    4  A    between atoms: C_8  and  C_9 
REMARK    5  A    between atoms: C_8  and  C_26 
REMARK    6  A    between atoms: C_14  and  C_20 
ROOT
HETATM    1  C   UNL     1      41.461 -15.144   1.787  1.00  0.00     0.135 A 
HETATM    2  N   UNL     1      42.246 -15.922   1.108  1.00  0.00    -0.232 NA
HETATM    3  C   UNL     1      42.687 -17.105   1.724  1.00  0.00     0.074 A 
HETATM    4  C   UNL     1      43.560 -17.939   1.029  1.00  0.00     0.033 A 
HETATM    5  C   UNL     1      44.065 -19.099   1.627  1.00  0.00     0.014 A 
HETATM    6  C   UNL     1      43.706 -19.445   2.938  1.00  0.00    -0.022 A 
HETATM    7  C   UNL     1      42.809 -18.623   3.630  1.00  0.00     0.031 A 
HETATM    8  C   UNL     1      42.312 -17.466   3.019  1.00  0.00     0.061 A 
HETATM    9  C   UNL     1      41.381 -16.573   3.730  1.00  0.00     0.259 A 
HETATM   10  O   UNL     1      40.940 -16.841   4.840  1.00  0.00    -0.267 OA
HETATM   11  N   UNL     1      41.049 -15.424   3.065  1.00  0.00    -0.309 N 
HETATM   12  H   UNL     1      40.345 -14.842   3.497  1.00  0.00     0.170 HD
ENDROOT
BRANCH   1  13
HETATM   13  C   UNL     1      41.028 -13.782   1.211  1.00  0.00     0.187 C 
BRANCH  13  14
HETATM   14  N   UNL     1      42.147 -12.894   0.908  1.00  0.00    -0.344 N 
HETATM   15  C   UNL     1      42.061 -11.575   0.552  1.00  0.00     0.247 C 
HETATM   16  O   UNL     1      43.024 -11.067  -0.028  1.00  0.00    -0.272 OA
HETATM   17  H   UNL     1      42.969 -13.315   0.489  1.00  0.00     0.163 HD
BRANCH  15  18
HETATM   18  C   UNL     1      40.817 -10.759   0.912  1.00  0.00     0.373 C 
BRANCH  18  19
HETATM   19  N   UNL     1      40.865 -10.320   2.322  1.00  0.00     0.088 N 
HETATM   20  C   UNL     1      40.924  -8.858   2.422  1.00  0.00     0.310 C 
HETATM   21  C   UNL     1      39.684 -10.814   3.035  1.00  0.00     0.310 C 
ENDBRANCH  18  19
ENDBRANCH  15  18
ENDBRANCH  13  14
BRANCH  13  22
HETATM   22  C   UNL     1      40.155 -14.019  -0.019  1.00  0.00    -0.028 A 
HETATM   23  C   UNL     1      40.762 -14.398  -1.230  1.00  0.00     0.011 A 
HETATM   24  C   UNL     1      40.000 -14.564  -2.390  1.00  0.00     0.024 A 
HETATM   25  C   UNL     1      38.625 -14.350  -2.352  1.00  0.00     0.034 A 
HETATM   26 CL   UNL     1      37.688 -14.546  -3.780  1.00  0.00    -0.084 Cl
HETATM   27  C   UNL     1      38.005 -13.965  -1.166  1.00  0.00     0.024 A 
HETATM   28  C   UNL     1      38.766 -13.794  -0.006  1.00  0.00     0.011 A 
ENDBRANCH  13  22
ENDBRANCH   1  13
BRANCH   6  29
HETATM   29  C   UNL     1      44.275 -20.626   3.560  1.00  0.00     0.010 A 
HETATM   30  C   UNL     1      44.794 -20.833   4.860  1.00  0.00     0.152 A 
HETATM   31  N   UNL     1      45.194 -22.091   5.064  1.00  0.00    -0.187 NA
HETATM   32  N   UNL     1      44.929 -22.698   3.896  1.00  0.00    -0.289 N 
HETATM   33  H   UNL     1      45.143 -23.686   3.807  1.00  0.00     0.188 HD
HETATM   34  C   UNL     1      44.377 -21.866   2.965  1.00  0.00     0.123 A 
ENDBRANCH   6  29
TORSDOF 6
ENDMDL
MODEL 8
REMARK VINA RESULT:      -8.0      2.497      3.293
REMARK  6 active torsions:
REMARK  status: ('A' for Active; 'I' for Inactive)
REMARK    1  A    between atoms: N_2  and  C_4 
REMARK    2  A    between atoms: C_4  and  C_5 
REMARK       I    between atoms: C_5  and  N_7 
REMARK    3  A    between atoms: N_7  and  C_8 
REMARK    4  A    between atoms: C_8  and  C_9 
REMARK    5  A    between atoms: C_8  and  C_26 
REMARK    6  A    between atoms: C_14  and  C_20 
ROOT
HETATM    1  C   UNL     1      42.113 -14.759   0.782  1.00  0.00     0.135 A 
HETATM    2  N   UNL     1      42.033 -14.280   1.986  1.00  0.00    -0.232 NA
HETATM    3  C   UNL     1      42.408 -15.119   3.048  1.00  0.00     0.074 A 
HETATM    4  C   UNL     1      42.297 -14.640   4.352  1.00  0.00     0.033 A 
HETATM    5  C   UNL     1      42.609 -15.461   5.442  1.00  0.00     0.014 A 
HETATM    6  C   UNL     1      43.036 -16.782   5.245  1.00  0.00    -0.022 A 
HETATM    7  C   UNL     1      43.174 -17.259   3.936  1.00  0.00     0.031 A 
HETATM    8  C   UNL     1      42.858 -16.426   2.856  1.00  0.00     0.061 A 
HETATM    9  C   UNL     1      42.976 -16.906   1.469  1.00  0.00     0.259 A 
HETATM   10  O   UNL     1      43.428 -18.011   1.196  1.00  0.00    -0.267 OA
HETATM   11  N   UNL     1      42.541 -16.033   0.508  1.00  0.00    -0.309 N 
HETATM   12  H   UNL     1      42.695 -16.308  -0.452  1.00  0.00     0.170 HD
ENDROOT
BRANCH   1  13
HETATM   13  C   UNL     1      41.618 -13.931  -0.418  1.00  0.00     0.187 C 
BRANCH  13  14
HETATM   14  N   UNL     1      41.577 -14.682  -1.669  1.00  0.00    -0.344 N 
HETATM   15  C   UNL     1      41.658 -14.160  -2.932  1.00  0.00     0.247 C 
HETATM   16  O   UNL     1      41.240 -14.841  -3.871  1.00  0.00    -0.272 OA
HETATM   17  H   UNL     1      41.022 -15.531  -1.680  1.00  0.00     0.163 HD
BRANCH  15  18
HETATM   18  C   UNL     1      42.295 -12.786  -3.158  1.00  0.00     0.373 C 
BRANCH  18  19
HETATM   19  N   UNL     1      41.489 -11.980  -4.098  1.00  0.00     0.088 N 
HETATM   20  C   UNL     1      40.369 -11.326  -3.413  1.00  0.00     0.310 C 
HETATM   21  C   UNL     1      42.336 -10.967  -4.733  1.00  0.00     0.310 C 
ENDBRANCH  18  19
ENDBRANCH  15  18
ENDBRANCH  13  14
BRANCH  13  22
HETATM   22  C   UNL     1      40.252 -13.337  -0.080  1.00  0.00    -0.028 A 
HETATM   23  C   UNL     1      39.115 -14.162  -0.118  1.00  0.00     0.011 A 
HETATM   24  C   UNL     1      37.842 -13.637   0.126  1.00  0.00     0.024 A 
HETATM   25  C   UNL     1      37.694 -12.282   0.407  1.00  0.00     0.034 A 
HETATM   26 CL   UNL     1      36.128 -11.634   0.700  1.00  0.00    -0.084 Cl
HETATM   27  C   UNL     1      38.806 -11.445   0.440  1.00  0.00     0.024 A 
HETATM   28  C   UNL     1      40.079 -11.967   0.192  1.00  0.00     0.011 A 
ENDBRANCH  13  22
ENDBRANCH   1  13
BRANCH   6  29
HETATM   29  C   UNL     1      43.309 -17.636   6.387  1.00  0.00     0.010 A 
HETATM   30  C   UNL     1      43.580 -19.022   6.467  1.00  0.00     0.152 A 
HETATM   31  N   UNL     1      43.821 -19.431   7.716  1.00  0.00    -0.187 NA
HETATM   32  N   UNL     1      43.711 -18.307   8.442  1.00  0.00    -0.289 N 
HETATM   33  H   UNL     1      43.864 -18.363   9.443  1.00  0.00     0.188 HD
HETATM   34  C   UNL     1      43.408 -17.206   7.693  1.00  0.00     0.123 A 
ENDBRANCH   6  29
TORSDOF 6
ENDMDL
MODEL 9
REMARK VINA RESULT:      -8.0      2.664      4.095
REMARK  6 active torsions:
REMARK  status: ('A' for Active; 'I' for Inactive)
REMARK    1  A    between atoms: N_2  and  C_4 
REMARK    2  A    between atoms: C_4  and  C_5 
REMARK       I    between atoms: C_5  and  N_7 
REMARK    3  A    between atoms: N_7  and  C_8 
REMARK    4  A    between atoms: C_8  and  C_9 
REMARK    5  A    between atoms: C_8  and  C_26 
REMARK    6  A    between atoms: C_14  and  C_20 
ROOT
HETATM    1  C   UNL     1      41.646 -15.063   0.747  1.00  0.00     0.135 A 
HETATM    2  N   UNL     1      42.342 -16.109   0.423  1.00  0.00    -0.232 NA
HETATM    3  C   UNL     1      42.674 -17.015   1.443  1.00  0.00     0.074 A 
HETATM    4  C   UNL     1      43.451 -18.128   1.126  1.00  0.00     0.033 A 
HETATM    5  C   UNL     1      43.851 -19.026   2.123  1.00  0.00     0.014 A 
HETATM    6  C   UNL     1      43.480 -18.823   3.461  1.00  0.00    -0.022 A 
HETATM    7  C   UNL     1      42.678 -17.721   3.779  1.00  0.00     0.031 A 
HETATM    8  C   UNL     1      42.286 -16.831   2.772  1.00  0.00     0.061 A 
HETATM    9  C   UNL     1      41.458 -15.653   3.080  1.00  0.00     0.259 A 
HETATM   10  O   UNL     1      41.011 -15.445   4.200  1.00  0.00    -0.267 OA
HETATM   11  N   UNL     1      41.229 -14.807   2.029  1.00  0.00    -0.309 N 
HETATM   12  H   UNL     1      40.592 -14.041   2.199  1.00  0.00     0.170 HD
ENDROOT
BRANCH   1  13
HETATM   13  C   UNL     1      41.339 -13.978  -0.302  1.00  0.00     0.187 C 
BRANCH  13  14
HETATM   14  N   UNL     1      41.306 -14.483  -1.671  1.00  0.00    -0.344 N 
HETATM   15  C   UNL     1      41.798 -13.850  -2.781  1.00  0.00     0.247 C 
HETATM   16  O   UNL     1      41.376 -14.202  -3.885  1.00  0.00    -0.272 OA
HETATM   17  H   UNL     1      40.521 -15.072  -1.927  1.00  0.00     0.163 HD
BRANCH  15  18
HETATM   18  C   UNL     1      42.875 -12.771  -2.638  1.00  0.00     0.373 C 
BRANCH  18  19
HETATM   19  N   UNL     1      42.267 -11.427  -2.569  1.00  0.00     0.088 N 
HETATM   20  C   UNL     1      42.914 -10.602  -1.543  1.00  0.00     0.310 C 
HETATM   21  C   UNL     1      42.378 -10.766  -3.873  1.00  0.00     0.310 C 
ENDBRANCH  18  19
ENDBRANCH  15  18
ENDBRANCH  13  14
BRANCH  13  22
HETATM   22  C   UNL     1      40.029 -13.286   0.069  1.00  0.00    -0.028 A 
HETATM   23  C   UNL     1      38.824 -14.006  -0.014  1.00  0.00     0.011 A 
HETATM   24  C   UNL     1      37.601 -13.386   0.259  1.00  0.00     0.024 A 
HETATM   25  C   UNL     1      37.571 -12.041   0.616  1.00  0.00     0.034 A 
HETATM   26 CL   UNL     1      36.066 -11.276   0.945  1.00  0.00    -0.084 Cl
HETATM   27  C   UNL     1      38.752 -11.308   0.695  1.00  0.00     0.024 A 
HETATM   28  C   UNL     1      39.975 -11.924   0.418  1.00  0.00     0.011 A 
ENDBRANCH  13  22
ENDBRANCH   1  13
BRANCH   6  29
HETATM   29  C   UNL     1      43.941 -19.737   4.489  1.00  0.00     0.010 A 
HETATM   30  C   UNL     1      43.705 -19.764   5.884  1.00  0.00     0.152 A 
HETATM   31  N   UNL     1      44.284 -20.805   6.488  1.00  0.00    -0.187 NA
HETATM   32  N   UNL     1      44.891 -21.455   5.482  1.00  0.00    -0.289 N 
HETATM   33  H   UNL     1      45.401 -22.304   5.695  1.00  0.00     0.188 HD
HETATM   34  C   UNL     1      44.714 -20.858   4.266  1.00  0.00     0.123 A 
ENDBRANCH   6  29
TORSDOF 6
ENDMDL
MODEL 10
REMARK VINA RESULT:      -8.0      3.527      9.106
REMARK  6 active torsions:
REMARK  status: ('A' for Active; 'I' for Inactive)
REMARK    1  A    between atoms: N_2  and  C_4 
REMARK    2  A    between atoms: C_4  and  C_5 
REMARK       I    between atoms: C_5  and  N_7 
REMARK    3  A    between atoms: N_7  and  C_8 
REMARK    4  A    between atoms: C_8  and  C_9 
REMARK    5  A    between atoms: C_8  and  C_26 
REMARK    6  A    between atoms: C_14  and  C_20 
ROOT
HETATM    1  C   UNL     1      42.316 -15.848   2.517  1.00  0.00     0.135 A 
HETATM    2  N   UNL     1      41.920 -16.350   1.388  1.00  0.00    -0.232 NA
HETATM    3  C   UNL     1      41.652 -15.460   0.335  1.00  0.00     0.074 A 
HETATM    4  C   UNL     1      41.190 -15.973  -0.876  1.00  0.00     0.033 A 
HETATM    5  C   UNL     1      40.859 -15.116  -1.933  1.00  0.00     0.014 A 
HETATM    6  C   UNL     1      40.982 -13.726  -1.794  1.00  0.00    -0.022 A 
HETATM    7  C   UNL     1      41.470 -13.209  -0.588  1.00  0.00     0.031 A 
HETATM    8  C   UNL     1      41.797 -14.077   0.460  1.00  0.00     0.061 A 
HETATM    9  C   UNL     1      42.294 -13.561   1.746  1.00  0.00     0.259 A 
HETATM   10  O   UNL     1      42.521 -12.372   1.928  1.00  0.00    -0.267 OA
HETATM   11  N   UNL     1      42.480 -14.501   2.723  1.00  0.00    -0.309 N 
HETATM   12  H   UNL     1      42.903 -14.180   3.582  1.00  0.00     0.170 HD
ENDROOT
BRANCH   1  13
HETATM   13  C   UNL     1      42.525 -16.758   3.742  1.00  0.00     0.187 C 
BRANCH  13  14
HETATM   14  N   UNL     1      41.315 -16.955   4.535  1.00  0.00    -0.344 N 
HETATM   15  C   UNL     1      41.155 -16.648   5.860  1.00  0.00     0.247 C 
HETATM   16  O   UNL     1      40.242 -17.201   6.479  1.00  0.00    -0.272 OA
HETATM   17  H   UNL     1      40.723 -17.740   4.287  1.00  0.00     0.163 HD
BRANCH  15  18
HETATM   18  C   UNL     1      42.066 -15.613   6.526  1.00  0.00     0.373 C 
BRANCH  18  19
HETATM   19  N   UNL     1      43.394 -16.190   6.819  1.00  0.00     0.088 N 
HETATM   20  C   UNL     1      44.409 -15.141   6.963  1.00  0.00     0.310 C 
HETATM   21  C   UNL     1      43.328 -16.984   8.049  1.00  0.00     0.310 C 
ENDBRANCH  18  19
ENDBRANCH  15  18
ENDBRANCH  13  14
BRANCH  13  22
HETATM   22  C   UNL     1      43.108 -18.090   3.276  1.00  0.00    -0.028 A 
HETATM   23  C   UNL     1      42.566 -18.720   2.142  1.00  0.00     0.011 A 
HETATM   24  C   UNL     1      43.036 -19.968   1.724  1.00  0.00     0.024 A 
HETATM   25  C   UNL     1      44.050 -20.601   2.438  1.00  0.00     0.034 A 
HETATM   26 CL   UNL     1      44.624 -22.140   1.929  1.00  0.00    -0.084 Cl
HETATM   27  C   UNL     1      44.595 -19.999   3.569  1.00  0.00     0.024 A 
HETATM   28  C   UNL     1      44.123 -18.752   3.991  1.00  0.00     0.011 A 
ENDBRANCH  13  22
ENDBRANCH   1  13
BRANCH   6  29
HETATM   29  C   UNL     1      40.590 -12.849  -2.882  1.00  0.00     0.010 A 
HETATM   30  C   UNL     1      41.361 -12.027  -3.737  1.00  0.00     0.152 A 
HETATM   31  N   UNL     1      40.622 -11.394  -4.652  1.00  0.00    -0.187 NA
HETATM   32  N   UNL     1      39.373 -11.812  -4.391  1.00  0.00    -0.289 N 
HETATM   33  H   UNL     1      38.617 -11.467  -4.974  1.00  0.00     0.188 HD
HETATM   34  C   UNL     1      39.301 -12.684  -3.343  1.00  0.00     0.123 A 
ENDBRANCH   6  29
TORSDOF 6
ENDMDL
