MODEL 1
REMARK VINA RESULT:      -9.7      0.000      0.000
REMARK  6 active torsions:
REMARK  status: ('A' for Active; 'I' for Inactive)
REMARK    1  A    between atoms: C_2  and  N_3 
REMARK    2  A    between atoms: C_2  and  C_32 
REMARK       I    between atoms: N_3  and  C_4 
REMARK    3  A    between atoms: C_4  and  C_5 
REMARK    4  A    between atoms: C_6  and  N_7 
REMARK       I    between atoms: N_7  and  C_8 
REMARK    5  A    between atoms: C_8  and  C_9 
REMARK    6  A    between atoms: C_9  and  N_10 
ROOT
HETATM    1  N   UNL     1      39.538 -12.327   4.473  1.00  0.00    -0.325 N 
HETATM    2  C   UNL     1      40.919 -12.307   4.598  1.00  0.00     0.240 C 
HETATM    3  O   UNL     1      41.711 -11.762   3.835  1.00  0.00    -0.271 OA
HETATM    4  H   UNL     1      39.039 -12.980   5.073  1.00  0.00     0.169 HD
ENDROOT
BRANCH   1   5
HETATM    5  C   UNL     1      38.731 -11.677   3.510  1.00  0.00     0.050 A 
HETATM    6  C   UNL     1      38.521 -12.292   2.255  1.00  0.00     0.058 A 
HETATM    7  C   UNL     1      37.642 -11.720   1.323  1.00  0.00     0.019 A 
HETATM    8  C   UNL     1      36.992 -10.522   1.613  1.00  0.00     0.001 A 
HETATM    9  C   UNL     1      37.217  -9.896   2.836  1.00  0.00     0.002 A 
HETATM   10  C   UNL     1      38.078 -10.469   3.778  1.00  0.00     0.030 A 
BRANCH   6  11
HETATM   11  C   UNL     1      39.169 -13.572   1.854  1.00  0.00     0.254 C 
HETATM   12  N   UNL     1      40.467 -13.485   1.386  1.00  0.00    -0.349 N 
HETATM   13  H   UNL     1      40.822 -12.573   1.101  1.00  0.00     0.163 HD
HETATM   14  O   UNL     1      38.548 -14.624   1.953  1.00  0.00    -0.268 OA
BRANCH  12  15
HETATM   15  C   UNL     1      41.162 -14.652   0.859  1.00  0.00     0.114 C 
HETATM   16  C   UNL     1      42.525 -14.811   1.532  1.00  0.00     0.037 C 
BRANCH  15  17
HETATM   17  C   UNL     1      41.289 -14.580  -0.653  1.00  0.00    -0.036 A 
HETATM   18  C   UNL     1      41.727 -13.392  -1.259  1.00  0.00     0.009 A 
HETATM   19  C   UNL     1      41.824 -13.293  -2.650  1.00  0.00     0.001 A 
HETATM   20  C   UNL     1      41.491 -14.381  -3.452  1.00  0.00     0.000 A 
HETATM   21  C   UNL     1      41.065 -15.570  -2.867  1.00  0.00     0.001 A 
HETATM   22  C   UNL     1      40.964 -15.669  -1.478  1.00  0.00     0.009 A 
ENDBRANCH  15  17
ENDBRANCH  12  15
ENDBRANCH   6  11
ENDBRANCH   1   5
BRANCH   2  23
HETATM   23  C   UNL     1      41.400 -13.164   5.770  1.00  0.00     0.240 C 
BRANCH  23  24
HETATM   24  N   UNL     1      42.001 -14.391   5.297  1.00  0.00    -0.259 N 
HETATM   25  C   UNL     1      43.316 -14.495   4.963  1.00  0.00     0.326 C 
HETATM   26  O   UNL     1      44.129 -13.593   4.860  1.00  0.00    -0.247 OA
HETATM   27  N   UNL     1      43.629 -15.826   4.833  1.00  0.00    -0.324 N 
HETATM   28  C   UNL     1      42.500 -16.696   5.091  1.00  0.00     0.120 C 
HETATM   29  H   UNL     1      44.553 -16.121   4.544  1.00  0.00     0.165 HD
HETATM   30  C   UNL     1      42.049 -17.441   3.834  1.00  0.00     0.080 C 
HETATM   31  C   UNL     1      42.745 -17.662   6.248  1.00  0.00     0.046 C 
HETATM   32  C   UNL     1      41.472 -15.634   5.508  1.00  0.00     0.257 C 
HETATM   33  C   UNL     1      42.942 -18.625   3.521  1.00  0.00    -0.049 A 
HETATM   34  C   UNL     1      43.744 -19.224   4.511  1.00  0.00    -0.052 A 
HETATM   35  C   UNL     1      42.931 -19.164   2.225  1.00  0.00     0.007 A 
HETATM   36  C   UNL     1      43.837 -18.673   5.912  1.00  0.00     0.042 C 
HETATM   37  C   UNL     1      44.540 -20.330   4.175  1.00  0.00     0.007 A 
HETATM   38  C   UNL     1      44.530 -20.848   2.881  1.00  0.00     0.001 A 
HETATM   39  C   UNL     1      43.725 -20.265   1.907  1.00  0.00     0.001 A 
HETATM   40  O   UNL     1      40.363 -15.865   5.978  1.00  0.00    -0.270 OA
ENDBRANCH  23  24
ENDBRANCH   2  23
TORSDOF 6
ENDMDL
MODEL 2
REMARK VINA RESULT:      -9.6      1.494      2.455
REMARK  6 active torsions:
REMARK  status: ('A' for Active; 'I' for Inactive)
REMARK    1  A    between atoms: C_2  and  N_3 
REMARK    2  A    between atoms: C_2  and  C_32 
REMARK       I    between atoms: N_3  and  C_4 
REMARK    3  A    between atoms: C_4  and  C_5 
REMARK    4  A    between atoms: C_6  and  N_7 
REMARK       I    between atoms: N_7  and  C_8 
REMARK    5  A    between atoms: C_8  and  C_9 
REMARK    6  A    between atoms: C_9  and  N_10 
ROOT
HETATM    1  N   UNL     1      39.535 -12.038   3.702  1.00  0.00    -0.325 N 
HETATM    2  C   UNL     1      40.896 -12.104   3.443  1.00  0.00     0.240 C 
HETATM    3  O   UNL     1      41.457 -11.759   2.408  1.00  0.00    -0.271 OA
HETATM    4  H   UNL     1      39.207 -12.538   4.524  1.00  0.00     0.169 HD
ENDROOT
BRANCH   1   5
HETATM    5  C   UNL     1      38.509 -11.501   2.889  1.00  0.00     0.050 A 
HETATM    6  C   UNL     1      38.180 -12.145   1.675  1.00  0.00     0.058 A 
HETATM    7  C   UNL     1      37.098 -11.695   0.903  1.00  0.00     0.019 A 
HETATM    8  C   UNL     1      36.357 -10.588   1.311  1.00  0.00     0.001 A 
HETATM    9  C   UNL     1      36.694  -9.932   2.491  1.00  0.00     0.002 A 
HETATM   10  C   UNL     1      37.760 -10.385   3.276  1.00  0.00     0.030 A 
BRANCH   6  11
HETATM   11  C   UNL     1      38.912 -13.335   1.157  1.00  0.00     0.254 C 
HETATM   12  N   UNL     1      39.732 -13.126   0.064  1.00  0.00    -0.349 N 
HETATM   13  H   UNL     1      39.611 -12.273  -0.479  1.00  0.00     0.163 HD
HETATM   14  O   UNL     1      38.767 -14.423   1.704  1.00  0.00    -0.268 OA
BRANCH  12  15
HETATM   15  C   UNL     1      40.408 -14.234  -0.598  1.00  0.00     0.114 C 
HETATM   16  C   UNL     1      41.860 -13.866  -0.908  1.00  0.00     0.037 C 
BRANCH  15  17
HETATM   17  C   UNL     1      39.661 -14.665  -1.848  1.00  0.00    -0.036 A 
HETATM   18  C   UNL     1      38.368 -14.178  -2.090  1.00  0.00     0.009 A 
HETATM   19  C   UNL     1      37.650 -14.583  -3.219  1.00  0.00     0.001 A 
HETATM   20  C   UNL     1      38.218 -15.475  -4.124  1.00  0.00     0.000 A 
HETATM   21  C   UNL     1      39.505 -15.961  -3.906  1.00  0.00     0.001 A 
HETATM   22  C   UNL     1      40.221 -15.559  -2.776  1.00  0.00     0.009 A 
ENDBRANCH  15  17
ENDBRANCH  12  15
ENDBRANCH   6  11
ENDBRANCH   1   5
BRANCH   2  23
HETATM   23  C   UNL     1      41.663 -12.783   4.579  1.00  0.00     0.240 C 
BRANCH  23  24
HETATM   24  N   UNL     1      41.953 -14.160   4.252  1.00  0.00    -0.259 N 
HETATM   25  C   UNL     1      41.013 -15.143   4.266  1.00  0.00     0.326 C 
HETATM   26  O   UNL     1      39.870 -15.070   4.683  1.00  0.00    -0.247 OA
HETATM   27  N   UNL     1      41.531 -16.251   3.642  1.00  0.00    -0.324 N 
HETATM   28  C   UNL     1      42.882 -16.047   3.162  1.00  0.00     0.120 C 
HETATM   29  H   UNL     1      41.004 -17.115   3.584  1.00  0.00     0.165 HD
HETATM   30  C   UNL     1      43.896 -16.910   3.913  1.00  0.00     0.080 C 
HETATM   31  C   UNL     1      43.011 -16.230   1.652  1.00  0.00     0.046 C 
HETATM   32  C   UNL     1      43.039 -14.562   3.523  1.00  0.00     0.257 C 
HETATM   33  C   UNL     1      43.898 -18.344   3.425  1.00  0.00    -0.049 A 
HETATM   34  C   UNL     1      43.403 -18.690   2.153  1.00  0.00    -0.052 A 
HETATM   35  C   UNL     1      44.449 -19.342   4.244  1.00  0.00     0.007 A 
HETATM   36  C   UNL     1      42.759 -17.677   1.240  1.00  0.00     0.042 C 
HETATM   37  C   UNL     1      43.443 -20.031   1.740  1.00  0.00     0.007 A 
HETATM   38  C   UNL     1      43.981 -21.015   2.567  1.00  0.00     0.001 A 
HETATM   39  C   UNL     1      44.484 -20.670   3.819  1.00  0.00     0.001 A 
HETATM   40  O   UNL     1      43.976 -13.846   3.188  1.00  0.00    -0.270 OA
ENDBRANCH  23  24
ENDBRANCH   2  23
TORSDOF 6
ENDMDL
MODEL 3
REMARK VINA RESULT:      -9.5      3.269      8.972
REMARK  6 active torsions:
REMARK  status: ('A' for Active; 'I' for Inactive)
REMARK    1  A    between atoms: C_2  and  N_3 
REMARK    2  A    between atoms: C_2  and  C_32 
REMARK       I    between atoms: N_3  and  C_4 
REMARK    3  A    between atoms: C_4  and  C_5 
REMARK    4  A    between atoms: C_6  and  N_7 
REMARK       I    between atoms: N_7  and  C_8 
REMARK    5  A    between atoms: C_8  and  C_9 
REMARK    6  A    between atoms: C_9  and  N_10 
ROOT
HETATM    1  N   UNL     1      42.428 -14.578   4.838  1.00  0.00    -0.325 N 
HETATM    2  C   UNL     1      42.991 -14.384   3.585  1.00  0.00     0.240 C 
HETATM    3  O   UNL     1      43.907 -15.033   3.090  1.00  0.00    -0.271 OA
HETATM    4  H   UNL     1      41.817 -13.841   5.178  1.00  0.00     0.169 HD
ENDROOT
BRANCH   1   5
HETATM    5  C   UNL     1      42.713 -15.592   5.783  1.00  0.00     0.050 A 
HETATM    6  C   UNL     1      43.617 -15.322   6.836  1.00  0.00     0.058 A 
HETATM    7  C   UNL     1      43.836 -16.272   7.845  1.00  0.00     0.019 A 
HETATM    8  C   UNL     1      43.188 -17.505   7.801  1.00  0.00     0.001 A 
HETATM    9  C   UNL     1      42.318 -17.788   6.752  1.00  0.00     0.002 A 
HETATM   10  C   UNL     1      42.081 -16.839   5.751  1.00  0.00     0.030 A 
BRANCH   6  11
HETATM   11  C   UNL     1      44.356 -14.034   6.968  1.00  0.00     0.254 C 
HETATM   12  N   UNL     1      44.236 -13.379   8.179  1.00  0.00    -0.349 N 
HETATM   13  H   UNL     1      43.481 -13.649   8.807  1.00  0.00     0.163 HD
HETATM   14  O   UNL     1      45.025 -13.619   6.029  1.00  0.00    -0.268 OA
BRANCH  12  15
HETATM   15  C   UNL     1      44.819 -12.059   8.386  1.00  0.00     0.114 C 
HETATM   16  C   UNL     1      46.317 -12.175   8.667  1.00  0.00     0.037 C 
BRANCH  15  17
HETATM   17  C   UNL     1      44.099 -11.308   9.492  1.00  0.00    -0.036 A 
HETATM   18  C   UNL     1      42.817 -10.786   9.260  1.00  0.00     0.009 A 
HETATM   19  C   UNL     1      42.147 -10.066  10.253  1.00  0.00     0.001 A 
HETATM   20  C   UNL     1      42.746  -9.864  11.493  1.00  0.00     0.000 A 
HETATM   21  C   UNL     1      44.014 -10.383  11.745  1.00  0.00     0.001 A 
HETATM   22  C   UNL     1      44.685 -11.100  10.752  1.00  0.00     0.009 A 
ENDBRANCH  15  17
ENDBRANCH  12  15
ENDBRANCH   6  11
ENDBRANCH   1   5
BRANCH   2  23
HETATM   23  C   UNL     1      42.415 -13.152   2.884  1.00  0.00     0.240 C 
BRANCH  23  24
HETATM   24  N   UNL     1      41.601 -13.539   1.754  1.00  0.00    -0.259 N 
HETATM   25  C   UNL     1      40.416 -14.196   1.881  1.00  0.00     0.326 C 
HETATM   26  O   UNL     1      39.942 -14.683   2.893  1.00  0.00    -0.247 OA
HETATM   27  N   UNL     1      39.767 -14.161   0.671  1.00  0.00    -0.324 N 
HETATM   28  C   UNL     1      40.510 -13.447  -0.346  1.00  0.00     0.120 C 
HETATM   29  H   UNL     1      38.881 -14.634   0.537  1.00  0.00     0.165 HD
HETATM   30  C   UNL     1      40.985 -14.373  -1.467  1.00  0.00     0.080 C 
HETATM   31  C   UNL     1      39.753 -12.245  -0.906  1.00  0.00     0.046 C 
HETATM   32  C   UNL     1      41.688 -12.966   0.515  1.00  0.00     0.257 C 
HETATM   33  C   UNL     1      39.877 -14.696  -2.448  1.00  0.00    -0.049 A 
HETATM   34  C   UNL     1      38.742 -13.873  -2.574  1.00  0.00    -0.052 A 
HETATM   35  C   UNL     1      40.010 -15.817  -3.282  1.00  0.00     0.007 A 
HETATM   36  C   UNL     1      38.514 -12.678  -1.683  1.00  0.00     0.042 C 
HETATM   37  C   UNL     1      37.751 -14.206  -3.511  1.00  0.00     0.007 A 
HETATM   38  C   UNL     1      37.888 -15.329  -4.325  1.00  0.00     0.001 A 
HETATM   39  C   UNL     1      39.018 -16.134  -4.210  1.00  0.00     0.001 A 
HETATM   40  O   UNL     1      42.554 -12.175   0.156  1.00  0.00    -0.270 OA
ENDBRANCH  23  24
ENDBRANCH   2  23
TORSDOF 6
ENDMDL
MODEL 4
REMARK VINA RESULT:      -9.5      2.605      6.136
REMARK  6 active torsions:
REMARK  status: ('A' for Active; 'I' for Inactive)
REMARK    1  A    between atoms: C_2  and  N_3 
REMARK    2  A    between atoms: C_2  and  C_32 
REMARK       I    between atoms: N_3  and  C_4 
REMARK    3  A    between atoms: C_4  and  C_5 
REMARK    4  A    between atoms: C_6  and  N_7 
REMARK       I    between atoms: N_7  and  C_8 
REMARK    5  A    between atoms: C_8  and  C_9 
REMARK    6  A    between atoms: C_9  and  N_10 
ROOT
HETATM    1  N   UNL     1      41.156 -13.836   2.639  1.00  0.00    -0.325 N 
HETATM    2  C   UNL     1      40.475 -14.522   1.645  1.00  0.00     0.240 C 
HETATM    3  O   UNL     1      39.263 -14.520   1.458  1.00  0.00    -0.271 OA
HETATM    4  H   UNL     1      42.130 -14.093   2.781  1.00  0.00     0.169 HD
ENDROOT
BRANCH   1   5
HETATM    5  C   UNL     1      40.638 -12.933   3.598  1.00  0.00     0.050 A 
HETATM    6  C   UNL     1      41.407 -12.624   4.743  1.00  0.00     0.058 A 
HETATM    7  C   UNL     1      40.964 -11.653   5.654  1.00  0.00     0.019 A 
HETATM    8  C   UNL     1      39.746 -11.008   5.456  1.00  0.00     0.001 A 
HETATM    9  C   UNL     1      38.970 -11.328   4.345  1.00  0.00     0.002 A 
HETATM   10  C   UNL     1      39.413 -12.282   3.422  1.00  0.00     0.030 A 
BRANCH   6  11
HETATM   11  C   UNL     1      42.721 -13.260   5.041  1.00  0.00     0.254 C 
HETATM   12  N   UNL     1      42.871 -13.799   6.305  1.00  0.00    -0.349 N 
HETATM   13  H   UNL     1      42.213 -13.526   7.033  1.00  0.00     0.163 HD
HETATM   14  O   UNL     1      43.593 -13.284   4.180  1.00  0.00    -0.268 OA
BRANCH  12  15
HETATM   15  C   UNL     1      44.148 -14.344   6.748  1.00  0.00     0.114 C 
HETATM   16  C   UNL     1      43.934 -15.655   7.507  1.00  0.00     0.037 C 
BRANCH  15  17
HETATM   17  C   UNL     1      44.917 -13.335   7.582  1.00  0.00    -0.036 A 
HETATM   18  C   UNL     1      44.304 -12.739   8.696  1.00  0.00     0.009 A 
HETATM   19  C   UNL     1      44.982 -11.786   9.460  1.00  0.00     0.001 A 
HETATM   20  C   UNL     1      46.283 -11.420   9.127  1.00  0.00     0.000 A 
HETATM   21  C   UNL     1      46.911 -12.009   8.032  1.00  0.00     0.001 A 
HETATM   22  C   UNL     1      46.233 -12.959   7.265  1.00  0.00     0.009 A 
ENDBRANCH  15  17
ENDBRANCH  12  15
ENDBRANCH   6  11
ENDBRANCH   1   5
BRANCH   2  23
HETATM   23  C   UNL     1      41.407 -15.418   0.827  1.00  0.00     0.240 C 
BRANCH  23  24
HETATM   24  N   UNL     1      41.872 -16.535   1.619  1.00  0.00    -0.259 N 
HETATM   25  C   UNL     1      41.312 -17.773   1.561  1.00  0.00     0.326 C 
HETATM   26  O   UNL     1      40.288 -18.097   0.986  1.00  0.00    -0.247 OA
HETATM   27  N   UNL     1      42.145 -18.658   2.201  1.00  0.00    -0.324 N 
HETATM   28  C   UNL     1      43.340 -18.029   2.724  1.00  0.00     0.120 C 
HETATM   29  H   UNL     1      41.890 -19.632   2.309  1.00  0.00     0.165 HD
HETATM   30  C   UNL     1      43.373 -18.039   4.253  1.00  0.00     0.080 C 
HETATM   31  C   UNL     1      44.625 -18.612   2.139  1.00  0.00     0.046 C 
HETATM   32  C   UNL     1      43.117 -16.610   2.181  1.00  0.00     0.257 C 
HETATM   33  C   UNL     1      43.792 -19.386   4.806  1.00  0.00    -0.049 A 
HETATM   34  C   UNL     1      44.512 -20.311   4.026  1.00  0.00    -0.052 A 
HETATM   35  C   UNL     1      43.494 -19.697   6.141  1.00  0.00     0.007 A 
HETATM   36  C   UNL     1      44.830 -20.060   2.573  1.00  0.00     0.042 C 
HETATM   37  C   UNL     1      44.893 -21.538   4.590  1.00  0.00     0.007 A 
HETATM   38  C   UNL     1      44.581 -21.841   5.914  1.00  0.00     0.001 A 
HETATM   39  C   UNL     1      43.881 -20.920   6.689  1.00  0.00     0.001 A 
HETATM   40  O   UNL     1      43.936 -15.698   2.222  1.00  0.00    -0.270 OA
ENDBRANCH  23  24
ENDBRANCH   2  23
TORSDOF 6
ENDMDL
MODEL 5
REMARK VINA RESULT:      -9.4      2.317      3.222
REMARK  6 active torsions:
REMARK  status: ('A' for Active; 'I' for Inactive)
REMARK    1  A    between atoms: C_2  and  N_3 
REMARK    2  A    between atoms: C_2  and  C_32 
REMARK       I    between atoms: N_3  and  C_4 
REMARK    3  A    between atoms: C_4  and  C_5 
REMARK    4  A    between atoms: C_6  and  N_7 
REMARK       I    between atoms: N_7  and  C_8 
REMARK    5  A    between atoms: C_8  and  C_9 
REMARK    6  A    between atoms: C_9  and  N_10 
ROOT
HETATM    1  N   UNL     1      40.362 -13.482   2.479  1.00  0.00    -0.325 N 
HETATM    2  C   UNL     1      40.234 -12.895   3.730  1.00  0.00     0.240 C 
HETATM    3  O   UNL     1      39.309 -12.183   4.108  1.00  0.00    -0.271 OA
HETATM    4  H   UNL     1      41.271 -13.878   2.257  1.00  0.00     0.169 HD
ENDROOT
BRANCH   1   5
HETATM    5  C   UNL     1      39.445 -13.466   1.402  1.00  0.00     0.050 A 
HETATM    6  C   UNL     1      39.865 -12.978   0.144  1.00  0.00     0.058 A 
HETATM    7  C   UNL     1      39.010 -13.050  -0.967  1.00  0.00     0.019 A 
HETATM    8  C   UNL     1      37.726 -13.574  -0.832  1.00  0.00     0.001 A 
HETATM    9  C   UNL     1      37.296 -14.030   0.410  1.00  0.00     0.002 A 
HETATM   10  C   UNL     1      38.149 -13.979   1.519  1.00  0.00     0.030 A 
BRANCH   6  11
HETATM   11  C   UNL     1      41.217 -12.401  -0.099  1.00  0.00     0.254 C 
HETATM   12  N   UNL     1      41.272 -11.278  -0.903  1.00  0.00    -0.349 N 
HETATM   13  H   UNL     1      40.464 -11.053  -1.482  1.00  0.00     0.163 HD
HETATM   14  O   UNL     1      42.201 -12.926   0.410  1.00  0.00    -0.268 OA
BRANCH  12  15
HETATM   15  C   UNL     1      42.546 -10.695  -1.303  1.00  0.00     0.114 C 
HETATM   16  C   UNL     1      42.950  -9.581  -0.336  1.00  0.00     0.037 C 
BRANCH  15  17
HETATM   17  C   UNL     1      42.498 -10.200  -2.738  1.00  0.00    -0.036 A 
HETATM   18  C   UNL     1      42.421 -11.123  -3.792  1.00  0.00     0.009 A 
HETATM   19  C   UNL     1      42.404 -10.692  -5.120  1.00  0.00     0.001 A 
HETATM   20  C   UNL     1      42.458  -9.333  -5.414  1.00  0.00     0.000 A 
HETATM   21  C   UNL     1      42.524  -8.401  -4.381  1.00  0.00     0.001 A 
HETATM   22  C   UNL     1      42.544  -8.832  -3.053  1.00  0.00     0.009 A 
ENDBRANCH  15  17
ENDBRANCH  12  15
ENDBRANCH   6  11
ENDBRANCH   1   5
BRANCH   2  23
HETATM   23  C   UNL     1      41.467 -13.133   4.603  1.00  0.00     0.240 C 
BRANCH  23  24
HETATM   24  N   UNL     1      42.082 -14.403   4.288  1.00  0.00    -0.259 N 
HETATM   25  C   UNL     1      43.344 -14.516   3.794  1.00  0.00     0.326 C 
HETATM   26  O   UNL     1      44.072 -13.619   3.406  1.00  0.00    -0.247 OA
HETATM   27  N   UNL     1      43.727 -15.833   3.873  1.00  0.00    -0.324 N 
HETATM   28  C   UNL     1      42.706 -16.682   4.451  1.00  0.00     0.120 C 
HETATM   29  H   UNL     1      44.622 -16.141   3.514  1.00  0.00     0.165 HD
HETATM   30  C   UNL     1      42.143 -17.677   3.436  1.00  0.00     0.080 C 
HETATM   31  C   UNL     1      43.169 -17.391   5.722  1.00  0.00     0.046 C 
HETATM   32  C   UNL     1      41.672 -15.602   4.804  1.00  0.00     0.257 C 
HETATM   33  C   UNL     1      43.064 -18.861   3.226  1.00  0.00    -0.049 A 
HETATM   34  C   UNL     1      44.031 -19.220   4.184  1.00  0.00    -0.052 A 
HETATM   35  C   UNL     1      42.917 -19.644   2.070  1.00  0.00     0.007 A 
HETATM   36  C   UNL     1      44.272 -18.401   5.427  1.00  0.00     0.042 C 
HETATM   37  C   UNL     1      44.849 -20.337   3.952  1.00  0.00     0.007 A 
HETATM   38  C   UNL     1      44.702 -21.099   2.794  1.00  0.00     0.001 A 
HETATM   39  C   UNL     1      43.735 -20.752   1.854  1.00  0.00     0.001 A 
HETATM   40  O   UNL     1      40.654 -15.782   5.464  1.00  0.00    -0.270 OA
ENDBRANCH  23  24
ENDBRANCH   2  23
TORSDOF 6
ENDMDL
MODEL 6
REMARK VINA RESULT:      -9.1      2.557      8.019
REMARK  6 active torsions:
REMARK  status: ('A' for Active; 'I' for Inactive)
REMARK    1  A    between atoms: C_2  and  N_3 
REMARK    2  A    between atoms: C_2  and  C_32 
REMARK       I    between atoms: N_3  and  C_4 
REMARK    3  A    between atoms: C_4  and  C_5 
REMARK    4  A    between atoms: C_6  and  N_7 
REMARK       I    between atoms: N_7  and  C_8 
REMARK    5  A    between atoms: C_8  and  C_9 
REMARK    6  A    between atoms: C_9  and  N_10 
ROOT
HETATM    1  N   UNL     1      42.143 -15.627   3.815  1.00  0.00    -0.325 N 
HETATM    2  C   UNL     1      40.792 -15.383   3.618  1.00  0.00     0.240 C 
HETATM    3  O   UNL     1      40.026 -14.846   4.413  1.00  0.00    -0.271 OA
HETATM    4  H   UNL     1      42.591 -16.250   3.148  1.00  0.00     0.169 HD
ENDROOT
BRANCH   1   5
HETATM    5  C   UNL     1      42.954 -15.255   4.912  1.00  0.00     0.050 A 
HETATM    6  C   UNL     1      43.338 -16.237   5.853  1.00  0.00     0.058 A 
HETATM    7  C   UNL     1      44.228 -15.916   6.890  1.00  0.00     0.019 A 
HETATM    8  C   UNL     1      44.715 -14.618   7.021  1.00  0.00     0.001 A 
HETATM    9  C   UNL     1      44.319 -13.639   6.115  1.00  0.00     0.002 A 
HETATM   10  C   UNL     1      43.446 -13.955   5.067  1.00  0.00     0.030 A 
BRANCH   6  11
HETATM   11  C   UNL     1      42.870 -17.650   5.796  1.00  0.00     0.254 C 
HETATM   12  N   UNL     1      43.853 -18.622   5.762  1.00  0.00    -0.349 N 
HETATM   13  H   UNL     1      44.804 -18.346   5.525  1.00  0.00     0.163 HD
HETATM   14  O   UNL     1      41.669 -17.892   5.785  1.00  0.00    -0.268 OA
BRANCH  12  15
HETATM   15  C   UNL     1      43.518 -20.030   5.591  1.00  0.00     0.114 C 
HETATM   16  C   UNL     1      44.259 -20.884   6.621  1.00  0.00     0.037 C 
BRANCH  15  17
HETATM   17  C   UNL     1      43.801 -20.494   4.173  1.00  0.00    -0.036 A 
HETATM   18  C   UNL     1      44.369 -21.759   3.953  1.00  0.00     0.009 A 
HETATM   19  C   UNL     1      44.664 -22.195   2.659  1.00  0.00     0.001 A 
HETATM   20  C   UNL     1      44.392 -21.376   1.567  1.00  0.00     0.000 A 
HETATM   21  C   UNL     1      43.820 -20.122   1.765  1.00  0.00     0.001 A 
HETATM   22  C   UNL     1      43.527 -19.684   3.059  1.00  0.00     0.009 A 
ENDBRANCH  15  17
ENDBRANCH  12  15
ENDBRANCH   6  11
ENDBRANCH   1   5
BRANCH   2  23
HETATM   23  C   UNL     1      40.289 -15.975   2.300  1.00  0.00     0.240 C 
BRANCH  23  24
HETATM   24  N   UNL     1      40.715 -15.167   1.179  1.00  0.00    -0.259 N 
HETATM   25  C   UNL     1      41.824 -15.445   0.442  1.00  0.00     0.326 C 
HETATM   26  O   UNL     1      42.684 -16.275   0.679  1.00  0.00    -0.247 OA
HETATM   27  N   UNL     1      41.792 -14.679  -0.698  1.00  0.00    -0.324 N 
HETATM   28  C   UNL     1      40.617 -13.836  -0.777  1.00  0.00     0.120 C 
HETATM   29  H   UNL     1      42.553 -14.701  -1.366  1.00  0.00     0.165 HD
HETATM   30  C   UNL     1      40.967 -12.350  -0.678  1.00  0.00     0.080 C 
HETATM   31  C   UNL     1      39.760 -14.121  -2.008  1.00  0.00     0.046 C 
HETATM   32  C   UNL     1      39.892 -14.322   0.488  1.00  0.00     0.257 C 
HETATM   33  C   UNL     1      41.498 -11.801  -1.987  1.00  0.00    -0.049 A 
HETATM   34  C   UNL     1      41.232 -12.438  -3.214  1.00  0.00    -0.052 A 
HETATM   35  C   UNL     1      42.230 -10.604  -1.977  1.00  0.00     0.007 A 
HETATM   36  C   UNL     1      40.488 -13.747  -3.295  1.00  0.00     0.042 C 
HETATM   37  C   UNL     1      41.731 -11.879  -4.401  1.00  0.00     0.007 A 
HETATM   38  C   UNL     1      42.468 -10.697  -4.377  1.00  0.00     0.001 A 
HETATM   39  C   UNL     1      42.718 -10.059  -3.165  1.00  0.00     0.001 A 
HETATM   40  O   UNL     1      38.749 -14.019   0.811  1.00  0.00    -0.270 OA
ENDBRANCH  23  24
ENDBRANCH   2  23
TORSDOF 6
ENDMDL
MODEL 7
REMARK VINA RESULT:      -9.1      1.692      4.703
REMARK  6 active torsions:
REMARK  status: ('A' for Active; 'I' for Inactive)
REMARK    1  A    between atoms: C_2  and  N_3 
REMARK    2  A    between atoms: C_2  and  C_32 
REMARK       I    between atoms: N_3  and  C_4 
REMARK    3  A    between atoms: C_4  and  C_5 
REMARK    4  A    between atoms: C_6  and  N_7 
REMARK       I    between atoms: N_7  and  C_8 
REMARK    5  A    between atoms: C_8  and  C_9 
REMARK    6  A    between atoms: C_9  and  N_10 
ROOT
HETATM    1  N   UNL     1      40.619 -13.907   0.579  1.00  0.00    -0.325 N 
HETATM    2  C   UNL     1      41.540 -13.030   1.132  1.00  0.00     0.240 C 
HETATM    3  O   UNL     1      42.313 -12.303   0.517  1.00  0.00    -0.271 OA
HETATM    4  H   UNL     1      40.192 -14.576   1.215  1.00  0.00     0.169 HD
ENDROOT
BRANCH   1   5
HETATM    5  C   UNL     1      40.304 -14.107  -0.786  1.00  0.00     0.050 A 
HETATM    6  C   UNL     1      38.981 -13.888  -1.230  1.00  0.00     0.058 A 
HETATM    7  C   UNL     1      38.667 -13.976  -2.595  1.00  0.00     0.019 A 
HETATM    8  C   UNL     1      39.650 -14.314  -3.522  1.00  0.00     0.001 A 
HETATM    9  C   UNL     1      40.949 -14.559  -3.087  1.00  0.00     0.002 A 
HETATM   10  C   UNL     1      41.275 -14.455  -1.730  1.00  0.00     0.030 A 
BRANCH   6  11
HETATM   11  C   UNL     1      37.862 -13.522  -0.316  1.00  0.00     0.254 C 
HETATM   12  N   UNL     1      37.384 -12.228  -0.416  1.00  0.00    -0.349 N 
HETATM   13  H   UNL     1      37.954 -11.534  -0.897  1.00  0.00     0.163 HD
HETATM   14  O   UNL     1      37.418 -14.356   0.464  1.00  0.00    -0.268 OA
BRANCH  12  15
HETATM   15  C   UNL     1      36.371 -11.723   0.501  1.00  0.00     0.114 C 
HETATM   16  C   UNL     1      35.324 -10.907  -0.256  1.00  0.00     0.037 C 
BRANCH  15  17
HETATM   17  C   UNL     1      37.001 -10.919   1.626  1.00  0.00    -0.036 A 
HETATM   18  C   UNL     1      36.464  -9.671   1.976  1.00  0.00     0.009 A 
HETATM   19  C   UNL     1      37.044  -8.901   2.987  1.00  0.00     0.001 A 
HETATM   20  C   UNL     1      38.164  -9.370   3.666  1.00  0.00     0.000 A 
HETATM   21  C   UNL     1      38.705 -10.611   3.339  1.00  0.00     0.001 A 
HETATM   22  C   UNL     1      38.128 -11.380   2.326  1.00  0.00     0.009 A 
ENDBRANCH  15  17
ENDBRANCH  12  15
ENDBRANCH   6  11
ENDBRANCH   1   5
BRANCH   2  23
HETATM   23  C   UNL     1      41.588 -13.138   2.657  1.00  0.00     0.240 C 
BRANCH  23  24
HETATM   24  N   UNL     1      42.192 -14.386   3.066  1.00  0.00    -0.259 N 
HETATM   25  C   UNL     1      43.442 -14.470   3.596  1.00  0.00     0.326 C 
HETATM   26  O   UNL     1      44.278 -13.586   3.668  1.00  0.00    -0.247 OA
HETATM   27  N   UNL     1      43.605 -15.723   4.133  1.00  0.00    -0.324 N 
HETATM   28  C   UNL     1      42.428 -16.555   3.988  1.00  0.00     0.120 C 
HETATM   29  H   UNL     1      44.487 -16.008   4.542  1.00  0.00     0.165 HD
HETATM   30  C   UNL     1      42.671 -17.736   3.048  1.00  0.00     0.080 C 
HETATM   31  C   UNL     1      41.859 -17.021   5.326  1.00  0.00     0.046 C 
HETATM   32  C   UNL     1      41.485 -15.522   3.352  1.00  0.00     0.257 C 
HETATM   33  C   UNL     1      43.429 -18.859   3.726  1.00  0.00    -0.049 A 
HETATM   34  C   UNL     1      43.456 -18.987   5.128  1.00  0.00    -0.052 A 
HETATM   35  C   UNL     1      44.080 -19.818   2.934  1.00  0.00     0.007 A 
HETATM   36  C   UNL     1      42.815 -17.971   6.039  1.00  0.00     0.042 C 
HETATM   37  C   UNL     1      44.158 -20.056   5.707  1.00  0.00     0.007 A 
HETATM   38  C   UNL     1      44.811 -20.995   4.911  1.00  0.00     0.001 A 
HETATM   39  C   UNL     1      44.771 -20.876   3.524  1.00  0.00     0.001 A 
HETATM   40  O   UNL     1      40.286 -15.682   3.156  1.00  0.00    -0.270 OA
ENDBRANCH  23  24
ENDBRANCH   2  23
TORSDOF 6
ENDMDL
MODEL 8
REMARK VINA RESULT:      -9.1      1.933      4.974
REMARK  6 active torsions:
REMARK  status: ('A' for Active; 'I' for Inactive)
REMARK    1  A    between atoms: C_2  and  N_3 
REMARK    2  A    between atoms: C_2  and  C_32 
REMARK       I    between atoms: N_3  and  C_4 
REMARK    3  A    between atoms: C_4  and  C_5 
REMARK    4  A    between atoms: C_6  and  N_7 
REMARK       I    between atoms: N_7  and  C_8 
REMARK    5  A    between atoms: C_8  and  C_9 
REMARK    6  A    between atoms: C_9  and  N_10 
ROOT
HETATM    1  N   UNL     1      40.608 -14.602   0.594  1.00  0.00    -0.325 N 
HETATM    2  C   UNL     1      41.448 -13.832   1.386  1.00  0.00     0.240 C 
HETATM    3  O   UNL     1      42.279 -13.021   0.990  1.00  0.00    -0.271 OA
HETATM    4  H   UNL     1      40.118 -15.361   1.060  1.00  0.00     0.169 HD
ENDROOT
BRANCH   1   5
HETATM    5  C   UNL     1      40.458 -14.577  -0.812  1.00  0.00     0.050 A 
HETATM    6  C   UNL     1      39.663 -13.570  -1.406  1.00  0.00     0.058 A 
HETATM    7  C   UNL     1      39.584 -13.460  -2.802  1.00  0.00     0.019 A 
HETATM    8  C   UNL     1      40.262 -14.363  -3.618  1.00  0.00     0.001 A 
HETATM    9  C   UNL     1      41.023 -15.375  -3.040  1.00  0.00     0.002 A 
HETATM   10  C   UNL     1      41.122 -15.481  -1.648  1.00  0.00     0.030 A 
BRANCH   6  11
HETATM   11  C   UNL     1      38.903 -12.559  -0.618  1.00  0.00     0.254 C 
HETATM   12  N   UNL     1      39.633 -11.503  -0.105  1.00  0.00    -0.349 N 
HETATM   13  H   UNL     1      40.648 -11.588  -0.062  1.00  0.00     0.163 HD
HETATM   14  O   UNL     1      37.695 -12.694  -0.462  1.00  0.00    -0.268 OA
BRANCH  12  15
HETATM   15  C   UNL     1      39.021 -10.516   0.775  1.00  0.00     0.114 C 
HETATM   16  C   UNL     1      39.412  -9.102   0.345  1.00  0.00     0.037 C 
BRANCH  15  17
HETATM   17  C   UNL     1      39.378 -10.778   2.227  1.00  0.00    -0.036 A 
HETATM   18  C   UNL     1      38.528 -11.562   3.024  1.00  0.00     0.009 A 
HETATM   19  C   UNL     1      38.822 -11.792   4.370  1.00  0.00     0.001 A 
HETATM   20  C   UNL     1      39.970 -11.248   4.938  1.00  0.00     0.000 A 
HETATM   21  C   UNL     1      40.830 -10.476   4.161  1.00  0.00     0.001 A 
HETATM   22  C   UNL     1      40.536 -10.243   2.815  1.00  0.00     0.009 A 
ENDBRANCH  15  17
ENDBRANCH  12  15
ENDBRANCH   6  11
ENDBRANCH   1   5
BRANCH   2  23
HETATM   23  C   UNL     1      41.319 -14.185   2.868  1.00  0.00     0.240 C 
BRANCH  23  24
HETATM   24  N   UNL     1      41.804 -15.523   3.123  1.00  0.00    -0.259 N 
HETATM   25  C   UNL     1      41.037 -16.635   2.965  1.00  0.00     0.326 C 
HETATM   26  O   UNL     1      39.839 -16.686   2.748  1.00  0.00    -0.247 OA
HETATM   27  N   UNL     1      41.855 -17.737   3.006  1.00  0.00    -0.324 N 
HETATM   28  C   UNL     1      43.251 -17.396   3.190  1.00  0.00     0.120 C 
HETATM   29  H   UNL     1      41.476 -18.675   2.951  1.00  0.00     0.165 HD
HETATM   30  C   UNL     1      43.785 -17.870   4.543  1.00  0.00     0.080 C 
HETATM   31  C   UNL     1      44.139 -17.879   2.046  1.00  0.00     0.046 C 
HETATM   32  C   UNL     1      43.128 -15.866   3.146  1.00  0.00     0.257 C 
HETATM   33  C   UNL     1      44.106 -19.351   4.542  1.00  0.00    -0.049 A 
HETATM   34  C   UNL     1      44.344 -20.052   3.345  1.00  0.00    -0.052 A 
HETATM   35  C   UNL     1      44.214 -20.025   5.768  1.00  0.00     0.007 A 
HETATM   36  C   UNL     1      44.204 -19.401   1.992  1.00  0.00     0.042 C 
HETATM   37  C   UNL     1      44.656 -21.420   3.399  1.00  0.00     0.007 A 
HETATM   38  C   UNL     1      44.748 -22.082   4.622  1.00  0.00     0.001 A 
HETATM   39  C   UNL     1      44.527 -21.384   5.806  1.00  0.00     0.001 A 
HETATM   40  O   UNL     1      44.068 -15.079   3.111  1.00  0.00    -0.270 OA
ENDBRANCH  23  24
ENDBRANCH   2  23
TORSDOF 6
ENDMDL
MODEL 9
REMARK VINA RESULT:      -9.0      1.986      3.529
REMARK  6 active torsions:
REMARK  status: ('A' for Active; 'I' for Inactive)
REMARK    1  A    between atoms: C_2  and  N_3 
REMARK    2  A    between atoms: C_2  and  C_32 
REMARK       I    between atoms: N_3  and  C_4 
REMARK    3  A    between atoms: C_4  and  C_5 
REMARK    4  A    between atoms: C_6  and  N_7 
REMARK       I    between atoms: N_7  and  C_8 
REMARK    5  A    between atoms: C_8  and  C_9 
REMARK    6  A    between atoms: C_9  and  N_10 
ROOT
HETATM    1  N   UNL     1      39.625 -11.058   1.571  1.00  0.00    -0.325 N 
HETATM    2  C   UNL     1      39.660 -11.703   2.799  1.00  0.00     0.240 C 
HETATM    3  O   UNL     1      38.767 -12.389   3.287  1.00  0.00    -0.271 OA
HETATM    4  H   UNL     1      40.358 -10.375   1.398  1.00  0.00     0.169 HD
ENDROOT
BRANCH   1   5
HETATM    5  C   UNL     1      38.614 -11.102   0.583  1.00  0.00     0.050 A 
HETATM    6  C   UNL     1      38.786 -11.934  -0.546  1.00  0.00     0.058 A 
HETATM    7  C   UNL     1      37.754 -12.077  -1.486  1.00  0.00     0.019 A 
HETATM    8  C   UNL     1      36.561 -11.374  -1.332  1.00  0.00     0.001 A 
HETATM    9  C   UNL     1      36.396 -10.531  -0.237  1.00  0.00     0.002 A 
HETATM   10  C   UNL     1      37.413 -10.397   0.715  1.00  0.00     0.030 A 
BRANCH   6  11
HETATM   11  C   UNL     1      40.023 -12.725  -0.797  1.00  0.00     0.254 C 
HETATM   12  N   UNL     1      39.865 -14.092  -0.920  1.00  0.00    -0.349 N 
HETATM   13  H   UNL     1      38.997 -14.514  -0.592  1.00  0.00     0.163 HD
HETATM   14  O   UNL     1      41.103 -12.151  -0.886  1.00  0.00    -0.268 OA
BRANCH  12  15
HETATM   15  C   UNL     1      41.014 -14.979  -1.054  1.00  0.00     0.114 C 
HETATM   16  C   UNL     1      40.849 -15.888  -2.271  1.00  0.00     0.037 C 
BRANCH  15  17
HETATM   17  C   UNL     1      41.240 -15.780   0.217  1.00  0.00    -0.036 A 
HETATM   18  C   UNL     1      42.343 -16.642   0.310  1.00  0.00     0.009 A 
HETATM   19  C   UNL     1      42.555 -17.411   1.457  1.00  0.00     0.001 A 
HETATM   20  C   UNL     1      41.671 -17.324   2.529  1.00  0.00     0.000 A 
HETATM   21  C   UNL     1      40.576 -16.466   2.459  1.00  0.00     0.001 A 
HETATM   22  C   UNL     1      40.362 -15.700   1.311  1.00  0.00     0.009 A 
ENDBRANCH  15  17
ENDBRANCH  12  15
ENDBRANCH   6  11
ENDBRANCH   1   5
BRANCH   2  23
HETATM   23  C   UNL     1      40.932 -11.373   3.582  1.00  0.00     0.240 C 
BRANCH  23  24
HETATM   24  N   UNL     1      41.591 -12.582   4.023  1.00  0.00    -0.259 N 
HETATM   25  C   UNL     1      42.529 -13.232   3.282  1.00  0.00     0.326 C 
HETATM   26  O   UNL     1      42.842 -13.013   2.125  1.00  0.00    -0.247 OA
HETATM   27  N   UNL     1      43.154 -14.155   4.083  1.00  0.00    -0.324 N 
HETATM   28  C   UNL     1      42.651 -14.156   5.441  1.00  0.00     0.120 C 
HETATM   29  H   UNL     1      43.860 -14.780   3.711  1.00  0.00     0.165 HD
HETATM   30  C   UNL     1      41.919 -15.454   5.782  1.00  0.00     0.080 C 
HETATM   31  C   UNL     1      43.728 -13.840   6.476  1.00  0.00     0.046 C 
HETATM   32  C   UNL     1      41.672 -12.977   5.331  1.00  0.00     0.257 C 
HETATM   33  C   UNL     1      42.878 -16.584   6.096  1.00  0.00    -0.049 A 
HETATM   34  C   UNL     1      44.205 -16.335   6.493  1.00  0.00    -0.052 A 
HETATM   35  C   UNL     1      42.416 -17.908   6.032  1.00  0.00     0.007 A 
HETATM   36  C   UNL     1      44.780 -14.942   6.543  1.00  0.00     0.042 C 
HETATM   37  C   UNL     1      45.049 -17.417   6.790  1.00  0.00     0.007 A 
HETATM   38  C   UNL     1      44.582 -18.727   6.711  1.00  0.00     0.001 A 
HETATM   39  C   UNL     1      43.265 -18.973   6.333  1.00  0.00     0.001 A 
HETATM   40  O   UNL     1      41.078 -12.458   6.269  1.00  0.00    -0.270 OA
ENDBRANCH  23  24
ENDBRANCH   2  23
TORSDOF 6
ENDMDL
MODEL 10
REMARK VINA RESULT:      -8.9      1.285      2.130
REMARK  6 active torsions:
REMARK  status: ('A' for Active; 'I' for Inactive)
REMARK    1  A    between atoms: C_2  and  N_3 
REMARK    2  A    between atoms: C_2  and  C_32 
REMARK       I    between atoms: N_3  and  C_4 
REMARK    3  A    between atoms: C_4  and  C_5 
REMARK    4  A    between atoms: C_6  and  N_7 
REMARK       I    between atoms: N_7  and  C_8 
REMARK    5  A    between atoms: C_8  and  C_9 
REMARK    6  A    between atoms: C_9  and  N_10 
ROOT
HETATM    1  N   UNL     1      40.327 -11.611   4.710  1.00  0.00    -0.325 N 
HETATM    2  C   UNL     1      40.343 -12.976   4.958  1.00  0.00     0.240 C 
HETATM    3  O   UNL     1      39.478 -13.784   4.638  1.00  0.00    -0.271 OA
HETATM    4  H   UNL     1      41.018 -11.053   5.205  1.00  0.00     0.169 HD
ENDROOT
BRANCH   1   5
HETATM    5  C   UNL     1      39.374 -10.861   3.981  1.00  0.00     0.050 A 
HETATM    6  C   UNL     1      39.376 -10.926   2.569  1.00  0.00     0.058 A 
HETATM    7  C   UNL     1      38.378 -10.277   1.827  1.00  0.00     0.019 A 
HETATM    8  C   UNL     1      37.393  -9.534   2.474  1.00  0.00     0.001 A 
HETATM    9  C   UNL     1      37.402  -9.442   3.863  1.00  0.00     0.002 A 
HETATM   10  C   UNL     1      38.383 -10.102   4.611  1.00  0.00     0.030 A 
BRANCH   6  11
HETATM   11  C   UNL     1      40.386 -11.694   1.788  1.00  0.00     0.254 C 
HETATM   12  N   UNL     1      39.936 -12.304   0.632  1.00  0.00    -0.349 N 
HETATM   13  H   UNL     1      38.932 -12.420   0.501  1.00  0.00     0.163 HD
HETATM   14  O   UNL     1      41.544 -11.754   2.185  1.00  0.00    -0.268 OA
BRANCH  12  15
HETATM   15  C   UNL     1      40.803 -13.174  -0.152  1.00  0.00     0.114 C 
HETATM   16  C   UNL     1      40.447 -13.086  -1.637  1.00  0.00     0.037 C 
BRANCH  15  17
HETATM   17  C   UNL     1      40.746 -14.605   0.353  1.00  0.00    -0.036 A 
HETATM   18  C   UNL     1      39.814 -14.960   1.340  1.00  0.00     0.009 A 
HETATM   19  C   UNL     1      39.763 -16.263   1.840  1.00  0.00     0.001 A 
HETATM   20  C   UNL     1      40.639 -17.231   1.357  1.00  0.00     0.000 A 
HETATM   21  C   UNL     1      41.564 -16.900   0.370  1.00  0.00     0.001 A 
HETATM   22  C   UNL     1      41.617 -15.597  -0.128  1.00  0.00     0.009 A 
ENDBRANCH  15  17
ENDBRANCH  12  15
ENDBRANCH   6  11
ENDBRANCH   1   5
BRANCH   2  23
HETATM   23  C   UNL     1      41.546 -13.388   5.808  1.00  0.00     0.240 C 
BRANCH  23  24
HETATM   24  N   UNL     1      42.166 -14.581   5.278  1.00  0.00    -0.259 N 
HETATM   25  C   UNL     1      43.327 -14.565   4.571  1.00  0.00     0.326 C 
HETATM   26  O   UNL     1      43.927 -13.590   4.151  1.00  0.00    -0.247 OA
HETATM   27  N   UNL     1      43.790 -15.854   4.462  1.00  0.00    -0.324 N 
HETATM   28  C   UNL     1      42.932 -16.817   5.121  1.00  0.00     0.120 C 
HETATM   29  H   UNL     1      44.625 -16.068   3.931  1.00  0.00     0.165 HD
HETATM   30  C   UNL     1      42.257 -17.762   4.126  1.00  0.00     0.080 C 
HETATM   31  C   UNL     1      43.647 -17.594   6.224  1.00  0.00     0.046 C 
HETATM   32  C   UNL     1      41.918 -15.844   5.741  1.00  0.00     0.257 C 
HETATM   33  C   UNL     1      43.192 -18.857   3.656  1.00  0.00    -0.049 A 
HETATM   34  C   UNL     1      44.328 -19.226   4.400  1.00  0.00    -0.052 A 
HETATM   35  C   UNL     1      42.890 -19.551   2.473  1.00  0.00     0.007 A 
HETATM   36  C   UNL     1      44.736 -18.497   5.656  1.00  0.00     0.042 C 
HETATM   37  C   UNL     1      45.154 -20.260   3.931  1.00  0.00     0.007 A 
HETATM   38  C   UNL     1      44.849 -20.932   2.749  1.00  0.00     0.001 A 
HETATM   39  C   UNL     1      43.717 -20.578   2.020  1.00  0.00     0.001 A 
HETATM   40  O   UNL     1      41.041 -16.149   6.543  1.00  0.00    -0.270 OA
ENDBRANCH  23  24
ENDBRANCH   2  23
TORSDOF 6
ENDMDL
