MODEL 1
REMARK VINA RESULT:      -8.5      0.000      0.000
REMARK  5 active torsions:
REMARK  status: ('A' for Active; 'I' for Inactive)
REMARK    1  A    between atoms: C_2  and  C_3 
REMARK    2  A    between atoms: C_3  and  O_4 
REMARK    3  A    between atoms: O_4  and  C_5 
REMARK    4  A    between atoms: C_8  and  C_9 
REMARK    5  A    between atoms: C_15  and  C_16 
ROOT
HETATM    1  C   UNL     1      41.689 -17.703   4.766  1.00  0.00     0.066 C 
HETATM    2  C   UNL     1      43.041 -17.780   5.385  1.00  0.00     0.028 A 
HETATM    3  C   UNL     1      43.506 -16.836   6.265  1.00  0.00     0.133 A 
HETATM    4  N   UNL     1      44.766 -17.199   6.616  1.00  0.00    -0.261 N 
HETATM    5  H   UNL     1      45.414 -16.740   7.249  1.00  0.00     0.191 HD
HETATM    6  N   UNL     1      45.173 -18.314   5.998  1.00  0.00    -0.172 NA
HETATM    7  C   UNL     1      44.137 -18.685   5.220  1.00  0.00     0.098 A 
HETATM    8  N   UNL     1      42.784 -15.724   6.614  1.00  0.00    -0.312 N 
HETATM    9  C   UNL     1      41.444 -15.570   6.143  1.00  0.00     0.224 C 
HETATM   10  O   UNL     1      40.908 -14.504   6.397  1.00  0.00    -0.273 OA
HETATM   11  C   UNL     1      40.751 -16.757   5.525  1.00  0.00     0.117 C 
HETATM   12  H   UNL     1      43.175 -14.965   7.159  1.00  0.00     0.170 HD
ENDROOT
BRANCH   1  13
HETATM   13  C   UNL     1      41.847 -17.302   3.309  1.00  0.00    -0.049 A 
HETATM   14  C   UNL     1      40.928 -17.820   2.378  1.00  0.00     0.010 A 
HETATM   15  C   UNL     1      40.966 -17.443   1.031  1.00  0.00     0.037 A 
HETATM   16  C   UNL     1      41.921 -16.531   0.591  1.00  0.00     0.069 A 
HETATM   17  C   UNL     1      42.856 -16.032   1.496  1.00  0.00     0.037 A 
HETATM   18  C   UNL     1      42.813 -16.398   2.845  1.00  0.00     0.010 A 
BRANCH  16  19
HETATM   19  O   UNL     1      42.048 -16.072  -0.690  1.00  0.00    -0.348 OA
BRANCH  19  20
HETATM   20  C   UNL     1      40.917 -15.387  -1.226  1.00  0.00     0.202 C 
BRANCH  20  21
HETATM   21  C   UNL     1      40.935 -15.587  -2.712  1.00  0.00    -0.011 C 
HETATM   22  C   UNL     1      39.879 -15.967  -3.443  1.00  0.00     0.009 C 
ENDBRANCH  20  21
ENDBRANCH  19  20
ENDBRANCH  16  19
ENDBRANCH   1  13
BRANCH   7  23
HETATM   23  C   UNL     1      44.268 -19.833   4.321  1.00  0.00    -0.005 A 
HETATM   24  C   UNL     1      44.597 -21.110   4.792  1.00  0.00     0.014 A 
HETATM   25  C   UNL     1      44.678 -22.192   3.911  1.00  0.00     0.001 A 
HETATM   26  C   UNL     1      44.446 -22.007   2.549  1.00  0.00     0.000 A 
HETATM   27  C   UNL     1      44.140 -20.738   2.064  1.00  0.00     0.001 A 
HETATM   28  C   UNL     1      44.054 -19.658   2.944  1.00  0.00     0.014 A 
ENDBRANCH   7  23
TORSDOF 5
ENDMDL
MODEL 2
REMARK VINA RESULT:      -8.5      2.270      5.892
REMARK  5 active torsions:
REMARK  status: ('A' for Active; 'I' for Inactive)
REMARK    1  A    between atoms: C_2  and  C_3 
REMARK    2  A    between atoms: C_3  and  O_4 
REMARK    3  A    between atoms: O_4  and  C_5 
REMARK    4  A    between atoms: C_8  and  C_9 
REMARK    5  A    between atoms: C_15  and  C_16 
ROOT
HETATM    1  C   UNL     1      43.135 -15.450   4.370  1.00  0.00     0.066 C 
HETATM    2  C   UNL     1      41.698 -15.062   4.404  1.00  0.00     0.028 A 
HETATM    3  C   UNL     1      40.916 -15.219   5.519  1.00  0.00     0.133 A 
HETATM    4  N   UNL     1      39.669 -14.787   5.201  1.00  0.00    -0.261 N 
HETATM    5  H   UNL     1      38.834 -14.753   5.778  1.00  0.00     0.191 HD
HETATM    6  N   UNL     1      39.573 -14.379   3.930  1.00  0.00    -0.172 NA
HETATM    7  C   UNL     1      40.804 -14.552   3.409  1.00  0.00     0.098 A 
HETATM    8  N   UNL     1      41.379 -15.785   6.679  1.00  0.00    -0.312 N 
HETATM    9  C   UNL     1      42.759 -16.134   6.797  1.00  0.00     0.224 C 
HETATM   10  O   UNL     1      43.072 -16.738   7.810  1.00  0.00    -0.273 OA
HETATM   11  C   UNL     1      43.731 -15.608   5.773  1.00  0.00     0.117 C 
HETATM   12  H   UNL     1      40.772 -16.019   7.455  1.00  0.00     0.170 HD
ENDROOT
BRANCH   1  13
HETATM   13  C   UNL     1      43.274 -16.717   3.543  1.00  0.00    -0.049 A 
HETATM   14  C   UNL     1      43.848 -16.611   2.263  1.00  0.00     0.010 A 
HETATM   15  C   UNL     1      44.074 -17.743   1.471  1.00  0.00     0.037 A 
HETATM   16  C   UNL     1      43.736 -19.005   1.949  1.00  0.00     0.069 A 
HETATM   17  C   UNL     1      43.140 -19.122   3.204  1.00  0.00     0.037 A 
HETATM   18  C   UNL     1      42.924 -17.995   4.002  1.00  0.00     0.010 A 
BRANCH  16  19
HETATM   19  O   UNL     1      43.922 -20.182   1.281  1.00  0.00    -0.348 OA
BRANCH  19  20
HETATM   20  C   UNL     1      43.372 -21.347   1.896  1.00  0.00     0.202 C 
BRANCH  20  21
HETATM   21  C   UNL     1      44.519 -22.168   2.404  1.00  0.00    -0.011 C 
HETATM   22  C   UNL     1      44.626 -22.637   3.654  1.00  0.00     0.009 C 
ENDBRANCH  20  21
ENDBRANCH  19  20
ENDBRANCH  16  19
ENDBRANCH   1  13
BRANCH   7  23
HETATM   23  C   UNL     1      41.044 -14.287   1.990  1.00  0.00    -0.005 A 
HETATM   24  C   UNL     1      41.592 -13.078   1.543  1.00  0.00     0.014 A 
HETATM   25  C   UNL     1      41.843 -12.872   0.183  1.00  0.00     0.001 A 
HETATM   26  C   UNL     1      41.535 -13.865  -0.745  1.00  0.00     0.000 A 
HETATM   27  C   UNL     1      40.968 -15.063  -0.318  1.00  0.00     0.001 A 
HETATM   28  C   UNL     1      40.723 -15.271   1.041  1.00  0.00     0.014 A 
ENDBRANCH   7  23
TORSDOF 5
ENDMDL
MODEL 3
REMARK VINA RESULT:      -8.4      3.472      6.015
REMARK  5 active torsions:
REMARK  status: ('A' for Active; 'I' for Inactive)
REMARK    1  A    between atoms: C_2  and  C_3 
REMARK    2  A    between atoms: C_3  and  O_4 
REMARK    3  A    between atoms: O_4  and  C_5 
REMARK    4  A    between atoms: C_8  and  C_9 
REMARK    5  A    between atoms: C_15  and  C_16 
ROOT
HETATM    1  C   UNL     1      42.272 -14.113   4.075  1.00  0.00     0.066 C 
HETATM    2  C   UNL     1      41.150 -14.725   3.312  1.00  0.00     0.028 A 
HETATM    3  C   UNL     1      39.884 -14.196   3.306  1.00  0.00     0.133 A 
HETATM    4  N   UNL     1      39.113 -15.004   2.535  1.00  0.00    -0.261 N 
HETATM    5  H   UNL     1      38.128 -14.922   2.304  1.00  0.00     0.191 HD
HETATM    6  N   UNL     1      39.788 -16.053   2.052  1.00  0.00    -0.172 NA
HETATM    7  C   UNL     1      41.042 -15.917   2.528  1.00  0.00     0.098 A 
HETATM    8  N   UNL     1      39.538 -13.087   4.035  1.00  0.00    -0.312 N 
HETATM    9  C   UNL     1      40.541 -12.367   4.753  1.00  0.00     0.224 C 
HETATM   10  O   UNL     1      40.140 -11.465   5.470  1.00  0.00    -0.273 OA
HETATM   11  C   UNL     1      41.991 -12.656   4.461  1.00  0.00     0.117 C 
HETATM   12  H   UNL     1      38.580 -12.773   4.134  1.00  0.00     0.170 HD
ENDROOT
BRANCH   1  13
HETATM   13  C   UNL     1      42.560 -14.980   5.288  1.00  0.00    -0.049 A 
HETATM   14  C   UNL     1      41.525 -15.799   5.777  1.00  0.00     0.010 A 
HETATM   15  C   UNL     1      41.734 -16.678   6.845  1.00  0.00     0.037 A 
HETATM   16  C   UNL     1      42.988 -16.760   7.442  1.00  0.00     0.069 A 
HETATM   17  C   UNL     1      44.016 -15.935   6.988  1.00  0.00     0.037 A 
HETATM   18  C   UNL     1      43.813 -15.064   5.913  1.00  0.00     0.010 A 
BRANCH  16  19
HETATM   19  O   UNL     1      43.321 -17.589   8.477  1.00  0.00    -0.348 OA
BRANCH  19  20
HETATM   20  C   UNL     1      44.312 -18.577   8.195  1.00  0.00     0.202 C 
BRANCH  20  21
HETATM   21  C   UNL     1      43.654 -19.651   7.383  1.00  0.00    -0.011 C 
HETATM   22  C   UNL     1      44.073 -20.061   6.178  1.00  0.00     0.009 C 
ENDBRANCH  20  21
ENDBRANCH  19  20
ENDBRANCH  16  19
ENDBRANCH   1  13
BRANCH   7  23
HETATM   23  C   UNL     1      42.043 -16.953   2.267  1.00  0.00    -0.005 A 
HETATM   24  C   UNL     1      42.154 -18.096   3.067  1.00  0.00     0.014 A 
HETATM   25  C   UNL     1      43.097 -19.083   2.767  1.00  0.00     0.001 A 
HETATM   26  C   UNL     1      43.949 -18.931   1.674  1.00  0.00     0.000 A 
HETATM   27  C   UNL     1      43.865 -17.788   0.884  1.00  0.00     0.001 A 
HETATM   28  C   UNL     1      42.919 -16.805   1.179  1.00  0.00     0.014 A 
ENDBRANCH   7  23
TORSDOF 5
ENDMDL
MODEL 4
REMARK VINA RESULT:      -8.0      2.587      4.979
REMARK  5 active torsions:
REMARK  status: ('A' for Active; 'I' for Inactive)
REMARK    1  A    between atoms: C_2  and  C_3 
REMARK    2  A    between atoms: C_3  and  O_4 
REMARK    3  A    between atoms: O_4  and  C_5 
REMARK    4  A    between atoms: C_8  and  C_9 
REMARK    5  A    between atoms: C_15  and  C_16 
ROOT
HETATM    1  C   UNL     1      44.799 -18.715   4.692  1.00  0.00     0.066 C 
HETATM    2  C   UNL     1      44.236 -18.675   6.069  1.00  0.00     0.028 A 
HETATM    3  C   UNL     1      43.946 -19.809   6.784  1.00  0.00     0.133 A 
HETATM    4  N   UNL     1      43.435 -19.414   7.978  1.00  0.00    -0.261 N 
HETATM    5  H   UNL     1      43.113 -19.979   8.757  1.00  0.00     0.191 HD
HETATM    6  N   UNL     1      43.345 -18.083   8.085  1.00  0.00    -0.172 NA
HETATM    7  C   UNL     1      43.815 -17.601   6.918  1.00  0.00     0.098 A 
HETATM    8  N   UNL     1      44.110 -21.072   6.273  1.00  0.00    -0.312 N 
HETATM    9  C   UNL     1      44.709 -21.246   4.989  1.00  0.00     0.224 C 
HETATM   10  O   UNL     1      44.714 -22.386   4.553  1.00  0.00    -0.273 OA
HETATM   11  C   UNL     1      45.415 -20.077   4.352  1.00  0.00     0.117 C 
HETATM   12  H   UNL     1      43.776 -21.902   6.748  1.00  0.00     0.170 HD
ENDROOT
BRANCH   1  13
HETATM   13  C   UNL     1      43.708 -18.320   3.712  1.00  0.00    -0.049 A 
HETATM   14  C   UNL     1      42.374 -18.350   4.161  1.00  0.00     0.010 A 
HETATM   15  C   UNL     1      41.320 -17.933   3.341  1.00  0.00     0.037 A 
HETATM   16  C   UNL     1      41.581 -17.470   2.055  1.00  0.00     0.069 A 
HETATM   17  C   UNL     1      42.895 -17.461   1.587  1.00  0.00     0.037 A 
HETATM   18  C   UNL     1      43.951 -17.866   2.408  1.00  0.00     0.010 A 
BRANCH  16  19
HETATM   19  O   UNL     1      40.644 -17.020   1.168  1.00  0.00    -0.348 OA
BRANCH  19  20
HETATM   20  C   UNL     1      40.534 -15.603   1.037  1.00  0.00     0.202 C 
BRANCH  20  21
HETATM   21  C   UNL     1      39.485 -15.144   2.005  1.00  0.00    -0.011 C 
HETATM   22  C   UNL     1      39.734 -14.465   3.133  1.00  0.00     0.009 C 
ENDBRANCH  20  21
ENDBRANCH  19  20
ENDBRANCH  16  19
ENDBRANCH   1  13
BRANCH   7  23
HETATM   23  C   UNL     1      43.779 -16.163   6.649  1.00  0.00    -0.005 A 
HETATM   24  C   UNL     1      44.860 -15.325   6.947  1.00  0.00     0.014 A 
HETATM   25  C   UNL     1      44.806 -13.961   6.644  1.00  0.00     0.001 A 
HETATM   26  C   UNL     1      43.666 -13.418   6.054  1.00  0.00     0.000 A 
HETATM   27  C   UNL     1      42.574 -14.236   5.774  1.00  0.00     0.001 A 
HETATM   28  C   UNL     1      42.630 -15.598   6.071  1.00  0.00     0.014 A 
ENDBRANCH   7  23
TORSDOF 5
ENDMDL
MODEL 5
REMARK VINA RESULT:      -7.7      3.996      7.659
REMARK  5 active torsions:
REMARK  status: ('A' for Active; 'I' for Inactive)
REMARK    1  A    between atoms: C_2  and  C_3 
REMARK    2  A    between atoms: C_3  and  O_4 
REMARK    3  A    between atoms: O_4  and  C_5 
REMARK    4  A    between atoms: C_8  and  C_9 
REMARK    5  A    between atoms: C_15  and  C_16 
ROOT
HETATM    1  C   UNL     1      40.348 -14.194  -0.298  1.00  0.00     0.066 C 
HETATM    2  C   UNL     1      41.362 -13.108  -0.385  1.00  0.00     0.028 A 
HETATM    3  C   UNL     1      42.019 -12.801  -1.549  1.00  0.00     0.133 A 
HETATM    4  N   UNL     1      42.878 -11.787  -1.272  1.00  0.00    -0.261 N 
HETATM    5  H   UNL     1      43.522 -11.304  -1.890  1.00  0.00     0.191 HD
HETATM    6  N   UNL     1      42.848 -11.423   0.015  1.00  0.00    -0.172 NA
HETATM    7  C   UNL     1      41.935 -12.231   0.590  1.00  0.00     0.098 A 
HETATM    8  N   UNL     1      41.828 -13.495  -2.717  1.00  0.00    -0.312 N 
HETATM    9  C   UNL     1      40.829 -14.514  -2.781  1.00  0.00     0.224 C 
HETATM   10  O   UNL     1      40.798 -15.165  -3.813  1.00  0.00    -0.273 OA
HETATM   11  C   UNL     1      39.812 -14.605  -1.674  1.00  0.00     0.117 C 
HETATM   12  H   UNL     1      42.404 -13.355  -3.538  1.00  0.00     0.170 HD
ENDROOT
BRANCH   1  13
HETATM   13  C   UNL     1      40.958 -15.366   0.451  1.00  0.00    -0.049 A 
HETATM   14  C   UNL     1      40.279 -15.853   1.584  1.00  0.00     0.010 A 
HETATM   15  C   UNL     1      40.741 -16.973   2.284  1.00  0.00     0.037 A 
HETATM   16  C   UNL     1      41.890 -17.633   1.859  1.00  0.00     0.069 A 
HETATM   17  C   UNL     1      42.589 -17.146   0.756  1.00  0.00     0.037 A 
HETATM   18  C   UNL     1      42.123 -16.034   0.047  1.00  0.00     0.010 A 
BRANCH  16  19
HETATM   19  O   UNL     1      42.428 -18.744   2.445  1.00  0.00    -0.348 OA
BRANCH  19  20
HETATM   20  C   UNL     1      43.776 -19.051   2.087  1.00  0.00     0.202 C 
BRANCH  20  21
HETATM   21  C   UNL     1      44.038 -20.467   2.506  1.00  0.00    -0.011 C 
HETATM   22  C   UNL     1      43.814 -21.543   1.740  1.00  0.00     0.009 C 
ENDBRANCH  20  21
ENDBRANCH  19  20
ENDBRANCH  16  19
ENDBRANCH   1  13
BRANCH   7  23
HETATM   23  C   UNL     1      41.707 -12.169   2.035  1.00  0.00    -0.005 A 
HETATM   24  C   UNL     1      42.380 -13.009   2.929  1.00  0.00     0.014 A 
HETATM   25  C   UNL     1      42.165 -12.899   4.306  1.00  0.00     0.001 A 
HETATM   26  C   UNL     1      41.264 -11.958   4.802  1.00  0.00     0.000 A 
HETATM   27  C   UNL     1      40.570 -11.131   3.923  1.00  0.00     0.001 A 
HETATM   28  C   UNL     1      40.789 -11.237   2.548  1.00  0.00     0.014 A 
ENDBRANCH   7  23
TORSDOF 5
ENDMDL
MODEL 6
REMARK VINA RESULT:      -7.7      2.083      2.983
REMARK  5 active torsions:
REMARK  status: ('A' for Active; 'I' for Inactive)
REMARK    1  A    between atoms: C_2  and  C_3 
REMARK    2  A    between atoms: C_3  and  O_4 
REMARK    3  A    between atoms: O_4  and  C_5 
REMARK    4  A    between atoms: C_8  and  C_9 
REMARK    5  A    between atoms: C_15  and  C_16 
ROOT
HETATM    1  C   UNL     1      40.626 -15.103   4.256  1.00  0.00     0.066 C 
HETATM    2  C   UNL     1      41.908 -15.137   5.013  1.00  0.00     0.028 A 
HETATM    3  C   UNL     1      42.205 -14.238   6.005  1.00  0.00     0.133 A 
HETATM    4  N   UNL     1      43.445 -14.540   6.465  1.00  0.00    -0.261 N 
HETATM    5  H   UNL     1      43.986 -14.090   7.197  1.00  0.00     0.191 HD
HETATM    6  N   UNL     1      43.999 -15.572   5.816  1.00  0.00    -0.172 NA
HETATM    7  C   UNL     1      43.081 -15.950   4.905  1.00  0.00     0.098 A 
HETATM    8  N   UNL     1      41.367 -13.209   6.351  1.00  0.00    -0.312 N 
HETATM    9  C   UNL     1      40.076 -13.110   5.748  1.00  0.00     0.224 C 
HETATM   10  O   UNL     1      39.437 -12.106   6.017  1.00  0.00    -0.273 OA
HETATM   11  C   UNL     1      39.545 -14.288   4.973  1.00  0.00     0.117 C 
HETATM   12  H   UNL     1      41.640 -12.471   6.990  1.00  0.00     0.170 HD
ENDROOT
BRANCH   1  13
HETATM   13  C   UNL     1      40.905 -14.578   2.858  1.00  0.00    -0.049 A 
HETATM   14  C   UNL     1      41.755 -13.463   2.728  1.00  0.00     0.010 A 
HETATM   15  C   UNL     1      42.116 -12.966   1.471  1.00  0.00     0.037 A 
HETATM   16  C   UNL     1      41.639 -13.580   0.317  1.00  0.00     0.069 A 
HETATM   17  C   UNL     1      40.774 -14.667   0.431  1.00  0.00     0.037 A 
HETATM   18  C   UNL     1      40.421 -15.174   1.685  1.00  0.00     0.010 A 
BRANCH  16  19
HETATM   19  O   UNL     1      41.933 -13.200  -0.962  1.00  0.00    -0.348 OA
BRANCH  19  20
HETATM   20  C   UNL     1      40.873 -13.319  -1.911  1.00  0.00     0.202 C 
BRANCH  20  21
HETATM   21  C   UNL     1      41.353 -14.222  -3.007  1.00  0.00    -0.011 C 
HETATM   22  C   UNL     1      41.002 -15.508  -3.144  1.00  0.00     0.009 C 
ENDBRANCH  20  21
ENDBRANCH  19  20
ENDBRANCH  16  19
ENDBRANCH   1  13
BRANCH   7  23
HETATM   23  C   UNL     1      43.393 -17.011   3.945  1.00  0.00    -0.005 A 
HETATM   24  C   UNL     1      43.369 -18.364   4.302  1.00  0.00     0.014 A 
HETATM   25  C   UNL     1      43.636 -19.353   3.352  1.00  0.00     0.001 A 
HETATM   26  C   UNL     1      43.945 -19.000   2.039  1.00  0.00     0.000 A 
HETATM   27  C   UNL     1      43.996 -17.657   1.676  1.00  0.00     0.001 A 
HETATM   28  C   UNL     1      43.723 -16.669   2.624  1.00  0.00     0.014 A 
ENDBRANCH   7  23
TORSDOF 5
ENDMDL
MODEL 7
REMARK VINA RESULT:      -7.7      3.739      6.689
REMARK  5 active torsions:
REMARK  status: ('A' for Active; 'I' for Inactive)
REMARK    1  A    between atoms: C_2  and  C_3 
REMARK    2  A    between atoms: C_3  and  O_4 
REMARK    3  A    between atoms: O_4  and  C_5 
REMARK    4  A    between atoms: C_8  and  C_9 
REMARK    5  A    between atoms: C_15  and  C_16 
ROOT
HETATM    1  C   UNL     1      41.981 -13.823   2.140  1.00  0.00     0.066 C 
HETATM    2  C   UNL     1      40.893 -14.838   2.074  1.00  0.00     0.028 A 
HETATM    3  C   UNL     1      39.577 -14.499   1.895  1.00  0.00     0.133 A 
HETATM    4  N   UNL     1      38.859 -15.652   1.902  1.00  0.00    -0.261 N 
HETATM    5  H   UNL     1      37.859 -15.786   1.795  1.00  0.00     0.191 HD
HETATM    6  N   UNL     1      39.622 -16.732   2.105  1.00  0.00    -0.172 NA
HETATM    7  C   UNL     1      40.878 -16.260   2.231  1.00  0.00     0.098 A 
HETATM    8  N   UNL     1      39.148 -13.199   1.804  1.00  0.00    -0.312 N 
HETATM    9  C   UNL     1      40.102 -12.137   1.782  1.00  0.00     0.224 C 
HETATM   10  O   UNL     1      39.643 -11.007   1.819  1.00  0.00    -0.273 OA
HETATM   11  C   UNL     1      41.555 -12.470   1.560  1.00  0.00     0.117 C 
HETATM   12  H   UNL     1      38.168 -12.945   1.802  1.00  0.00     0.170 HD
ENDROOT
BRANCH   1  13
HETATM   13  C   UNL     1      42.445 -13.706   3.582  1.00  0.00    -0.049 A 
HETATM   14  C   UNL     1      43.716 -14.217   3.911  1.00  0.00     0.010 A 
HETATM   15  C   UNL     1      44.242 -14.083   5.201  1.00  0.00     0.037 A 
HETATM   16  C   UNL     1      43.509 -13.428   6.186  1.00  0.00     0.069 A 
HETATM   17  C   UNL     1      42.238 -12.943   5.882  1.00  0.00     0.037 A 
HETATM   18  C   UNL     1      41.715 -13.064   4.592  1.00  0.00     0.010 A 
BRANCH  16  19
HETATM   19  O   UNL     1      43.921 -13.219   7.472  1.00  0.00    -0.348 OA
BRANCH  19  20
HETATM   20  C   UNL     1      45.320 -13.363   7.715  1.00  0.00     0.202 C 
BRANCH  20  21
HETATM   21  C   UNL     1      45.713 -12.306   8.703  1.00  0.00    -0.011 C 
HETATM   22  C   UNL     1      44.993 -11.961   9.778  1.00  0.00     0.009 C 
ENDBRANCH  20  21
ENDBRANCH  19  20
ENDBRANCH  16  19
ENDBRANCH   1  13
BRANCH   7  23
HETATM   23  C   UNL     1      41.976 -17.173   2.555  1.00  0.00    -0.005 A 
HETATM   24  C   UNL     1      42.223 -17.602   3.864  1.00  0.00     0.014 A 
HETATM   25  C   UNL     1      43.258 -18.502   4.133  1.00  0.00     0.001 A 
HETATM   26  C   UNL     1      44.066 -18.971   3.099  1.00  0.00     0.000 A 
HETATM   27  C   UNL     1      43.847 -18.535   1.795  1.00  0.00     0.001 A 
HETATM   28  C   UNL     1      42.810 -17.640   1.525  1.00  0.00     0.014 A 
ENDBRANCH   7  23
TORSDOF 5
ENDMDL
MODEL 8
REMARK VINA RESULT:      -7.6      3.294      7.015
REMARK  5 active torsions:
REMARK  status: ('A' for Active; 'I' for Inactive)
REMARK    1  A    between atoms: C_2  and  C_3 
REMARK    2  A    between atoms: C_3  and  O_4 
REMARK    3  A    between atoms: O_4  and  C_5 
REMARK    4  A    between atoms: C_8  and  C_9 
REMARK    5  A    between atoms: C_15  and  C_16 
ROOT
HETATM    1  C   UNL     1      42.268 -17.684   4.690  1.00  0.00     0.066 C 
HETATM    2  C   UNL     1      42.746 -17.737   3.281  1.00  0.00     0.028 A 
HETATM    3  C   UNL     1      43.747 -18.580   2.871  1.00  0.00     0.133 A 
HETATM    4  N   UNL     1      43.943 -18.359   1.547  1.00  0.00    -0.261 N 
HETATM    5  H   UNL     1      44.600 -18.802   0.912  1.00  0.00     0.191 HD
HETATM    6  N   UNL     1      43.149 -17.397   1.062  1.00  0.00    -0.172 NA
HETATM    7  C   UNL     1      42.412 -16.984   2.111  1.00  0.00     0.098 A 
HETATM    8  N   UNL     1      44.418 -19.412   3.731  1.00  0.00    -0.312 N 
HETATM    9  C   UNL     1      44.006 -19.506   5.096  1.00  0.00     0.224 C 
HETATM   10  O   UNL     1      44.721 -20.173   5.825  1.00  0.00    -0.273 OA
HETATM   11  C   UNL     1      42.672 -18.926   5.493  1.00  0.00     0.117 C 
HETATM   12  H   UNL     1      45.239 -19.937   3.456  1.00  0.00     0.170 HD
ENDROOT
BRANCH   1  13
HETATM   13  C   UNL     1      42.778 -16.402   5.325  1.00  0.00    -0.049 A 
HETATM   14  C   UNL     1      41.966 -15.255   5.244  1.00  0.00     0.010 A 
HETATM   15  C   UNL     1      42.335 -14.056   5.864  1.00  0.00     0.037 A 
HETATM   16  C   UNL     1      43.522 -13.984   6.587  1.00  0.00     0.069 A 
HETATM   17  C   UNL     1      44.350 -15.104   6.652  1.00  0.00     0.037 A 
HETATM   18  C   UNL     1      43.979 -16.306   6.043  1.00  0.00     0.010 A 
BRANCH  16  19
HETATM   19  O   UNL     1      43.981 -12.880   7.250  1.00  0.00    -0.348 OA
BRANCH  19  20
HETATM   20  C   UNL     1      45.099 -13.087   8.112  1.00  0.00     0.202 C 
BRANCH  20  21
HETATM   21  C   UNL     1      44.855 -12.292   9.359  1.00  0.00    -0.011 C 
HETATM   22  C   UNL     1      45.470 -11.141   9.663  1.00  0.00     0.009 C 
ENDBRANCH  20  21
ENDBRANCH  19  20
ENDBRANCH  16  19
ENDBRANCH   1  13
BRANCH   7  23
HETATM   23  C   UNL     1      41.484 -15.861   1.960  1.00  0.00    -0.005 A 
HETATM   24  C   UNL     1      40.100 -16.018   2.100  1.00  0.00     0.014 A 
HETATM   25  C   UNL     1      39.246 -14.917   1.986  1.00  0.00     0.001 A 
HETATM   26  C   UNL     1      39.765 -13.652   1.716  1.00  0.00     0.000 A 
HETATM   27  C   UNL     1      41.137 -13.486   1.551  1.00  0.00     0.001 A 
HETATM   28  C   UNL     1      41.991 -14.584   1.671  1.00  0.00     0.014 A 
ENDBRANCH   7  23
TORSDOF 5
ENDMDL
MODEL 9
REMARK VINA RESULT:      -7.5      2.681      6.416
REMARK  5 active torsions:
REMARK  status: ('A' for Active; 'I' for Inactive)
REMARK    1  A    between atoms: C_2  and  C_3 
REMARK    2  A    between atoms: C_3  and  O_4 
REMARK    3  A    between atoms: O_4  and  C_5 
REMARK    4  A    between atoms: C_8  and  C_9 
REMARK    5  A    between atoms: C_15  and  C_16 
ROOT
HETATM    1  C   UNL     1      43.177 -14.295   2.681  1.00  0.00     0.066 C 
HETATM    2  C   UNL     1      41.814 -13.717   2.518  1.00  0.00     0.028 A 
HETATM    3  C   UNL     1      41.088 -13.226   3.572  1.00  0.00     0.133 A 
HETATM    4  N   UNL     1      39.898 -12.800   3.079  1.00  0.00    -0.261 N 
HETATM    5  H   UNL     1      39.114 -12.378   3.568  1.00  0.00     0.191 HD
HETATM    6  N   UNL     1      39.782 -13.006   1.762  1.00  0.00    -0.172 NA
HETATM    7  C   UNL     1      40.941 -13.585   1.391  1.00  0.00     0.098 A 
HETATM    8  N   UNL     1      41.538 -13.265   4.868  1.00  0.00    -0.312 N 
HETATM    9  C   UNL     1      42.859 -13.731   5.147  1.00  0.00     0.224 C 
HETATM   10  O   UNL     1      43.145 -13.847   6.327  1.00  0.00    -0.273 OA
HETATM   11  C   UNL     1      43.830 -13.887   4.005  1.00  0.00     0.117 C 
HETATM   12  H   UNL     1      40.953 -13.023   5.658  1.00  0.00     0.170 HD
ENDROOT
BRANCH   1  13
HETATM   13  C   UNL     1      43.082 -15.804   2.531  1.00  0.00    -0.049 A 
HETATM   14  C   UNL     1      44.008 -16.443   1.685  1.00  0.00     0.010 A 
HETATM   15  C   UNL     1      44.030 -17.836   1.551  1.00  0.00     0.037 A 
HETATM   16  C   UNL     1      43.129 -18.618   2.267  1.00  0.00     0.069 A 
HETATM   17  C   UNL     1      42.188 -17.996   3.087  1.00  0.00     0.037 A 
HETATM   18  C   UNL     1      42.171 -16.606   3.232  1.00  0.00     0.010 A 
BRANCH  16  19
HETATM   19  O   UNL     1      43.062 -19.983   2.235  1.00  0.00    -0.348 OA
BRANCH  19  20
HETATM   20  C   UNL     1      44.294 -20.675   2.439  1.00  0.00     0.202 C 
BRANCH  20  21
HETATM   21  C   UNL     1      44.656 -20.528   3.886  1.00  0.00    -0.011 C 
HETATM   22  C   UNL     1      44.906 -21.549   4.717  1.00  0.00     0.009 C 
ENDBRANCH  20  21
ENDBRANCH  19  20
ENDBRANCH  16  19
ENDBRANCH   1  13
BRANCH   7  23
HETATM   23  C   UNL     1      41.128 -14.037   0.011  1.00  0.00    -0.005 A 
HETATM   24  C   UNL     1      40.890 -15.361  -0.375  1.00  0.00     0.014 A 
HETATM   25  C   UNL     1      41.043 -15.750  -1.709  1.00  0.00     0.001 A 
HETATM   26  C   UNL     1      41.449 -14.823  -2.668  1.00  0.00     0.000 A 
HETATM   27  C   UNL     1      41.712 -13.508  -2.293  1.00  0.00     0.001 A 
HETATM   28  C   UNL     1      41.553 -13.118  -0.962  1.00  0.00     0.014 A 
ENDBRANCH   7  23
TORSDOF 5
ENDMDL
MODEL 10
REMARK VINA RESULT:      -7.4      2.517      4.983
REMARK  5 active torsions:
REMARK  status: ('A' for Active; 'I' for Inactive)
REMARK    1  A    between atoms: C_2  and  C_3 
REMARK    2  A    between atoms: C_3  and  O_4 
REMARK    3  A    between atoms: O_4  and  C_5 
REMARK    4  A    between atoms: C_8  and  C_9 
REMARK    5  A    between atoms: C_15  and  C_16 
ROOT
HETATM    1  C   UNL     1      43.921 -17.376   3.059  1.00  0.00     0.066 C 
HETATM    2  C   UNL     1      43.832 -17.911   4.446  1.00  0.00     0.028 A 
HETATM    3  C   UNL     1      43.761 -19.253   4.718  1.00  0.00     0.133 A 
HETATM    4  N   UNL     1      43.671 -19.387   6.065  1.00  0.00    -0.261 N 
HETATM    5  H   UNL     1      43.604 -20.232   6.623  1.00  0.00     0.191 HD
HETATM    6  N   UNL     1      43.649 -18.209   6.700  1.00  0.00    -0.172 NA
HETATM    7  C   UNL     1      43.730 -17.281   5.727  1.00  0.00     0.098 A 
HETATM    8  N   UNL     1      43.723 -20.211   3.736  1.00  0.00    -0.312 N 
HETATM    9  C   UNL     1      43.873 -19.830   2.367  1.00  0.00     0.224 C 
HETATM   10  O   UNL     1      43.712 -20.719   1.546  1.00  0.00    -0.273 OA
HETATM   11  C   UNL     1      44.363 -18.441   2.049  1.00  0.00     0.117 C 
HETATM   12  H   UNL     1      43.541 -21.188   3.930  1.00  0.00     0.170 HD
ENDROOT
BRANCH   1  13
HETATM   13  C   UNL     1      42.581 -16.761   2.691  1.00  0.00    -0.049 A 
HETATM   14  C   UNL     1      42.581 -15.491   2.085  1.00  0.00     0.010 A 
HETATM   15  C   UNL     1      41.393 -14.891   1.654  1.00  0.00     0.037 A 
HETATM   16  C   UNL     1      40.180 -15.554   1.815  1.00  0.00     0.069 A 
HETATM   17  C   UNL     1      40.162 -16.800   2.439  1.00  0.00     0.037 A 
HETATM   18  C   UNL     1      41.349 -17.408   2.860  1.00  0.00     0.010 A 
BRANCH  16  19
HETATM   19  O   UNL     1      38.960 -15.082   1.420  1.00  0.00    -0.348 OA
BRANCH  19  20
HETATM   20  C   UNL     1      38.976 -14.001   0.489  1.00  0.00     0.202 C 
BRANCH  20  21
HETATM   21  C   UNL     1      37.553 -13.594   0.251  1.00  0.00    -0.011 C 
HETATM   22  C   UNL     1      37.009 -12.444   0.671  1.00  0.00     0.009 C 
ENDBRANCH  20  21
ENDBRANCH  19  20
ENDBRANCH  16  19
ENDBRANCH   1  13
BRANCH   7  23
HETATM   23  C   UNL     1      43.643 -15.858   6.060  1.00  0.00    -0.005 A 
HETATM   24  C   UNL     1      44.647 -15.201   6.780  1.00  0.00     0.014 A 
HETATM   25  C   UNL     1      44.549 -13.833   7.049  1.00  0.00     0.001 A 
HETATM   26  C   UNL     1      43.438 -13.111   6.615  1.00  0.00     0.000 A 
HETATM   27  C   UNL     1      42.420 -13.756   5.918  1.00  0.00     0.001 A 
HETATM   28  C   UNL     1      42.522 -15.121   5.644  1.00  0.00     0.014 A 
ENDBRANCH   7  23
TORSDOF 5
ENDMDL
