MODEL 1
REMARK VINA RESULT:      -9.0      0.000      0.000
REMARK  4 active torsions:
REMARK  status: ('A' for Active; 'I' for Inactive)
REMARK    1  A    between atoms: O_2  and  C_3 
REMARK    2  A    between atoms: C_5  and  C_6 
REMARK    3  A    between atoms: C_10  and  C_11 
REMARK       I    between atoms: C_11  and  N_12 
REMARK    4  A    between atoms: N_12  and  N_13 
ROOT
HETATM    1  C   UNL     1      42.978 -14.712   2.951  1.00  0.00     0.289 C 
HETATM    2  N   UNL     1      42.535 -15.862   3.587  1.00  0.00    -0.241 N 
HETATM    3  O   UNL     1      43.828 -13.949   3.394  1.00  0.00    -0.264 OA
HETATM    4  H   UNL     1      41.927 -16.496   3.091  1.00  0.00     0.192 HD
ENDROOT
BRANCH   1   5
HETATM    5  C   UNL     1      42.310 -14.443   1.700  1.00  0.00     0.121 A 
HETATM    6  N   UNL     1      42.126 -13.166   1.250  1.00  0.00    -0.272 N 
HETATM    7  N   UNL     1      41.435 -13.081   0.102  1.00  0.00    -0.174 NA
HETATM    8  H   UNL     1      42.433 -12.311   1.707  1.00  0.00     0.189 HD
HETATM    9  C   UNL     1      41.192 -14.355  -0.243  1.00  0.00     0.089 A 
HETATM   10  C   UNL     1      41.730 -15.240   0.733  1.00  0.00     0.071 A 
BRANCH   9  11
HETATM   11  C   UNL     1      40.445 -14.703  -1.456  1.00  0.00    -0.003 A 
HETATM   12  C   UNL     1      39.294 -13.977  -1.810  1.00  0.00     0.050 A 
HETATM   13  C   UNL     1      38.556 -14.318  -2.947  1.00  0.00     0.069 A 
HETATM   14  C   UNL     1      38.972 -15.392  -3.736  1.00  0.00     0.037 A 
HETATM   15  C   UNL     1      40.117 -16.114  -3.406  1.00  0.00     0.004 A 
HETATM   16  C   UNL     1      40.851 -15.771  -2.269  1.00  0.00     0.014 A 
BRANCH  13  17
HETATM   17  O   UNL     1      37.419 -13.695  -3.385  1.00  0.00    -0.356 OA
HETATM   18  C   UNL     1      36.649 -14.385  -4.363  1.00  0.00     0.210 C 
ENDBRANCH  13  17
ENDBRANCH   9  11
ENDBRANCH   1   5
BRANCH   2  19
HETATM   19  N   UNL     1      43.142 -16.319   4.716  1.00  0.00    -0.165 NA
HETATM   20  C   UNL     1      43.678 -17.500   4.695  1.00  0.00     0.157 A 
HETATM   21  C   UNL     1      44.571 -18.000   5.849  1.00  0.00     0.277 A 
HETATM   22  C   UNL     1      43.653 -18.596   3.712  1.00  0.00     0.027 A 
HETATM   23  O   UNL     1      44.814 -17.418   6.882  1.00  0.00    -0.266 OA
HETATM   24  N   UNL     1      45.044 -19.225   5.439  1.00  0.00    -0.321 N 
HETATM   25  C   UNL     1      44.510 -19.581   4.207  1.00  0.00     0.048 A 
HETATM   26  H   UNL     1      45.660 -19.787   6.009  1.00  0.00     0.169 HD
HETATM   27  C   UNL     1      44.733 -20.765   3.532  1.00  0.00     0.030 A 
HETATM   28  C   UNL     1      44.049 -20.960   2.330  1.00  0.00     0.002 A 
HETATM   29  C   UNL     1      43.153 -19.991   1.845  1.00  0.00     0.001 A 
HETATM   30  C   UNL     1      42.938 -18.797   2.544  1.00  0.00     0.016 A 
ENDBRANCH   2  19
TORSDOF 4
ENDMDL
MODEL 2
REMARK VINA RESULT:      -8.8      1.491      1.883
REMARK  4 active torsions:
REMARK  status: ('A' for Active; 'I' for Inactive)
REMARK    1  A    between atoms: O_2  and  C_3 
REMARK    2  A    between atoms: C_5  and  C_6 
REMARK    3  A    between atoms: C_10  and  C_11 
REMARK       I    between atoms: C_11  and  N_12 
REMARK    4  A    between atoms: N_12  and  N_13 
ROOT
HETATM    1  C   UNL     1      42.660 -14.556   4.152  1.00  0.00     0.289 C 
HETATM    2  N   UNL     1      42.108 -15.799   4.424  1.00  0.00    -0.241 N 
HETATM    3  O   UNL     1      43.246 -13.856   4.970  1.00  0.00    -0.264 OA
HETATM    4  H   UNL     1      41.758 -16.360   3.661  1.00  0.00     0.192 HD
ENDROOT
BRANCH   1   5
HETATM    5  C   UNL     1      42.452 -14.109   2.796  1.00  0.00     0.121 A 
HETATM    6  N   UNL     1      42.480 -12.782   2.471  1.00  0.00    -0.272 N 
HETATM    7  N   UNL     1      42.209 -12.525   1.181  1.00  0.00    -0.174 NA
HETATM    8  H   UNL     1      42.657 -12.005   3.103  1.00  0.00     0.189 HD
HETATM    9  C   UNL     1      42.039 -13.734   0.622  1.00  0.00     0.089 A 
HETATM   10  C   UNL     1      42.188 -14.754   1.604  1.00  0.00     0.071 A 
BRANCH   9  11
HETATM   11  C   UNL     1      41.717 -13.896  -0.799  1.00  0.00    -0.003 A 
HETATM   12  C   UNL     1      41.047 -15.049  -1.245  1.00  0.00     0.050 A 
HETATM   13  C   UNL     1      40.762 -15.230  -2.601  1.00  0.00     0.069 A 
HETATM   14  C   UNL     1      41.148 -14.251  -3.518  1.00  0.00     0.037 A 
HETATM   15  C   UNL     1      41.802 -13.097  -3.091  1.00  0.00     0.004 A 
HETATM   16  C   UNL     1      42.086 -12.920  -1.736  1.00  0.00     0.014 A 
BRANCH  13  17
HETATM   17  O   UNL     1      40.127 -16.309  -3.153  1.00  0.00    -0.356 OA
HETATM   18  C   UNL     1      39.126 -16.033  -4.125  1.00  0.00     0.210 C 
ENDBRANCH  13  17
ENDBRANCH   9  11
ENDBRANCH   1   5
BRANCH   2  19
HETATM   19  N   UNL     1      42.315 -16.415   5.620  1.00  0.00    -0.165 NA
HETATM   20  C   UNL     1      42.994 -17.519   5.637  1.00  0.00     0.157 A 
HETATM   21  C   UNL     1      43.460 -18.157   6.961  1.00  0.00     0.277 A 
HETATM   22  C   UNL     1      43.503 -18.401   4.573  1.00  0.00     0.027 A 
HETATM   23  O   UNL     1      43.211 -17.769   8.081  1.00  0.00    -0.266 OA
HETATM   24  N   UNL     1      44.234 -19.235   6.594  1.00  0.00    -0.321 N 
HETATM   25  C   UNL     1      44.255 -19.388   5.213  1.00  0.00     0.048 A 
HETATM   26  H   UNL     1      44.672 -19.843   7.270  1.00  0.00     0.169 HD
HETATM   27  C   UNL     1      44.890 -20.394   4.514  1.00  0.00     0.030 A 
HETATM   28  C   UNL     1      44.738 -20.409   3.126  1.00  0.00     0.002 A 
HETATM   29  C   UNL     1      43.949 -19.443   2.477  1.00  0.00     0.001 A 
HETATM   30  C   UNL     1      43.312 -18.430   3.202  1.00  0.00     0.016 A 
ENDBRANCH   2  19
TORSDOF 4
ENDMDL
MODEL 3
REMARK VINA RESULT:      -8.5      2.481      8.925
REMARK  4 active torsions:
REMARK  status: ('A' for Active; 'I' for Inactive)
REMARK    1  A    between atoms: O_2  and  C_3 
REMARK    2  A    between atoms: C_5  and  C_6 
REMARK    3  A    between atoms: C_10  and  C_11 
REMARK       I    between atoms: C_11  and  N_12 
REMARK    4  A    between atoms: N_12  and  N_13 
ROOT
HETATM    1  C   UNL     1      39.187 -14.595   1.201  1.00  0.00     0.289 C 
HETATM    2  N   UNL     1      39.264 -14.766  -0.173  1.00  0.00    -0.241 N 
HETATM    3  O   UNL     1      38.506 -13.745   1.764  1.00  0.00    -0.264 OA
HETATM    4  H   UNL     1      39.749 -15.571  -0.542  1.00  0.00     0.192 HD
ENDROOT
BRANCH   1   5
HETATM    5  C   UNL     1      40.029 -15.496   1.950  1.00  0.00     0.121 A 
HETATM    6  N   UNL     1      40.136 -15.407   3.310  1.00  0.00    -0.272 N 
HETATM    7  N   UNL     1      41.005 -16.276   3.851  1.00  0.00    -0.174 NA
HETATM    8  H   UNL     1      39.653 -14.749   3.915  1.00  0.00     0.189 HD
HETATM    9  C   UNL     1      41.456 -16.998   2.813  1.00  0.00     0.089 A 
HETATM   10  C   UNL     1      40.862 -16.541   1.602  1.00  0.00     0.071 A 
BRANCH   9  11
HETATM   11  C   UNL     1      42.442 -18.070   2.980  1.00  0.00    -0.003 A 
HETATM   12  C   UNL     1      43.042 -18.289   4.233  1.00  0.00     0.050 A 
HETATM   13  C   UNL     1      44.006 -19.287   4.399  1.00  0.00     0.069 A 
HETATM   14  C   UNL     1      44.372 -20.073   3.304  1.00  0.00     0.037 A 
HETATM   15  C   UNL     1      43.779 -19.876   2.059  1.00  0.00     0.004 A 
HETATM   16  C   UNL     1      42.817 -18.878   1.897  1.00  0.00     0.014 A 
BRANCH  13  17
HETATM   17  O   UNL     1      44.663 -19.586   5.560  1.00  0.00    -0.356 OA
HETATM   18  C   UNL     1      44.075 -19.114   6.767  1.00  0.00     0.210 C 
ENDBRANCH  13  17
ENDBRANCH   9  11
ENDBRANCH   1   5
BRANCH   2  19
HETATM   19  N   UNL     1      38.447 -14.076  -1.015  1.00  0.00    -0.165 NA
HETATM   20  C   UNL     1      38.987 -13.371  -1.960  1.00  0.00     0.157 A 
HETATM   21  C   UNL     1      38.136 -12.743  -3.082  1.00  0.00     0.277 A 
HETATM   22  C   UNL     1      40.379 -12.999  -2.264  1.00  0.00     0.027 A 
HETATM   23  O   UNL     1      36.930 -12.772  -3.180  1.00  0.00    -0.266 OA
HETATM   24  N   UNL     1      39.040 -12.173  -3.950  1.00  0.00    -0.321 N 
HETATM   25  C   UNL     1      40.340 -12.309  -3.478  1.00  0.00     0.048 A 
HETATM   26  H   UNL     1      38.756 -11.685  -4.786  1.00  0.00     0.169 HD
HETATM   27  C   UNL     1      41.481 -11.810  -4.074  1.00  0.00     0.030 A 
HETATM   28  C   UNL     1      42.692 -11.998  -3.405  1.00  0.00     0.002 A 
HETATM   29  C   UNL     1      42.735 -12.656  -2.163  1.00  0.00     0.001 A 
HETATM   30  C   UNL     1      41.568 -13.155  -1.573  1.00  0.00     0.016 A 
ENDBRANCH   2  19
TORSDOF 4
ENDMDL
MODEL 4
REMARK VINA RESULT:      -8.5      2.607      3.124
REMARK  4 active torsions:
REMARK  status: ('A' for Active; 'I' for Inactive)
REMARK    1  A    between atoms: O_2  and  C_3 
REMARK    2  A    between atoms: C_5  and  C_6 
REMARK    3  A    between atoms: C_10  and  C_11 
REMARK       I    between atoms: C_11  and  N_12 
REMARK    4  A    between atoms: N_12  and  N_13 
ROOT
HETATM    1  C   UNL     1      41.636 -15.664   2.964  1.00  0.00     0.289 C 
HETATM    2  N   UNL     1      42.893 -16.175   3.250  1.00  0.00    -0.241 N 
HETATM    3  O   UNL     1      40.681 -15.683   3.732  1.00  0.00    -0.264 OA
HETATM    4  H   UNL     1      43.653 -16.001   2.608  1.00  0.00     0.192 HD
ENDROOT
BRANCH   1   5
HETATM    5  C   UNL     1      41.514 -15.124   1.631  1.00  0.00     0.121 A 
HETATM    6  N   UNL     1      40.770 -15.753   0.672  1.00  0.00    -0.272 N 
HETATM    7  N   UNL     1      40.807 -15.158  -0.531  1.00  0.00    -0.174 NA
HETATM    8  H   UNL     1      40.236 -16.611   0.784  1.00  0.00     0.189 HD
HETATM    9  C   UNL     1      41.569 -14.068  -0.348  1.00  0.00     0.089 A 
HETATM   10  C   UNL     1      42.027 -14.009   0.998  1.00  0.00     0.071 A 
BRANCH   9  11
HETATM   11  C   UNL     1      41.864 -13.134  -1.439  1.00  0.00    -0.003 A 
HETATM   12  C   UNL     1      42.563 -11.942  -1.179  1.00  0.00     0.050 A 
HETATM   13  C   UNL     1      42.824 -11.028  -2.203  1.00  0.00     0.069 A 
HETATM   14  C   UNL     1      42.385 -11.309  -3.498  1.00  0.00     0.037 A 
HETATM   15  C   UNL     1      41.701 -12.491  -3.775  1.00  0.00     0.004 A 
HETATM   16  C   UNL     1      41.442 -13.401  -2.749  1.00  0.00     0.014 A 
BRANCH  13  17
HETATM   17  O   UNL     1      43.483  -9.837  -2.070  1.00  0.00    -0.356 OA
HETATM   18  C   UNL     1      42.679  -8.664  -2.021  1.00  0.00     0.210 C 
ENDBRANCH  13  17
ENDBRANCH   9  11
ENDBRANCH   1   5
BRANCH   2  19
HETATM   19  N   UNL     1      43.207 -16.614   4.499  1.00  0.00    -0.165 NA
HETATM   20  C   UNL     1      43.662 -17.820   4.634  1.00  0.00     0.157 A 
HETATM   21  C   UNL     1      44.245 -18.315   5.974  1.00  0.00     0.277 A 
HETATM   22  C   UNL     1      43.790 -18.954   3.704  1.00  0.00     0.027 A 
HETATM   23  O   UNL     1      44.287 -17.702   7.017  1.00  0.00    -0.266 OA
HETATM   24  N   UNL     1      44.723 -19.580   5.717  1.00  0.00    -0.321 N 
HETATM   25  C   UNL     1      44.455 -19.961   4.408  1.00  0.00     0.048 A 
HETATM   26  H   UNL     1      45.162 -20.148   6.427  1.00  0.00     0.169 HD
HETATM   27  C   UNL     1      44.751 -21.182   3.837  1.00  0.00     0.030 A 
HETATM   28  C   UNL     1      44.339 -21.394   2.519  1.00  0.00     0.002 A 
HETATM   29  C   UNL     1      43.633 -20.401   1.817  1.00  0.00     0.001 A 
HETATM   30  C   UNL     1      43.341 -19.169   2.413  1.00  0.00     0.016 A 
ENDBRANCH   2  19
TORSDOF 4
ENDMDL
MODEL 5
REMARK VINA RESULT:      -8.4      7.448     11.287
REMARK  4 active torsions:
REMARK  status: ('A' for Active; 'I' for Inactive)
REMARK    1  A    between atoms: O_2  and  C_3 
REMARK    2  A    between atoms: C_5  and  C_6 
REMARK    3  A    between atoms: C_10  and  C_11 
REMARK       I    between atoms: C_11  and  N_12 
REMARK    4  A    between atoms: N_12  and  N_13 
ROOT
HETATM    1  C   UNL     1      44.566 -12.909   7.927  1.00  0.00     0.289 C 
HETATM    2  N   UNL     1      43.445 -13.231   7.176  1.00  0.00    -0.241 N 
HETATM    3  O   UNL     1      45.724 -13.067   7.561  1.00  0.00    -0.264 OA
HETATM    4  H   UNL     1      42.534 -12.949   7.505  1.00  0.00     0.192 HD
ENDROOT
BRANCH   1   5
HETATM    5  C   UNL     1      44.259 -12.393   9.240  1.00  0.00     0.121 A 
HETATM    6  N   UNL     1      44.321 -13.187  10.351  1.00  0.00    -0.272 N 
HETATM    7  N   UNL     1      43.949 -12.574  11.487  1.00  0.00    -0.174 NA
HETATM    8  H   UNL     1      44.590 -14.167  10.382  1.00  0.00     0.189 HD
HETATM    9  C   UNL     1      43.673 -11.313  11.118  1.00  0.00     0.089 A 
HETATM   10  C   UNL     1      43.861 -11.159   9.716  1.00  0.00     0.071 A 
BRANCH   9  11
HETATM   11  C   UNL     1      43.219 -10.304  12.079  1.00  0.00    -0.003 A 
HETATM   12  C   UNL     1      42.923 -10.671  13.404  1.00  0.00     0.050 A 
HETATM   13  C   UNL     1      42.461  -9.725  14.322  1.00  0.00     0.069 A 
HETATM   14  C   UNL     1      42.294  -8.400  13.913  1.00  0.00     0.037 A 
HETATM   15  C   UNL     1      42.595  -8.017  12.607  1.00  0.00     0.004 A 
HETATM   16  C   UNL     1      43.055  -8.965  11.693  1.00  0.00     0.014 A 
BRANCH  13  17
HETATM   17  O   UNL     1      42.132  -9.964  15.628  1.00  0.00    -0.356 OA
HETATM   18  C   UNL     1      41.329  -8.983  16.275  1.00  0.00     0.210 C 
ENDBRANCH  13  17
ENDBRANCH   9  11
ENDBRANCH   1   5
BRANCH   2  19
HETATM   19  N   UNL     1      43.558 -13.620   5.876  1.00  0.00    -0.165 NA
HETATM   20  C   UNL     1      43.489 -14.885   5.602  1.00  0.00     0.157 A 
HETATM   21  C   UNL     1      43.386 -15.388   4.148  1.00  0.00     0.277 A 
HETATM   22  C   UNL     1      43.461 -16.094   6.441  1.00  0.00     0.027 A 
HETATM   23  O   UNL     1      43.421 -14.714   3.142  1.00  0.00    -0.266 OA
HETATM   24  N   UNL     1      43.220 -16.751   4.245  1.00  0.00    -0.321 N 
HETATM   25  C   UNL     1      43.272 -17.168   5.569  1.00  0.00     0.048 A 
HETATM   26  H   UNL     1      43.126 -17.345   3.433  1.00  0.00     0.169 HD
HETATM   27  C   UNL     1      43.193 -18.471   6.017  1.00  0.00     0.030 A 
HETATM   28  C   UNL     1      43.331 -18.690   7.390  1.00  0.00     0.002 A 
HETATM   29  C   UNL     1      43.562 -17.618   8.271  1.00  0.00     0.001 A 
HETATM   30  C   UNL     1      43.640 -16.303   7.798  1.00  0.00     0.016 A 
ENDBRANCH   2  19
TORSDOF 4
ENDMDL
MODEL 6
REMARK VINA RESULT:      -8.2      2.388      3.043
REMARK  4 active torsions:
REMARK  status: ('A' for Active; 'I' for Inactive)
REMARK    1  A    between atoms: O_2  and  C_3 
REMARK    2  A    between atoms: C_5  and  C_6 
REMARK    3  A    between atoms: C_10  and  C_11 
REMARK       I    between atoms: C_11  and  N_12 
REMARK    4  A    between atoms: N_12  and  N_13 
ROOT
HETATM    1  C   UNL     1      40.899 -14.992   4.893  1.00  0.00     0.289 C 
HETATM    2  N   UNL     1      40.696 -16.213   5.519  1.00  0.00    -0.241 N 
HETATM    3  O   UNL     1      41.611 -14.092   5.324  1.00  0.00    -0.264 OA
HETATM    4  H   UNL     1      40.197 -16.940   5.030  1.00  0.00     0.192 HD
ENDROOT
BRANCH   1   5
HETATM    5  C   UNL     1      40.149 -14.833   3.670  1.00  0.00     0.121 A 
HETATM    6  N   UNL     1      39.786 -15.910   2.911  1.00  0.00    -0.272 N 
HETATM    7  N   UNL     1      39.147 -15.591   1.774  1.00  0.00    -0.174 NA
HETATM    8  H   UNL     1      39.975 -16.888   3.115  1.00  0.00     0.189 HD
HETATM    9  C   UNL     1      39.044 -14.253   1.805  1.00  0.00     0.089 A 
HETATM   10  C   UNL     1      39.657 -13.740   2.983  1.00  0.00     0.071 A 
BRANCH   9  11
HETATM   11  C   UNL     1      38.402 -13.497   0.725  1.00  0.00    -0.003 A 
HETATM   12  C   UNL     1      38.743 -13.750  -0.615  1.00  0.00     0.050 A 
HETATM   13  C   UNL     1      38.161 -13.015  -1.651  1.00  0.00     0.069 A 
HETATM   14  C   UNL     1      37.229 -12.021  -1.346  1.00  0.00     0.037 A 
HETATM   15  C   UNL     1      36.871 -11.766  -0.023  1.00  0.00     0.004 A 
HETATM   16  C   UNL     1      37.455 -12.501   1.009  1.00  0.00     0.014 A 
BRANCH  13  17
HETATM   17  O   UNL     1      38.420 -13.163  -2.986  1.00  0.00    -0.356 OA
HETATM   18  C   UNL     1      39.764 -13.459  -3.348  1.00  0.00     0.210 C 
ENDBRANCH  13  17
ENDBRANCH   9  11
ENDBRANCH   1   5
BRANCH   2  19
HETATM   19  N   UNL     1      41.417 -16.566   6.619  1.00  0.00    -0.165 NA
HETATM   20  C   UNL     1      42.440 -17.347   6.462  1.00  0.00     0.157 A 
HETATM   21  C   UNL     1      43.432 -17.615   7.613  1.00  0.00     0.277 A 
HETATM   22  C   UNL     1      42.953 -18.110   5.313  1.00  0.00     0.027 A 
HETATM   23  O   UNL     1      43.349 -17.210   8.751  1.00  0.00    -0.266 OA
HETATM   24  N   UNL     1      44.432 -18.383   7.061  1.00  0.00    -0.321 N 
HETATM   25  C   UNL     1      44.157 -18.682   5.732  1.00  0.00     0.048 A 
HETATM   26  H   UNL     1      45.223 -18.710   7.596  1.00  0.00     0.169 HD
HETATM   27  C   UNL     1      44.922 -19.472   4.899  1.00  0.00     0.030 A 
HETATM   28  C   UNL     1      44.439 -19.706   3.609  1.00  0.00     0.002 A 
HETATM   29  C   UNL     1      43.209 -19.168   3.192  1.00  0.00     0.001 A 
HETATM   30  C   UNL     1      42.445 -18.369   4.051  1.00  0.00     0.016 A 
ENDBRANCH   2  19
TORSDOF 4
ENDMDL
MODEL 7
REMARK VINA RESULT:      -8.1      3.269      8.378
REMARK  4 active torsions:
REMARK  status: ('A' for Active; 'I' for Inactive)
REMARK    1  A    between atoms: O_2  and  C_3 
REMARK    2  A    between atoms: C_5  and  C_6 
REMARK    3  A    between atoms: C_10  and  C_11 
REMARK       I    between atoms: C_11  and  N_12 
REMARK    4  A    between atoms: N_12  and  N_13 
ROOT
HETATM    1  C   UNL     1      41.422 -14.900   1.097  1.00  0.00     0.289 C 
HETATM    2  N   UNL     1      40.072 -15.028   1.384  1.00  0.00    -0.241 N 
HETATM    3  O   UNL     1      41.936 -13.924   0.562  1.00  0.00    -0.264 OA
HETATM    4  H   UNL     1      39.758 -15.810   1.940  1.00  0.00     0.192 HD
ENDROOT
BRANCH   1   5
HETATM    5  C   UNL     1      42.206 -16.059   1.448  1.00  0.00     0.121 A 
HETATM    6  N   UNL     1      42.935 -16.738   0.512  1.00  0.00    -0.272 N 
HETATM    7  N   UNL     1      43.560 -17.828   0.985  1.00  0.00    -0.174 NA
HETATM    8  H   UNL     1      43.018 -16.510  -0.475  1.00  0.00     0.189 HD
HETATM    9  C   UNL     1      43.269 -17.845   2.296  1.00  0.00     0.089 A 
HETATM   10  C   UNL     1      42.425 -16.747   2.626  1.00  0.00     0.071 A 
BRANCH   9  11
HETATM   11  C   UNL     1      43.765 -18.896   3.189  1.00  0.00    -0.003 A 
HETATM   12  C   UNL     1      43.676 -18.738   4.584  1.00  0.00     0.050 A 
HETATM   13  C   UNL     1      44.173 -19.718   5.447  1.00  0.00     0.069 A 
HETATM   14  C   UNL     1      44.762 -20.866   4.912  1.00  0.00     0.037 A 
HETATM   15  C   UNL     1      44.846 -21.044   3.532  1.00  0.00     0.004 A 
HETATM   16  C   UNL     1      44.350 -20.062   2.674  1.00  0.00     0.014 A 
BRANCH  13  17
HETATM   17  O   UNL     1      44.154 -19.672   6.814  1.00  0.00    -0.356 OA
HETATM   18  C   UNL     1      43.618 -18.495   7.406  1.00  0.00     0.210 C 
ENDBRANCH  13  17
ENDBRANCH   9  11
ENDBRANCH   1   5
BRANCH   2  19
HETATM   19  N   UNL     1      39.216 -13.982   1.222  1.00  0.00    -0.165 NA
HETATM   20  C   UNL     1      39.006 -13.193   2.230  1.00  0.00     0.157 A 
HETATM   21  C   UNL     1      38.232 -11.869   2.068  1.00  0.00     0.277 A 
HETATM   22  C   UNL     1      39.392 -13.255   3.649  1.00  0.00     0.027 A 
HETATM   23  O   UNL     1      37.700 -11.458   1.061  1.00  0.00    -0.266 OA
HETATM   24  N   UNL     1      38.301 -11.254   3.298  1.00  0.00    -0.321 N 
HETATM   25  C   UNL     1      38.963 -12.055   4.221  1.00  0.00     0.048 A 
HETATM   26  H   UNL     1      37.871 -10.359   3.481  1.00  0.00     0.169 HD
HETATM   27  C   UNL     1      39.163 -11.766   5.556  1.00  0.00     0.030 A 
HETATM   28  C   UNL     1      39.798 -12.735   6.336  1.00  0.00     0.002 A 
HETATM   29  C   UNL     1      40.196 -13.962   5.778  1.00  0.00     0.001 A 
HETATM   30  C   UNL     1      39.985 -14.238   4.423  1.00  0.00     0.016 A 
ENDBRANCH   2  19
TORSDOF 4
ENDMDL
MODEL 8
REMARK VINA RESULT:      -8.1      1.920      8.480
REMARK  4 active torsions:
REMARK  status: ('A' for Active; 'I' for Inactive)
REMARK    1  A    between atoms: O_2  and  C_3 
REMARK    2  A    between atoms: C_5  and  C_6 
REMARK    3  A    between atoms: C_10  and  C_11 
REMARK       I    between atoms: C_11  and  N_12 
REMARK    4  A    between atoms: N_12  and  N_13 
ROOT
HETATM    1  C   UNL     1      42.172 -14.122   2.115  1.00  0.00     0.289 C 
HETATM    2  N   UNL     1      40.860 -14.124   1.666  1.00  0.00    -0.241 N 
HETATM    3  O   UNL     1      42.927 -13.157   2.070  1.00  0.00    -0.264 OA
HETATM    4  H   UNL     1      40.274 -14.922   1.860  1.00  0.00     0.192 HD
ENDROOT
BRANCH   1   5
HETATM    5  C   UNL     1      42.617 -15.398   2.622  1.00  0.00     0.121 A 
HETATM    6  N   UNL     1      43.032 -15.545   3.916  1.00  0.00    -0.272 N 
HETATM    7  N   UNL     1      43.472 -16.778   4.216  1.00  0.00    -0.174 NA
HETATM    8  H   UNL     1      43.057 -14.823   4.632  1.00  0.00     0.189 HD
HETATM    9  C   UNL     1      43.299 -17.484   3.088  1.00  0.00     0.089 A 
HETATM   10  C   UNL     1      42.760 -16.653   2.066  1.00  0.00     0.071 A 
BRANCH   9  11
HETATM   11  C   UNL     1      43.666 -18.900   2.993  1.00  0.00    -0.003 A 
HETATM   12  C   UNL     1      44.338 -19.529   4.056  1.00  0.00     0.050 A 
HETATM   13  C   UNL     1      44.720 -20.870   3.966  1.00  0.00     0.069 A 
HETATM   14  C   UNL     1      44.427 -21.589   2.805  1.00  0.00     0.037 A 
HETATM   15  C   UNL     1      43.752 -20.984   1.747  1.00  0.00     0.004 A 
HETATM   16  C   UNL     1      43.372 -19.644   1.841  1.00  0.00     0.014 A 
BRANCH  13  17
HETATM   17  O   UNL     1      45.384 -21.584   4.926  1.00  0.00    -0.356 OA
HETATM   18  C   UNL     1      44.587 -22.202   5.929  1.00  0.00     0.210 C 
ENDBRANCH  13  17
ENDBRANCH   9  11
ENDBRANCH   1   5
BRANCH   2  19
HETATM   19  N   UNL     1      40.251 -12.973   1.266  1.00  0.00    -0.165 NA
HETATM   20  C   UNL     1      39.832 -12.889   0.042  1.00  0.00     0.157 A 
HETATM   21  C   UNL     1      38.944 -11.719  -0.426  1.00  0.00     0.277 A 
HETATM   22  C   UNL     1      40.004 -13.752  -1.139  1.00  0.00     0.027 A 
HETATM   23  O   UNL     1      38.602 -10.760   0.230  1.00  0.00    -0.266 OA
HETATM   24  N   UNL     1      38.607 -12.015  -1.727  1.00  0.00    -0.321 N 
HETATM   25  C   UNL     1      39.225 -13.185  -2.150  1.00  0.00     0.048 A 
HETATM   26  H   UNL     1      38.024 -11.410  -2.288  1.00  0.00     0.169 HD
HETATM   27  C   UNL     1      39.145 -13.740  -3.411  1.00  0.00     0.030 A 
HETATM   28  C   UNL     1      39.895 -14.892  -3.658  1.00  0.00     0.002 A 
HETATM   29  C   UNL     1      40.714 -15.446  -2.658  1.00  0.00     0.001 A 
HETATM   30  C   UNL     1      40.784 -14.869  -1.384  1.00  0.00     0.016 A 
ENDBRANCH   2  19
TORSDOF 4
ENDMDL
MODEL 9
REMARK VINA RESULT:      -8.1      6.909     10.763
REMARK  4 active torsions:
REMARK  status: ('A' for Active; 'I' for Inactive)
REMARK    1  A    between atoms: O_2  and  C_3 
REMARK    2  A    between atoms: C_5  and  C_6 
REMARK    3  A    between atoms: C_10  and  C_11 
REMARK       I    between atoms: C_11  and  N_12 
REMARK    4  A    between atoms: N_12  and  N_13 
ROOT
HETATM    1  C   UNL     1      45.034 -13.655   7.414  1.00  0.00     0.289 C 
HETATM    2  N   UNL     1      44.133 -14.696   7.579  1.00  0.00    -0.241 N 
HETATM    3  O   UNL     1      45.953 -13.646   6.604  1.00  0.00    -0.264 OA
HETATM    4  H   UNL     1      43.332 -14.563   8.180  1.00  0.00     0.192 HD
ENDROOT
BRANCH   1   5
HETATM    5  C   UNL     1      44.831 -12.556   8.328  1.00  0.00     0.121 A 
HETATM    6  N   UNL     1      45.855 -11.722   8.679  1.00  0.00    -0.272 N 
HETATM    7  N   UNL     1      45.518 -10.787   9.583  1.00  0.00    -0.174 NA
HETATM    8  H   UNL     1      46.814 -11.765   8.346  1.00  0.00     0.189 HD
HETATM    9  C   UNL     1      44.209 -10.984   9.804  1.00  0.00     0.089 A 
HETATM   10  C   UNL     1      43.740 -12.083   9.030  1.00  0.00     0.071 A 
BRANCH   9  11
HETATM   11  C   UNL     1      43.447 -10.160  10.747  1.00  0.00    -0.003 A 
HETATM   12  C   UNL     1      43.803 -10.129  12.107  1.00  0.00     0.050 A 
HETATM   13  C   UNL     1      43.066  -9.372  13.021  1.00  0.00     0.069 A 
HETATM   14  C   UNL     1      41.966  -8.638  12.572  1.00  0.00     0.037 A 
HETATM   15  C   UNL     1      41.607  -8.648  11.226  1.00  0.00     0.004 A 
HETATM   16  C   UNL     1      42.345  -9.407  10.316  1.00  0.00     0.014 A 
BRANCH  13  17
HETATM   17  O   UNL     1      43.308  -9.272  14.364  1.00  0.00    -0.356 OA
HETATM   18  C   UNL     1      42.237  -9.618  15.234  1.00  0.00     0.210 C 
ENDBRANCH  13  17
ENDBRANCH   9  11
ENDBRANCH   1   5
BRANCH   2  19
HETATM   19  N   UNL     1      44.115 -15.753   6.722  1.00  0.00    -0.165 NA
HETATM   20  C   UNL     1      43.259 -15.744   5.748  1.00  0.00     0.157 A 
HETATM   21  C   UNL     1      43.321 -16.786   4.613  1.00  0.00     0.277 A 
HETATM   22  C   UNL     1      42.126 -14.865   5.416  1.00  0.00     0.027 A 
HETATM   23  O   UNL     1      44.084 -17.722   4.529  1.00  0.00    -0.266 OA
HETATM   24  N   UNL     1      42.348 -16.407   3.717  1.00  0.00    -0.321 N 
HETATM   25  C   UNL     1      41.646 -15.301   4.179  1.00  0.00     0.048 A 
HETATM   26  H   UNL     1      42.164 -16.920   2.867  1.00  0.00     0.169 HD
HETATM   27  C   UNL     1      40.574 -14.695   3.554  1.00  0.00     0.030 A 
HETATM   28  C   UNL     1      39.960 -13.629   4.216  1.00  0.00     0.002 A 
HETATM   29  C   UNL     1      40.412 -13.210   5.480  1.00  0.00     0.001 A 
HETATM   30  C   UNL     1      41.499 -13.837   6.099  1.00  0.00     0.016 A 
ENDBRANCH   2  19
TORSDOF 4
ENDMDL
MODEL 10
REMARK VINA RESULT:      -7.9      5.572      8.529
REMARK  4 active torsions:
REMARK  status: ('A' for Active; 'I' for Inactive)
REMARK    1  A    between atoms: O_2  and  C_3 
REMARK    2  A    between atoms: C_5  and  C_6 
REMARK    3  A    between atoms: C_10  and  C_11 
REMARK       I    between atoms: C_11  and  N_12 
REMARK    4  A    between atoms: N_12  and  N_13 
ROOT
HETATM    1  C   UNL     1      40.934 -12.479   5.838  1.00  0.00     0.289 C 
HETATM    2  N   UNL     1      41.679 -11.811   6.799  1.00  0.00    -0.241 N 
HETATM    3  O   UNL     1      39.714 -12.427   5.735  1.00  0.00    -0.264 OA
HETATM    4  H   UNL     1      42.685 -11.811   6.729  1.00  0.00     0.192 HD
ENDROOT
BRANCH   1   5
HETATM    5  C   UNL     1      41.725 -13.306   4.958  1.00  0.00     0.121 A 
HETATM    6  N   UNL     1      42.575 -12.758   4.038  1.00  0.00    -0.272 N 
HETATM    7  N   UNL     1      43.192 -13.658   3.255  1.00  0.00    -0.174 NA
HETATM    8  H   UNL     1      42.751 -11.768   3.888  1.00  0.00     0.189 HD
HETATM    9  C   UNL     1      42.767 -14.849   3.705  1.00  0.00     0.089 A 
HETATM   10  C   UNL     1      41.848 -14.670   4.778  1.00  0.00     0.071 A 
BRANCH   9  11
HETATM   11  C   UNL     1      43.210 -16.111   3.105  1.00  0.00    -0.003 A 
HETATM   12  C   UNL     1      43.468 -17.229   3.919  1.00  0.00     0.050 A 
HETATM   13  C   UNL     1      43.921 -18.428   3.363  1.00  0.00     0.069 A 
HETATM   14  C   UNL     1      44.115 -18.511   1.982  1.00  0.00     0.037 A 
HETATM   15  C   UNL     1      43.853 -17.417   1.161  1.00  0.00     0.004 A 
HETATM   16  C   UNL     1      43.402 -16.221   1.720  1.00  0.00     0.014 A 
BRANCH  13  17
HETATM   17  O   UNL     1      44.214 -19.574   4.050  1.00  0.00    -0.356 OA
HETATM   18  C   UNL     1      44.732 -20.660   3.291  1.00  0.00     0.210 C 
ENDBRANCH  13  17
ENDBRANCH   9  11
ENDBRANCH   1   5
BRANCH   2  19
HETATM   19  N   UNL     1      41.100 -10.903   7.631  1.00  0.00    -0.165 NA
HETATM   20  C   UNL     1      41.758 -10.519   8.680  1.00  0.00     0.157 A 
HETATM   21  C   UNL     1      41.273  -9.339   9.546  1.00  0.00     0.277 A 
HETATM   22  C   UNL     1      43.010 -10.978   9.303  1.00  0.00     0.027 A 
HETATM   23  O   UNL     1      40.250  -8.706   9.404  1.00  0.00    -0.266 OA
HETATM   24  N   UNL     1      42.259  -9.149  10.488  1.00  0.00    -0.321 N 
HETATM   25  C   UNL     1      43.264 -10.100  10.359  1.00  0.00     0.048 A 
HETATM   26  H   UNL     1      42.202  -8.431  11.196  1.00  0.00     0.169 HD
HETATM   27  C   UNL     1      44.373 -10.230  11.170  1.00  0.00     0.030 A 
HETATM   28  C   UNL     1      45.237 -11.297  10.914  1.00  0.00     0.002 A 
HETATM   29  C   UNL     1      44.968 -12.209   9.878  1.00  0.00     0.001 A 
HETATM   30  C   UNL     1      43.838 -12.062   9.066  1.00  0.00     0.016 A 
ENDBRANCH   2  19
TORSDOF 4
ENDMDL
