MODEL 1
REMARK VINA RESULT:      -9.4      0.000      0.000
REMARK  8 active torsions:
REMARK  status: ('A' for Active; 'I' for Inactive)
REMARK    1  A    between atoms: C_5  and  C_6 
REMARK       I    between atoms: C_6  and  N_7 
REMARK    2  A    between atoms: N_7  and  N_8 
REMARK       I    between atoms: N_8  and  C_9 
REMARK    3  A    between atoms: C_9  and  C_10 
REMARK    4  A    between atoms: C_10  and  S_11 
REMARK    5  A    between atoms: S_11  and  C_12 
REMARK    6  A    between atoms: C_14  and  C_15 
REMARK    7  A    between atoms: C_15  and  N_16 
REMARK    8  A    between atoms: N_16  and  C_17 
ROOT
HETATM    1  S   UNL     1      40.197 -13.222   5.005  1.00  0.00    -0.081 SA
ENDROOT
BRANCH   1   2
HETATM    2  C   UNL     1      41.581 -12.190   5.568  1.00  0.00     0.187 C 
BRANCH   2   3
HETATM    3  C   UNL     1      41.274 -11.449   6.861  1.00  0.00     0.245 C 
HETATM    4  N   UNL     1      42.303 -11.515   7.783  1.00  0.00    -0.267 N 
HETATM    5  H   UNL     1      43.044 -12.216   7.718  1.00  0.00     0.190 HD
HETATM    6  O   UNL     1      40.226 -10.846   7.098  1.00  0.00    -0.271 OA
BRANCH   4   7
HETATM    7  N   UNL     1      42.025 -11.078   9.091  1.00  0.00    -0.263 N 
HETATM    8  C   UNL     1      43.111 -10.749   9.882  1.00  0.00     0.270 C 
HETATM    9  O   UNL     1      44.252 -10.705   9.425  1.00  0.00    -0.266 OA
HETATM   10  H   UNL     1      41.137 -11.387   9.481  1.00  0.00     0.190 HD
BRANCH   8  11
HETATM   11  C   UNL     1      42.847 -10.485  11.325  1.00  0.00     0.033 A 
HETATM   12  C   UNL     1      43.714  -9.735  12.129  1.00  0.00     0.017 A 
HETATM   13  C   UNL     1      43.414  -9.522  13.479  1.00  0.00     0.007 A 
HETATM   14  C   UNL     1      42.249 -10.054  14.043  1.00  0.00    -0.062 A 
HETATM   15  C   UNL     1      41.942  -9.856  15.498  1.00  0.00     0.048 C 
HETATM   16  C   UNL     1      41.397 -10.824  13.244  1.00  0.00     0.007 A 
HETATM   17  C   UNL     1      41.693 -11.037  11.895  1.00  0.00     0.017 A 
ENDBRANCH   8  11
ENDBRANCH   4   7
ENDBRANCH   2   3
ENDBRANCH   1   2
BRANCH   1  18
HETATM   18  C   UNL     1      40.778 -14.783   5.439  1.00  0.00     0.185 A 
HETATM   19  N   UNL     1      41.974 -15.273   5.249  1.00  0.00    -0.204 NA
HETATM   20  C   UNL     1      41.878 -16.531   5.809  1.00  0.00     0.166 A 
HETATM   21  N   UNL     1      40.679 -16.815   6.347  1.00  0.00    -0.155 NA
HETATM   22  N   UNL     1      39.992 -15.691   6.076  1.00  0.00    -0.254 N 
HETATM   23  H   UNL     1      39.037 -15.574   6.403  1.00  0.00     0.191 HD
BRANCH  20  24
HETATM   24  C   UNL     1      43.023 -17.513   5.784  1.00  0.00     0.202 C 
BRANCH  24  25
HETATM   25  N   UNL     1      43.709 -17.664   4.496  1.00  0.00    -0.383 N 
HETATM   26  H   UNL     1      44.472 -16.999   4.398  1.00  0.00     0.160 HD
BRANCH  25  27
HETATM   27  C   UNL     1      44.022 -18.928   3.998  1.00  0.00     0.028 A 
HETATM   28  C   UNL     1      44.476 -19.988   4.793  1.00  0.00     0.036 A 
HETATM   29  C   UNL     1      44.707 -21.267   4.257  1.00  0.00    -0.060 A 
HETATM   30  C   UNL     1      45.202 -22.387   5.123  1.00  0.00     0.048 C 
HETATM   31  C   UNL     1      44.437 -21.499   2.906  1.00  0.00     0.007 A 
HETATM   32  C   UNL     1      43.943 -20.472   2.107  1.00  0.00     0.003 A 
HETATM   33  C   UNL     1      43.728 -19.205   2.655  1.00  0.00     0.029 A 
ENDBRANCH  25  27
ENDBRANCH  24  25
ENDBRANCH  20  24
ENDBRANCH   1  18
TORSDOF 8
ENDMDL
MODEL 2
REMARK VINA RESULT:      -9.4      1.028      1.527
REMARK  8 active torsions:
REMARK  status: ('A' for Active; 'I' for Inactive)
REMARK    1  A    between atoms: C_5  and  C_6 
REMARK       I    between atoms: C_6  and  N_7 
REMARK    2  A    between atoms: N_7  and  N_8 
REMARK       I    between atoms: N_8  and  C_9 
REMARK    3  A    between atoms: C_9  and  C_10 
REMARK    4  A    between atoms: C_10  and  S_11 
REMARK    5  A    between atoms: S_11  and  C_12 
REMARK    6  A    between atoms: C_14  and  C_15 
REMARK    7  A    between atoms: C_15  and  N_16 
REMARK    8  A    between atoms: N_16  and  C_17 
ROOT
HETATM    1  S   UNL     1      39.694 -12.879   5.925  1.00  0.00    -0.081 SA
ENDROOT
BRANCH   1   2
HETATM    2  C   UNL     1      41.260 -11.970   6.073  1.00  0.00     0.187 C 
BRANCH   2   3
HETATM    3  C   UNL     1      41.288 -11.042   7.278  1.00  0.00     0.245 C 
HETATM    4  N   UNL     1      42.192 -11.438   8.248  1.00  0.00    -0.267 N 
HETATM    5  H   UNL     1      42.570 -12.387   8.281  1.00  0.00     0.190 HD
HETATM    6  O   UNL     1      40.590 -10.035   7.412  1.00  0.00    -0.271 OA
BRANCH   4   7
HETATM    7  N   UNL     1      42.120 -10.795   9.497  1.00  0.00    -0.263 N 
HETATM    8  C   UNL     1      42.987 -11.239  10.478  1.00  0.00     0.270 C 
HETATM    9  O   UNL     1      43.872 -12.058  10.234  1.00  0.00    -0.266 OA
HETATM   10  H   UNL     1      41.230 -10.348   9.713  1.00  0.00     0.190 HD
BRANCH   8  11
HETATM   11  C   UNL     1      42.781 -10.713  11.857  1.00  0.00     0.033 A 
HETATM   12  C   UNL     1      43.668  -9.815  12.465  1.00  0.00     0.017 A 
HETATM   13  C   UNL     1      43.424  -9.356  13.764  1.00  0.00     0.007 A 
HETATM   14  C   UNL     1      42.296  -9.786  14.472  1.00  0.00    -0.062 A 
HETATM   15  C   UNL     1      42.050  -9.323  15.878  1.00  0.00     0.048 C 
HETATM   16  C   UNL     1      41.425 -10.703  13.872  1.00  0.00     0.007 A 
HETATM   17  C   UNL     1      41.665 -11.161  12.574  1.00  0.00     0.017 A 
ENDBRANCH   8  11
ENDBRANCH   4   7
ENDBRANCH   2   3
ENDBRANCH   1   2
BRANCH   1  18
HETATM   18  C   UNL     1      40.275 -14.417   5.417  1.00  0.00     0.185 A 
HETATM   19  N   UNL     1      40.573 -14.800   4.204  1.00  0.00    -0.204 NA
HETATM   20  C   UNL     1      41.003 -16.098   4.393  1.00  0.00     0.166 A 
HETATM   21  N   UNL     1      40.995 -16.510   5.673  1.00  0.00    -0.155 NA
HETATM   22  N   UNL     1      40.506 -15.425   6.300  1.00  0.00    -0.254 N 
HETATM   23  H   UNL     1      40.419 -15.405   7.312  1.00  0.00     0.191 HD
BRANCH  20  24
HETATM   24  C   UNL     1      41.414 -16.985   3.245  1.00  0.00     0.202 C 
BRANCH  24  25
HETATM   25  N   UNL     1      42.859 -17.191   3.081  1.00  0.00    -0.383 N 
HETATM   26  H   UNL     1      43.393 -16.426   3.483  1.00  0.00     0.160 HD
BRANCH  25  27
HETATM   27  C   UNL     1      43.433 -18.439   3.316  1.00  0.00     0.028 A 
HETATM   28  C   UNL     1      43.446 -19.480   2.378  1.00  0.00     0.036 A 
HETATM   29  C   UNL     1      44.104 -20.696   2.634  1.00  0.00    -0.060 A 
HETATM   30  C   UNL     1      44.101 -21.801   1.620  1.00  0.00     0.048 C 
HETATM   31  C   UNL     1      44.796 -20.857   3.837  1.00  0.00     0.007 A 
HETATM   32  C   UNL     1      44.833 -19.820   4.764  1.00  0.00     0.003 A 
HETATM   33  C   UNL     1      44.166 -18.621   4.497  1.00  0.00     0.029 A 
ENDBRANCH  25  27
ENDBRANCH  24  25
ENDBRANCH  20  24
ENDBRANCH   1  18
TORSDOF 8
ENDMDL
MODEL 3
REMARK VINA RESULT:      -9.4      0.835      1.861
REMARK  8 active torsions:
REMARK  status: ('A' for Active; 'I' for Inactive)
REMARK    1  A    between atoms: C_5  and  C_6 
REMARK       I    between atoms: C_6  and  N_7 
REMARK    2  A    between atoms: N_7  and  N_8 
REMARK       I    between atoms: N_8  and  C_9 
REMARK    3  A    between atoms: C_9  and  C_10 
REMARK    4  A    between atoms: C_10  and  S_11 
REMARK    5  A    between atoms: S_11  and  C_12 
REMARK    6  A    between atoms: C_14  and  C_15 
REMARK    7  A    between atoms: C_15  and  N_16 
REMARK    8  A    between atoms: N_16  and  C_17 
ROOT
HETATM    1  S   UNL     1      40.312 -13.624   4.820  1.00  0.00    -0.081 SA
ENDROOT
BRANCH   1   2
HETATM    2  C   UNL     1      41.536 -12.435   5.441  1.00  0.00     0.187 C 
BRANCH   2   3
HETATM    3  C   UNL     1      41.115 -11.792   6.755  1.00  0.00     0.245 C 
HETATM    4  N   UNL     1      42.185 -11.330   7.501  1.00  0.00    -0.267 N 
HETATM    5  H   UNL     1      43.141 -11.647   7.330  1.00  0.00     0.190 HD
HETATM    6  O   UNL     1      39.952 -11.679   7.147  1.00  0.00    -0.271 OA
BRANCH   4   7
HETATM    7  N   UNL     1      41.925 -10.945   8.829  1.00  0.00    -0.263 N 
HETATM    8  C   UNL     1      43.020 -10.805   9.663  1.00  0.00     0.270 C 
HETATM    9  O   UNL     1      44.170 -10.874   9.234  1.00  0.00    -0.266 OA
HETATM   10  H   UNL     1      40.995 -11.166   9.180  1.00  0.00     0.190 HD
BRANCH   8  11
HETATM   11  C   UNL     1      42.748 -10.603  11.114  1.00  0.00     0.033 A 
HETATM   12  C   UNL     1      41.604 -11.106  11.748  1.00  0.00     0.017 A 
HETATM   13  C   UNL     1      41.402 -10.882  13.114  1.00  0.00     0.007 A 
HETATM   14  C   UNL     1      42.335 -10.156  13.864  1.00  0.00    -0.062 A 
HETATM   15  C   UNL     1      42.103  -9.885  15.321  1.00  0.00     0.048 C 
HETATM   16  C   UNL     1      43.463  -9.633  13.223  1.00  0.00     0.007 A 
HETATM   17  C   UNL     1      43.669  -9.856  11.859  1.00  0.00     0.017 A 
ENDBRANCH   8  11
ENDBRANCH   4   7
ENDBRANCH   2   3
ENDBRANCH   1   2
BRANCH   1  18
HETATM   18  C   UNL     1      40.857 -15.062   5.592  1.00  0.00     0.185 A 
HETATM   19  N   UNL     1      42.071 -15.353   5.977  1.00  0.00    -0.204 NA
HETATM   20  C   UNL     1      41.917 -16.601   6.546  1.00  0.00     0.166 A 
HETATM   21  N   UNL     1      40.657 -17.069   6.539  1.00  0.00    -0.155 NA
HETATM   22  N   UNL     1      40.007 -16.076   5.905  1.00  0.00    -0.254 N 
HETATM   23  H   UNL     1      38.999 -16.112   5.779  1.00  0.00     0.191 HD
BRANCH  20  24
HETATM   24  C   UNL     1      43.083 -17.383   7.099  1.00  0.00     0.202 C 
BRANCH  24  25
HETATM   25  N   UNL     1      44.255 -17.491   6.223  1.00  0.00    -0.383 N 
HETATM   26  H   UNL     1      45.111 -17.618   6.757  1.00  0.00     0.160 HD
BRANCH  25  27
HETATM   27  C   UNL     1      44.213 -18.270   5.067  1.00  0.00     0.028 A 
HETATM   28  C   UNL     1      43.884 -17.768   3.801  1.00  0.00     0.036 A 
HETATM   29  C   UNL     1      43.928 -18.577   2.652  1.00  0.00    -0.060 A 
HETATM   30  C   UNL     1      43.564 -18.024   1.307  1.00  0.00     0.048 C 
HETATM   31  C   UNL     1      44.350 -19.904   2.769  1.00  0.00     0.007 A 
HETATM   32  C   UNL     1      44.724 -20.411   4.010  1.00  0.00     0.003 A 
HETATM   33  C   UNL     1      44.666 -19.594   5.142  1.00  0.00     0.029 A 
ENDBRANCH  25  27
ENDBRANCH  24  25
ENDBRANCH  20  24
ENDBRANCH   1  18
TORSDOF 8
ENDMDL
MODEL 4
REMARK VINA RESULT:      -9.3      5.099      6.022
REMARK  8 active torsions:
REMARK  status: ('A' for Active; 'I' for Inactive)
REMARK    1  A    between atoms: C_5  and  C_6 
REMARK       I    between atoms: C_6  and  N_7 
REMARK    2  A    between atoms: N_7  and  N_8 
REMARK       I    between atoms: N_8  and  C_9 
REMARK    3  A    between atoms: C_9  and  C_10 
REMARK    4  A    between atoms: C_10  and  S_11 
REMARK    5  A    between atoms: S_11  and  C_12 
REMARK    6  A    between atoms: C_14  and  C_15 
REMARK    7  A    between atoms: C_15  and  N_16 
REMARK    8  A    between atoms: N_16  and  C_17 
ROOT
HETATM    1  S   UNL     1      40.292 -13.687  -0.766  1.00  0.00    -0.081 SA
ENDROOT
BRANCH   1   2
HETATM    2  C   UNL     1      39.113 -13.255   0.547  1.00  0.00     0.187 C 
BRANCH   2   3
HETATM    3  C   UNL     1      39.279 -14.115   1.791  1.00  0.00     0.245 C 
HETATM    4  N   UNL     1      40.096 -13.537   2.746  1.00  0.00    -0.267 N 
HETATM    5  H   UNL     1      40.737 -12.775   2.521  1.00  0.00     0.190 HD
HETATM    6  O   UNL     1      38.757 -15.219   1.963  1.00  0.00    -0.271 OA
BRANCH   4   7
HETATM    7  N   UNL     1      40.508 -14.350   3.818  1.00  0.00    -0.263 N 
HETATM    8  C   UNL     1      41.657 -13.966   4.485  1.00  0.00     0.270 C 
HETATM    9  O   UNL     1      42.214 -12.895   4.248  1.00  0.00    -0.266 OA
HETATM   10  H   UNL     1      40.189 -15.317   3.788  1.00  0.00     0.190 HD
BRANCH   8  11
HETATM   11  C   UNL     1      42.218 -14.923   5.481  1.00  0.00     0.033 A 
HETATM   12  C   UNL     1      43.521 -14.815   5.985  1.00  0.00     0.017 A 
HETATM   13  C   UNL     1      43.993 -15.745   6.917  1.00  0.00     0.007 A 
HETATM   14  C   UNL     1      43.175 -16.792   7.357  1.00  0.00    -0.062 A 
HETATM   15  C   UNL     1      43.692 -17.811   8.330  1.00  0.00     0.048 C 
HETATM   16  C   UNL     1      41.884 -16.913   6.833  1.00  0.00     0.007 A 
HETATM   17  C   UNL     1      41.408 -15.985   5.903  1.00  0.00     0.017 A 
ENDBRANCH   8  11
ENDBRANCH   4   7
ENDBRANCH   2   3
ENDBRANCH   1   2
BRANCH   1  18
HETATM   18  C   UNL     1      41.171 -14.947   0.009  1.00  0.00     0.185 A 
HETATM   19  N   UNL     1      42.156 -14.829   0.860  1.00  0.00    -0.204 NA
HETATM   20  C   UNL     1      42.452 -16.143   1.164  1.00  0.00     0.166 A 
HETATM   21  N   UNL     1      41.674 -17.050   0.547  1.00  0.00    -0.155 NA
HETATM   22  N   UNL     1      40.882 -16.259  -0.199  1.00  0.00    -0.254 N 
HETATM   23  H   UNL     1      40.135 -16.654  -0.763  1.00  0.00     0.191 HD
BRANCH  20  24
HETATM   24  C   UNL     1      43.581 -16.520   2.090  1.00  0.00     0.202 C 
BRANCH  24  25
HETATM   25  N   UNL     1      43.203 -17.296   3.277  1.00  0.00    -0.383 N 
HETATM   26  H   UNL     1      42.215 -17.191   3.493  1.00  0.00     0.160 HD
BRANCH  25  27
HETATM   27  C   UNL     1      43.663 -18.600   3.454  1.00  0.00     0.028 A 
HETATM   28  C   UNL     1      43.635 -19.579   2.451  1.00  0.00     0.036 A 
HETATM   29  C   UNL     1      44.180 -20.859   2.654  1.00  0.00    -0.060 A 
HETATM   30  C   UNL     1      44.133 -21.896   1.572  1.00  0.00     0.048 C 
HETATM   31  C   UNL     1      44.802 -21.150   3.871  1.00  0.00     0.007 A 
HETATM   32  C   UNL     1      44.881 -20.179   4.864  1.00  0.00     0.003 A 
HETATM   33  C   UNL     1      44.326 -18.915   4.648  1.00  0.00     0.029 A 
ENDBRANCH  25  27
ENDBRANCH  24  25
ENDBRANCH  20  24
ENDBRANCH   1  18
TORSDOF 8
ENDMDL
MODEL 5
REMARK VINA RESULT:      -9.0      2.337     10.396
REMARK  8 active torsions:
REMARK  status: ('A' for Active; 'I' for Inactive)
REMARK    1  A    between atoms: C_5  and  C_6 
REMARK       I    between atoms: C_6  and  N_7 
REMARK    2  A    between atoms: N_7  and  N_8 
REMARK       I    between atoms: N_8  and  C_9 
REMARK    3  A    between atoms: C_9  and  C_10 
REMARK    4  A    between atoms: C_10  and  S_11 
REMARK    5  A    between atoms: S_11  and  C_12 
REMARK    6  A    between atoms: C_14  and  C_15 
REMARK    7  A    between atoms: C_15  and  N_16 
REMARK    8  A    between atoms: N_16  and  C_17 
ROOT
HETATM    1  S   UNL     1      41.011 -12.329   5.038  1.00  0.00    -0.081 SA
ENDROOT
BRANCH   1   2
HETATM    2  C   UNL     1      39.637 -13.126   4.157  1.00  0.00     0.187 C 
BRANCH   2   3
HETATM    3  C   UNL     1      39.955 -14.555   3.742  1.00  0.00     0.245 C 
HETATM    4  N   UNL     1      40.408 -15.337   4.790  1.00  0.00    -0.267 N 
HETATM    5  H   UNL     1      40.763 -14.929   5.657  1.00  0.00     0.190 HD
HETATM    6  O   UNL     1      39.837 -15.003   2.600  1.00  0.00    -0.271 OA
BRANCH   4   7
HETATM    7  N   UNL     1      40.958 -16.591   4.467  1.00  0.00    -0.263 N 
HETATM    8  C   UNL     1      42.334 -16.656   4.347  1.00  0.00     0.270 C 
HETATM    9  O   UNL     1      43.053 -15.703   4.644  1.00  0.00    -0.266 OA
HETATM   10  H   UNL     1      40.334 -17.236   3.984  1.00  0.00     0.190 HD
BRANCH   8  11
HETATM   11  C   UNL     1      42.911 -17.919   3.806  1.00  0.00     0.033 A 
HETATM   12  C   UNL     1      43.815 -18.709   4.527  1.00  0.00     0.017 A 
HETATM   13  C   UNL     1      44.325 -19.885   3.966  1.00  0.00     0.007 A 
HETATM   14  C   UNL     1      43.941 -20.287   2.681  1.00  0.00    -0.062 A 
HETATM   15  C   UNL     1      44.514 -21.529   2.064  1.00  0.00     0.048 C 
HETATM   16  C   UNL     1      43.057 -19.483   1.953  1.00  0.00     0.007 A 
HETATM   17  C   UNL     1      42.545 -18.309   2.511  1.00  0.00     0.017 A 
ENDBRANCH   8  11
ENDBRANCH   4   7
ENDBRANCH   2   3
ENDBRANCH   1   2
BRANCH   1  18
HETATM   18  C   UNL     1      40.274 -12.041   6.566  1.00  0.00     0.185 A 
HETATM   19  N   UNL     1      40.505 -11.055   7.392  1.00  0.00    -0.204 NA
HETATM   20  C   UNL     1      39.626 -11.315   8.425  1.00  0.00     0.166 A 
HETATM   21  N   UNL     1      38.860 -12.406   8.248  1.00  0.00    -0.155 NA
HETATM   22  N   UNL     1      39.310 -12.860   7.065  1.00  0.00    -0.254 N 
HETATM   23  H   UNL     1      38.887 -13.672   6.624  1.00  0.00     0.191 HD
BRANCH  20  24
HETATM   24  C   UNL     1      39.562 -10.455   9.663  1.00  0.00     0.202 C 
BRANCH  24  25
HETATM   25  N   UNL     1      39.977 -11.103  10.914  1.00  0.00    -0.383 N 
HETATM   26  H   UNL     1      39.738 -12.091  10.920  1.00  0.00     0.160 HD
BRANCH  25  27
HETATM   27  C   UNL     1      41.226 -10.840  11.473  1.00  0.00     0.028 A 
HETATM   28  C   UNL     1      42.436 -10.988  10.781  1.00  0.00     0.036 A 
HETATM   29  C   UNL     1      43.666 -10.639  11.364  1.00  0.00    -0.060 A 
HETATM   30  C   UNL     1      44.952 -10.812  10.611  1.00  0.00     0.048 C 
HETATM   31  C   UNL     1      43.682 -10.092  12.650  1.00  0.00     0.007 A 
HETATM   32  C   UNL     1      42.488  -9.895  13.338  1.00  0.00     0.003 A 
HETATM   33  C   UNL     1      41.275 -10.256  12.746  1.00  0.00     0.029 A 
ENDBRANCH  25  27
ENDBRANCH  24  25
ENDBRANCH  20  24
ENDBRANCH   1  18
TORSDOF 8
ENDMDL
MODEL 6
REMARK VINA RESULT:      -9.0      6.043      9.106
REMARK  8 active torsions:
REMARK  status: ('A' for Active; 'I' for Inactive)
REMARK    1  A    between atoms: C_5  and  C_6 
REMARK       I    between atoms: C_6  and  N_7 
REMARK    2  A    between atoms: N_7  and  N_8 
REMARK       I    between atoms: N_8  and  C_9 
REMARK    3  A    between atoms: C_9  and  C_10 
REMARK    4  A    between atoms: C_10  and  S_11 
REMARK    5  A    between atoms: S_11  and  C_12 
REMARK    6  A    between atoms: C_14  and  C_15 
REMARK    7  A    between atoms: C_15  and  N_16 
REMARK    8  A    between atoms: N_16  and  C_17 
ROOT
HETATM    1  S   UNL     1      40.694 -10.882  -0.511  1.00  0.00    -0.081 SA
ENDROOT
BRANCH   1   2
HETATM    2  C   UNL     1      40.286 -12.234  -1.653  1.00  0.00     0.187 C 
BRANCH   2   3
HETATM    3  C   UNL     1      41.214 -13.430  -1.504  1.00  0.00     0.245 C 
HETATM    4  N   UNL     1      40.583 -14.547  -0.987  1.00  0.00    -0.267 N 
HETATM    5  H   UNL     1      39.689 -14.486  -0.496  1.00  0.00     0.190 HD
HETATM    6  O   UNL     1      42.411 -13.437  -1.798  1.00  0.00    -0.271 OA
BRANCH   4   7
HETATM    7  N   UNL     1      41.399 -15.620  -0.583  1.00  0.00    -0.263 N 
HETATM    8  C   UNL     1      41.145 -16.160   0.665  1.00  0.00     0.270 C 
HETATM    9  O   UNL     1      40.169 -15.817   1.330  1.00  0.00    -0.266 OA
HETATM   10  H   UNL     1      42.315 -15.669  -1.025  1.00  0.00     0.190 HD
BRANCH   8  11
HETATM   11  C   UNL     1      42.127 -17.151   1.190  1.00  0.00     0.033 A 
HETATM   12  C   UNL     1      43.490 -16.860   1.340  1.00  0.00     0.017 A 
HETATM   13  C   UNL     1      44.365 -17.832   1.836  1.00  0.00     0.007 A 
HETATM   14  C   UNL     1      43.895 -19.102   2.188  1.00  0.00    -0.062 A 
HETATM   15  C   UNL     1      44.838 -20.157   2.688  1.00  0.00     0.048 C 
HETATM   16  C   UNL     1      42.539 -19.398   2.013  1.00  0.00     0.007 A 
HETATM   17  C   UNL     1      41.662 -18.429   1.519  1.00  0.00     0.017 A 
ENDBRANCH   8  11
ENDBRANCH   4   7
ENDBRANCH   2   3
ENDBRANCH   1   2
BRANCH   1  18
HETATM   18  C   UNL     1      41.173 -11.782   0.875  1.00  0.00     0.185 A 
HETATM   19  N   UNL     1      40.414 -12.229   1.841  1.00  0.00    -0.204 NA
HETATM   20  C   UNL     1      41.316 -12.887   2.653  1.00  0.00     0.166 A 
HETATM   21  N   UNL     1      42.585 -12.873   2.209  1.00  0.00    -0.155 NA
HETATM   22  N   UNL     1      42.467 -12.143   1.086  1.00  0.00    -0.254 N 
HETATM   23  H   UNL     1      43.268 -11.985   0.482  1.00  0.00     0.191 HD
BRANCH  20  24
HETATM   24  C   UNL     1      40.904 -13.539   3.950  1.00  0.00     0.202 C 
BRANCH  24  25
HETATM   25  N   UNL     1      41.996 -14.074   4.772  1.00  0.00    -0.383 N 
HETATM   26  H   UNL     1      42.084 -13.570   5.651  1.00  0.00     0.160 HD
BRANCH  25  27
HETATM   27  C   UNL     1      42.176 -15.449   4.913  1.00  0.00     0.028 A 
HETATM   28  C   UNL     1      43.398 -16.043   5.254  1.00  0.00     0.036 A 
HETATM   29  C   UNL     1      43.513 -17.430   5.457  1.00  0.00    -0.060 A 
HETATM   30  C   UNL     1      44.832 -18.049   5.814  1.00  0.00     0.048 C 
HETATM   31  C   UNL     1      42.372 -18.231   5.358  1.00  0.00     0.007 A 
HETATM   32  C   UNL     1      41.140 -17.655   5.064  1.00  0.00     0.003 A 
HETATM   33  C   UNL     1      41.046 -16.276   4.856  1.00  0.00     0.029 A 
ENDBRANCH  25  27
ENDBRANCH  24  25
ENDBRANCH  20  24
ENDBRANCH   1  18
TORSDOF 8
ENDMDL
MODEL 7
REMARK VINA RESULT:      -8.9      2.448      2.844
REMARK  8 active torsions:
REMARK  status: ('A' for Active; 'I' for Inactive)
REMARK    1  A    between atoms: C_5  and  C_6 
REMARK       I    between atoms: C_6  and  N_7 
REMARK    2  A    between atoms: N_7  and  N_8 
REMARK       I    between atoms: N_8  and  C_9 
REMARK    3  A    between atoms: C_9  and  C_10 
REMARK    4  A    between atoms: C_10  and  S_11 
REMARK    5  A    between atoms: S_11  and  C_12 
REMARK    6  A    between atoms: C_14  and  C_15 
REMARK    7  A    between atoms: C_15  and  N_16 
REMARK    8  A    between atoms: N_16  and  C_17 
ROOT
HETATM    1  S   UNL     1      44.315 -14.849   7.293  1.00  0.00    -0.081 SA
ENDROOT
BRANCH   1   2
HETATM    2  C   UNL     1      45.401 -13.394   7.226  1.00  0.00     0.187 C 
BRANCH   2   3
HETATM    3  C   UNL     1      45.157 -12.426   8.374  1.00  0.00     0.245 C 
HETATM    4  N   UNL     1      44.021 -12.725   9.105  1.00  0.00    -0.267 N 
HETATM    5  H   UNL     1      43.286 -13.334   8.740  1.00  0.00     0.190 HD
HETATM    6  O   UNL     1      45.874 -11.463   8.651  1.00  0.00    -0.271 OA
BRANCH   4   7
HETATM    7  N   UNL     1      43.575 -11.759  10.026  1.00  0.00    -0.263 N 
HETATM    8  C   UNL     1      43.765 -12.041  11.366  1.00  0.00     0.270 C 
HETATM    9  O   UNL     1      44.416 -13.018  11.734  1.00  0.00    -0.266 OA
HETATM   10  H   UNL     1      42.834 -11.142   9.695  1.00  0.00     0.190 HD
BRANCH   8  11
HETATM   11  C   UNL     1      43.115 -11.131  12.352  1.00  0.00     0.033 A 
HETATM   12  C   UNL     1      41.876 -11.414  12.942  1.00  0.00     0.017 A 
HETATM   13  C   UNL     1      41.315 -10.520  13.859  1.00  0.00     0.007 A 
HETATM   14  C   UNL     1      41.978  -9.336  14.200  1.00  0.00    -0.062 A 
HETATM   15  C   UNL     1      41.361  -8.359  15.157  1.00  0.00     0.048 C 
HETATM   16  C   UNL     1      43.203  -9.043  13.589  1.00  0.00     0.007 A 
HETATM   17  C   UNL     1      43.768  -9.934  12.674  1.00  0.00     0.017 A 
ENDBRANCH   8  11
ENDBRANCH   4   7
ENDBRANCH   2   3
ENDBRANCH   1   2
BRANCH   1  18
HETATM   18  C   UNL     1      43.828 -14.949   5.645  1.00  0.00     0.185 A 
HETATM   19  N   UNL     1      43.572 -16.025   4.950  1.00  0.00    -0.204 NA
HETATM   20  C   UNL     1      43.211 -15.512   3.721  1.00  0.00     0.166 A 
HETATM   21  N   UNL     1      43.219 -14.169   3.649  1.00  0.00    -0.155 NA
HETATM   22  N   UNL     1      43.638 -13.839   4.884  1.00  0.00    -0.254 N 
HETATM   23  H   UNL     1      43.707 -12.865   5.166  1.00  0.00     0.191 HD
BRANCH  20  24
HETATM   24  C   UNL     1      42.868 -16.397   2.548  1.00  0.00     0.202 C 
BRANCH  24  25
HETATM   25  N   UNL     1      42.276 -17.699   2.880  1.00  0.00    -0.383 N 
HETATM   26  H   UNL     1      41.372 -17.824   2.432  1.00  0.00     0.160 HD
BRANCH  25  27
HETATM   27  C   UNL     1      43.052 -18.857   2.874  1.00  0.00     0.028 A 
HETATM   28  C   UNL     1      43.703 -19.364   4.006  1.00  0.00     0.036 A 
HETATM   29  C   UNL     1      44.412 -20.578   3.968  1.00  0.00    -0.060 A 
HETATM   30  C   UNL     1      45.110 -21.100   5.188  1.00  0.00     0.048 C 
HETATM   31  C   UNL     1      44.435 -21.318   2.782  1.00  0.00     0.007 A 
HETATM   32  C   UNL     1      43.757 -20.854   1.658  1.00  0.00     0.003 A 
HETATM   33  C   UNL     1      43.065 -19.642   1.712  1.00  0.00     0.029 A 
ENDBRANCH  25  27
ENDBRANCH  24  25
ENDBRANCH  20  24
ENDBRANCH   1  18
TORSDOF 8
ENDMDL
MODEL 8
REMARK VINA RESULT:      -8.8      5.169      9.214
REMARK  8 active torsions:
REMARK  status: ('A' for Active; 'I' for Inactive)
REMARK    1  A    between atoms: C_5  and  C_6 
REMARK       I    between atoms: C_6  and  N_7 
REMARK    2  A    between atoms: N_7  and  N_8 
REMARK       I    between atoms: N_8  and  C_9 
REMARK    3  A    between atoms: C_9  and  C_10 
REMARK    4  A    between atoms: C_10  and  S_11 
REMARK    5  A    between atoms: S_11  and  C_12 
REMARK    6  A    between atoms: C_14  and  C_15 
REMARK    7  A    between atoms: C_15  and  N_16 
REMARK    8  A    between atoms: N_16  and  C_17 
ROOT
HETATM    1  S   UNL     1      41.442 -13.282   0.077  1.00  0.00    -0.081 SA
ENDROOT
BRANCH   1   2
HETATM    2  C   UNL     1      40.398 -14.763  -0.042  1.00  0.00     0.187 C 
BRANCH   2   3
HETATM    3  C   UNL     1      40.774 -15.830   0.976  1.00  0.00     0.245 C 
HETATM    4  N   UNL     1      41.893 -16.558   0.613  1.00  0.00    -0.267 N 
HETATM    5  H   UNL     1      42.239 -16.575  -0.348  1.00  0.00     0.190 HD
HETATM    6  O   UNL     1      40.166 -16.052   2.026  1.00  0.00    -0.271 OA
BRANCH   4   7
HETATM    7  N   UNL     1      42.176 -17.718   1.356  1.00  0.00    -0.263 N 
HETATM    8  C   UNL     1      43.503 -17.951   1.666  1.00  0.00     0.270 C 
HETATM    9  O   UNL     1      44.377 -17.119   1.428  1.00  0.00    -0.266 OA
HETATM   10  H   UNL     1      41.491 -18.468   1.283  1.00  0.00     0.190 HD
BRANCH   8  11
HETATM   11  C   UNL     1      43.840 -19.273   2.269  1.00  0.00     0.033 A 
HETATM   12  C   UNL     1      43.642 -20.485   1.594  1.00  0.00     0.017 A 
HETATM   13  C   UNL     1      43.975 -21.695   2.211  1.00  0.00     0.007 A 
HETATM   14  C   UNL     1      44.507 -21.713   3.506  1.00  0.00    -0.062 A 
HETATM   15  C   UNL     1      44.833 -23.012   4.183  1.00  0.00     0.048 C 
HETATM   16  C   UNL     1      44.680 -20.503   4.187  1.00  0.00     0.007 A 
HETATM   17  C   UNL     1      44.350 -19.292   3.572  1.00  0.00     0.017 A 
ENDBRANCH   8  11
ENDBRANCH   4   7
ENDBRANCH   2   3
ENDBRANCH   1   2
BRANCH   1  18
HETATM   18  C   UNL     1      41.287 -12.927   1.753  1.00  0.00     0.185 A 
HETATM   19  N   UNL     1      42.161 -13.142   2.701  1.00  0.00    -0.204 NA
HETATM   20  C   UNL     1      41.523 -12.646   3.819  1.00  0.00     0.166 A 
HETATM   21  N   UNL     1      40.306 -12.123   3.585  1.00  0.00    -0.155 NA
HETATM   22  N   UNL     1      40.174 -12.336   2.264  1.00  0.00    -0.254 N 
HETATM   23  H   UNL     1      39.355 -12.003   1.762  1.00  0.00     0.191 HD
BRANCH  20  24
HETATM   24  C   UNL     1      42.135 -12.721   5.196  1.00  0.00     0.202 C 
BRANCH  24  25
HETATM   25  N   UNL     1      41.558 -13.722   6.101  1.00  0.00    -0.383 N 
HETATM   26  H   UNL     1      40.562 -13.569   6.241  1.00  0.00     0.160 HD
BRANCH  25  27
HETATM   27  C   UNL     1      41.889 -15.071   5.978  1.00  0.00     0.028 A 
HETATM   28  C   UNL     1      43.111 -15.613   6.399  1.00  0.00     0.036 A 
HETATM   29  C   UNL     1      43.371 -16.993   6.323  1.00  0.00    -0.060 A 
HETATM   30  C   UNL     1      44.687 -17.554   6.770  1.00  0.00     0.048 C 
HETATM   31  C   UNL     1      42.371 -17.850   5.855  1.00  0.00     0.007 A 
HETATM   32  C   UNL     1      41.135 -17.338   5.474  1.00  0.00     0.003 A 
HETATM   33  C   UNL     1      40.898 -15.963   5.548  1.00  0.00     0.029 A 
ENDBRANCH  25  27
ENDBRANCH  24  25
ENDBRANCH  20  24
ENDBRANCH   1  18
TORSDOF 8
ENDMDL
MODEL 9
REMARK VINA RESULT:      -8.6      6.773     10.896
REMARK  8 active torsions:
REMARK  status: ('A' for Active; 'I' for Inactive)
REMARK    1  A    between atoms: C_5  and  C_6 
REMARK       I    between atoms: C_6  and  N_7 
REMARK    2  A    between atoms: N_7  and  N_8 
REMARK       I    between atoms: N_8  and  C_9 
REMARK    3  A    between atoms: C_9  and  C_10 
REMARK    4  A    between atoms: C_10  and  S_11 
REMARK    5  A    between atoms: S_11  and  C_12 
REMARK    6  A    between atoms: C_14  and  C_15 
REMARK    7  A    between atoms: C_15  and  N_16 
REMARK    8  A    between atoms: N_16  and  C_17 
ROOT
HETATM    1  S   UNL     1      39.701 -14.350   1.604  1.00  0.00    -0.081 SA
ENDROOT
BRANCH   1   2
HETATM    2  C   UNL     1      41.328 -13.646   1.997  1.00  0.00     0.187 C 
BRANCH   2   3
HETATM    3  C   UNL     1      42.264 -14.657   2.643  1.00  0.00     0.245 C 
HETATM    4  N   UNL     1      42.060 -15.950   2.197  1.00  0.00    -0.267 N 
HETATM    5  H   UNL     1      41.200 -16.230   1.722  1.00  0.00     0.190 HD
HETATM    6  O   UNL     1      43.125 -14.387   3.484  1.00  0.00    -0.271 OA
BRANCH   4   7
HETATM    7  N   UNL     1      42.699 -16.985   2.905  1.00  0.00    -0.263 N 
HETATM    8  C   UNL     1      43.361 -17.938   2.153  1.00  0.00     0.270 C 
HETATM    9  O   UNL     1      43.506 -17.815   0.938  1.00  0.00    -0.266 OA
HETATM   10  H   UNL     1      42.327 -17.180   3.833  1.00  0.00     0.190 HD
BRANCH   8  11
HETATM   11  C   UNL     1      43.862 -19.144   2.872  1.00  0.00     0.033 A 
HETATM   12  C   UNL     1      44.005 -20.391   2.249  1.00  0.00     0.017 A 
HETATM   13  C   UNL     1      44.478 -21.489   2.976  1.00  0.00     0.007 A 
HETATM   14  C   UNL     1      44.813 -21.358   4.328  1.00  0.00    -0.062 A 
HETATM   15  C   UNL     1      45.288 -22.542   5.119  1.00  0.00     0.048 C 
HETATM   16  C   UNL     1      44.645 -20.118   4.954  1.00  0.00     0.007 A 
HETATM   17  C   UNL     1      44.175 -19.019   4.231  1.00  0.00     0.017 A 
ENDBRANCH   8  11
ENDBRANCH   4   7
ENDBRANCH   2   3
ENDBRANCH   1   2
BRANCH   1  18
HETATM   18  C   UNL     1      39.770 -14.351  -0.115  1.00  0.00     0.185 A 
HETATM   19  N   UNL     1      40.835 -14.333  -0.873  1.00  0.00    -0.204 NA
HETATM   20  C   UNL     1      40.301 -14.369  -2.145  1.00  0.00     0.166 A 
HETATM   21  N   UNL     1      38.958 -14.426  -2.188  1.00  0.00    -0.155 NA
HETATM   22  N   UNL     1      38.647 -14.391  -0.880  1.00  0.00    -0.254 N 
HETATM   23  H   UNL     1      37.681 -14.466  -0.573  1.00  0.00     0.191 HD
BRANCH  20  24
HETATM   24  C   UNL     1      41.162 -14.313  -3.382  1.00  0.00     0.202 C 
BRANCH  24  25
HETATM   25  N   UNL     1      42.489 -13.708  -3.212  1.00  0.00    -0.383 N 
HETATM   26  H   UNL     1      43.188 -14.170  -3.788  1.00  0.00     0.160 HD
BRANCH  25  27
HETATM   27  C   UNL     1      42.642 -12.323  -3.178  1.00  0.00     0.028 A 
HETATM   28  C   UNL     1      42.389 -11.484  -4.272  1.00  0.00     0.036 A 
HETATM   29  C   UNL     1      42.486 -10.085  -4.167  1.00  0.00    -0.060 A 
HETATM   30  C   UNL     1      42.220  -9.204  -5.351  1.00  0.00     0.048 C 
HETATM   31  C   UNL     1      42.801  -9.514  -2.931  1.00  0.00     0.007 A 
HETATM   32  C   UNL     1      43.011 -10.326  -1.820  1.00  0.00     0.003 A 
HETATM   33  C   UNL     1      42.920 -11.715  -1.946  1.00  0.00     0.029 A 
ENDBRANCH  25  27
ENDBRANCH  24  25
ENDBRANCH  20  24
ENDBRANCH   1  18
TORSDOF 8
ENDMDL
MODEL 10
REMARK VINA RESULT:      -8.4      2.238      3.104
REMARK  8 active torsions:
REMARK  status: ('A' for Active; 'I' for Inactive)
REMARK    1  A    between atoms: C_5  and  C_6 
REMARK       I    between atoms: C_6  and  N_7 
REMARK    2  A    between atoms: N_7  and  N_8 
REMARK       I    between atoms: N_8  and  C_9 
REMARK    3  A    between atoms: C_9  and  C_10 
REMARK    4  A    between atoms: C_10  and  S_11 
REMARK    5  A    between atoms: S_11  and  C_12 
REMARK    6  A    between atoms: C_14  and  C_15 
REMARK    7  A    between atoms: C_15  and  N_16 
REMARK    8  A    between atoms: N_16  and  C_17 
ROOT
HETATM    1  S   UNL     1      39.974 -11.895   4.135  1.00  0.00    -0.081 SA
ENDROOT
BRANCH   1   2
HETATM    2  C   UNL     1      40.670 -12.723   5.594  1.00  0.00     0.187 C 
BRANCH   2   3
HETATM    3  C   UNL     1      40.407 -11.960   6.884  1.00  0.00     0.245 C 
HETATM    4  N   UNL     1      41.564 -11.617   7.559  1.00  0.00    -0.267 N 
HETATM    5  H   UNL     1      42.458 -12.074   7.368  1.00  0.00     0.190 HD
HETATM    6  O   UNL     1      39.290 -11.664   7.315  1.00  0.00    -0.271 OA
BRANCH   4   7
HETATM    7  N   UNL     1      41.425 -11.131   8.872  1.00  0.00    -0.263 N 
HETATM    8  C   UNL     1      42.585 -10.752   9.523  1.00  0.00     0.270 C 
HETATM    9  O   UNL     1      43.667 -10.708   8.940  1.00  0.00    -0.266 OA
HETATM   10  H   UNL     1      40.592 -11.439   9.371  1.00  0.00     0.190 HD
BRANCH   8  11
HETATM   11  C   UNL     1      42.477 -10.435  10.975  1.00  0.00     0.033 A 
HETATM   12  C   UNL     1      41.269 -10.516  11.680  1.00  0.00     0.017 A 
HETATM   13  C   UNL     1      41.229 -10.203  13.043  1.00  0.00     0.007 A 
HETATM   14  C   UNL     1      42.389  -9.806  13.719  1.00  0.00    -0.062 A 
HETATM   15  C   UNL     1      42.341  -9.437  15.173  1.00  0.00     0.048 C 
HETATM   16  C   UNL     1      43.589  -9.702  13.006  1.00  0.00     0.007 A 
HETATM   17  C   UNL     1      43.632 -10.015  11.645  1.00  0.00     0.017 A 
ENDBRANCH   8  11
ENDBRANCH   4   7
ENDBRANCH   2   3
ENDBRANCH   1   2
BRANCH   1  18
HETATM   18  C   UNL     1      40.837 -12.700   2.881  1.00  0.00     0.185 A 
HETATM   19  N   UNL     1      40.665 -13.921   2.448  1.00  0.00    -0.204 NA
HETATM   20  C   UNL     1      41.599 -14.016   1.437  1.00  0.00     0.166 A 
HETATM   21  N   UNL     1      42.316 -12.897   1.228  1.00  0.00    -0.155 NA
HETATM   22  N   UNL     1      41.823 -12.083   2.177  1.00  0.00    -0.254 N 
HETATM   23  H   UNL     1      42.139 -11.120   2.253  1.00  0.00     0.191 HD
BRANCH  20  24
HETATM   24  C   UNL     1      41.814 -15.289   0.656  1.00  0.00     0.202 C 
BRANCH  24  25
HETATM   25  N   UNL     1      43.105 -15.957   0.863  1.00  0.00    -0.383 N 
HETATM   26  H   UNL     1      43.866 -15.286   0.930  1.00  0.00     0.160 HD
BRANCH  25  27
HETATM   27  C   UNL     1      43.227 -17.010   1.768  1.00  0.00     0.028 A 
HETATM   28  C   UNL     1      43.345 -18.354   1.388  1.00  0.00     0.036 A 
HETATM   29  C   UNL     1      43.541 -19.374   2.335  1.00  0.00    -0.060 A 
HETATM   30  C   UNL     1      43.657 -20.808   1.909  1.00  0.00     0.048 C 
HETATM   31  C   UNL     1      43.663 -19.037   3.685  1.00  0.00     0.007 A 
HETATM   32  C   UNL     1      43.593 -17.705   4.080  1.00  0.00     0.003 A 
HETATM   33  C   UNL     1      43.389 -16.704   3.126  1.00  0.00     0.029 A 
ENDBRANCH  25  27
ENDBRANCH  24  25
ENDBRANCH  20  24
ENDBRANCH   1  18
TORSDOF 8
ENDMDL
