MODEL 1
REMARK VINA RESULT:      -8.6      0.000      0.000
REMARK  4 active torsions:
REMARK  status: ('A' for Active; 'I' for Inactive)
REMARK    1  A    between atoms: O_2  and  C_3 
REMARK    2  A    between atoms: C_6  and  C_7 
REMARK    3  A    between atoms: C_9  and  N_10 
REMARK       I    between atoms: N_10  and  C_11 
REMARK    4  A    between atoms: C_11  and  C_12 
ROOT
HETATM    1  C   UNL     1      43.686 -16.381   4.800  1.00  0.00     0.173 A 
HETATM    2  N   UNL     1      43.807 -15.849   6.004  1.00  0.00    -0.041 NA
HETATM    3  C   UNL     1      43.429 -14.544   5.833  1.00  0.00     0.748 A 
HETATM    4  N   UNL     1      43.080 -14.235   4.587  1.00  0.00     0.021 NA
HETATM    5  N   UNL     1      43.250 -15.398   3.955  1.00  0.00    -0.244 N 
HETATM    6  H   UNL     1      43.027 -15.457   2.969  1.00  0.00     0.191 HD
ENDROOT
BRANCH   3   7
HETATM    7  N   UNL     1      43.441 -13.732   6.933  1.00  0.00    -0.150 N 
HETATM    8  C   UNL     1      44.573 -13.222   7.523  1.00  0.00     0.270 C 
HETATM    9  O   UNL     1      45.732 -13.439   7.186  1.00  0.00    -0.267 OA
HETATM   10  H   UNL     1      42.520 -13.562   7.299  1.00  0.00     0.188 HD
BRANCH   8  11
HETATM   11  C   UNL     1      44.351 -12.333   8.707  1.00  0.00     0.035 A 
HETATM   12  C   UNL     1      43.193 -11.565   8.878  1.00  0.00     0.056 A 
HETATM   13  C   UNL     1      43.056 -10.757  10.009  1.00  0.00     0.103 A 
HETATM   14  C   UNL     1      44.087 -10.672  10.951  1.00  0.00     0.102 A 
HETATM   15  O   UNL     1      41.879 -10.058  10.123  1.00  0.00    -0.346 OA
HETATM   16  O   UNL     1      44.030  -9.866  12.059  1.00  0.00    -0.346 OA
HETATM   17  C   UNL     1      45.241 -11.430  10.787  1.00  0.00     0.040 A 
HETATM   18  C   UNL     1      42.987  -8.892  11.943  1.00  0.00     0.202 C 
HETATM   19  C   UNL     1      41.705  -9.540  11.448  1.00  0.00     0.202 C 
HETATM   20  C   UNL     1      45.374 -12.256   9.668  1.00  0.00     0.020 A 
ENDBRANCH   8  11
ENDBRANCH   3   7
BRANCH   1  21
HETATM   21  C   UNL     1      43.917 -17.772   4.414  1.00  0.00     0.012 A 
HETATM   22  C   UNL     1      43.555 -18.201   3.131  1.00  0.00     0.018 A 
HETATM   23  C   UNL     1      43.800 -19.516   2.720  1.00  0.00     0.037 A 
HETATM   24  C   UNL     1      44.408 -20.429   3.581  1.00  0.00     0.068 A 
HETATM   25  C   UNL     1      44.748 -20.021   4.870  1.00  0.00     0.037 A 
HETATM   26  C   UNL     1      44.504 -18.703   5.282  1.00  0.00     0.018 A 
BRANCH  24  27
HETATM   27  O   UNL     1      44.605 -21.674   3.054  1.00  0.00    -0.356 OA
HETATM   28  C   UNL     1      44.147 -21.890   1.725  1.00  0.00     0.210 C 
ENDBRANCH  24  27
ENDBRANCH   1  21
TORSDOF 4
ENDMDL
MODEL 2
REMARK VINA RESULT:      -8.4      1.706     10.150
REMARK  4 active torsions:
REMARK  status: ('A' for Active; 'I' for Inactive)
REMARK    1  A    between atoms: O_2  and  C_3 
REMARK    2  A    between atoms: C_6  and  C_7 
REMARK    3  A    between atoms: C_9  and  N_10 
REMARK       I    between atoms: N_10  and  C_11 
REMARK    4  A    between atoms: C_11  and  C_12 
ROOT
HETATM    1  C   UNL     1      44.562 -12.066   8.831  1.00  0.00     0.173 A 
HETATM    2  N   UNL     1      44.044 -13.059   8.129  1.00  0.00    -0.041 NA
HETATM    3  C   UNL     1      45.117 -13.598   7.470  1.00  0.00     0.748 A 
HETATM    4  N   UNL     1      46.274 -12.994   7.725  1.00  0.00     0.021 NA
HETATM    5  N   UNL     1      45.906 -12.036   8.578  1.00  0.00    -0.244 N 
HETATM    6  H   UNL     1      46.614 -11.424   8.964  1.00  0.00     0.191 HD
ENDROOT
BRANCH   3   7
HETATM    7  N   UNL     1      44.885 -14.672   6.658  1.00  0.00    -0.150 N 
HETATM    8  C   UNL     1      44.248 -15.828   7.042  1.00  0.00     0.270 C 
HETATM    9  O   UNL     1      43.826 -16.091   8.163  1.00  0.00    -0.267 OA
HETATM   10  H   UNL     1      45.262 -14.547   5.733  1.00  0.00     0.188 HD
BRANCH   8  11
HETATM   11  C   UNL     1      44.080 -16.869   5.979  1.00  0.00     0.035 A 
HETATM   12  C   UNL     1      44.776 -18.085   5.986  1.00  0.00     0.056 A 
HETATM   13  C   UNL     1      44.569 -19.009   4.959  1.00  0.00     0.103 A 
HETATM   14  C   UNL     1      43.708 -18.712   3.897  1.00  0.00     0.102 A 
HETATM   15  O   UNL     1      45.262 -20.191   5.052  1.00  0.00    -0.346 OA
HETATM   16  O   UNL     1      43.496 -19.557   2.840  1.00  0.00    -0.346 OA
HETATM   17  C   UNL     1      43.016 -17.506   3.883  1.00  0.00     0.040 A 
HETATM   18  C   UNL     1      44.499 -20.578   2.778  1.00  0.00     0.202 C 
HETATM   19  C   UNL     1      44.735 -21.177   4.155  1.00  0.00     0.202 C 
HETATM   20  C   UNL     1      43.203 -16.587   4.918  1.00  0.00     0.020 A 
ENDBRANCH   8  11
ENDBRANCH   3   7
BRANCH   1  21
HETATM   21  C   UNL     1      43.867 -11.175   9.760  1.00  0.00     0.012 A 
HETATM   22  C   UNL     1      44.387 -10.977  11.045  1.00  0.00     0.018 A 
HETATM   23  C   UNL     1      43.767 -10.101  11.942  1.00  0.00     0.037 A 
HETATM   24  C   UNL     1      42.614  -9.407  11.574  1.00  0.00     0.068 A 
HETATM   25  C   UNL     1      42.071  -9.616  10.308  1.00  0.00     0.037 A 
HETATM   26  C   UNL     1      42.693 -10.494   9.408  1.00  0.00     0.018 A 
BRANCH  24  27
HETATM   27  O   UNL     1      42.115  -8.571  12.534  1.00  0.00    -0.356 OA
HETATM   28  C   UNL     1      42.681  -8.675  13.835  1.00  0.00     0.210 C 
ENDBRANCH  24  27
ENDBRANCH   1  21
TORSDOF 4
ENDMDL
MODEL 3
REMARK VINA RESULT:      -8.4      7.202     10.661
REMARK  4 active torsions:
REMARK  status: ('A' for Active; 'I' for Inactive)
REMARK    1  A    between atoms: O_2  and  C_3 
REMARK    2  A    between atoms: C_6  and  C_7 
REMARK    3  A    between atoms: C_9  and  N_10 
REMARK       I    between atoms: N_10  and  C_11 
REMARK    4  A    between atoms: C_11  and  C_12 
ROOT
HETATM    1  C   UNL     1      42.689 -17.099   1.917  1.00  0.00     0.173 A 
HETATM    2  N   UNL     1      41.779 -17.193   0.963  1.00  0.00    -0.041 NA
HETATM    3  C   UNL     1      41.506 -15.892   0.631  1.00  0.00     0.748 A 
HETATM    4  N   UNL     1      42.196 -14.995   1.329  1.00  0.00     0.021 NA
HETATM    5  N   UNL     1      42.931 -15.770   2.130  1.00  0.00    -0.244 N 
HETATM    6  H   UNL     1      43.585 -15.334   2.768  1.00  0.00     0.191 HD
ENDROOT
BRANCH   3   7
HETATM    7  N   UNL     1      40.589 -15.671  -0.358  1.00  0.00    -0.150 N 
HETATM    8  C   UNL     1      40.769 -14.822  -1.423  1.00  0.00     0.270 C 
HETATM    9  O   UNL     1      41.747 -14.111  -1.633  1.00  0.00    -0.267 OA
HETATM   10  H   UNL     1      39.734 -16.181  -0.214  1.00  0.00     0.188 HD
BRANCH   8  11
HETATM   11  C   UNL     1      39.639 -14.751  -2.404  1.00  0.00     0.035 A 
HETATM   12  C   UNL     1      38.670 -13.740  -2.379  1.00  0.00     0.056 A 
HETATM   13  C   UNL     1      37.643 -13.739  -3.326  1.00  0.00     0.103 A 
HETATM   14  C   UNL     1      37.547 -14.766  -4.271  1.00  0.00     0.102 A 
HETATM   15  O   UNL     1      36.749 -12.699  -3.258  1.00  0.00    -0.346 OA
HETATM   16  O   UNL     1      36.541 -14.844  -5.199  1.00  0.00    -0.346 OA
HETATM   17  C   UNL     1      38.505 -15.773  -4.301  1.00  0.00     0.040 A 
HETATM   18  C   UNL     1      35.448 -13.983  -4.857  1.00  0.00     0.202 C 
HETATM   19  C   UNL     1      35.959 -12.610  -4.450  1.00  0.00     0.202 C 
HETATM   20  C   UNL     1      39.545 -15.768  -3.369  1.00  0.00     0.020 A 
ENDBRANCH   8  11
ENDBRANCH   3   7
BRANCH   1  21
HETATM   21  C   UNL     1      43.373 -18.193   2.606  1.00  0.00     0.012 A 
HETATM   22  C   UNL     1      43.782 -18.022   3.934  1.00  0.00     0.018 A 
HETATM   23  C   UNL     1      44.403 -19.064   4.632  1.00  0.00     0.037 A 
HETATM   24  C   UNL     1      44.632 -20.295   4.016  1.00  0.00     0.068 A 
HETATM   25  C   UNL     1      44.254 -20.467   2.685  1.00  0.00     0.037 A 
HETATM   26  C   UNL     1      43.630 -19.424   1.986  1.00  0.00     0.018 A 
BRANCH  24  27
HETATM   27  O   UNL     1      45.231 -21.233   4.809  1.00  0.00    -0.356 OA
HETATM   28  C   UNL     1      44.814 -22.581   4.636  1.00  0.00     0.210 C 
ENDBRANCH  24  27
ENDBRANCH   1  21
TORSDOF 4
ENDMDL
MODEL 4
REMARK VINA RESULT:      -7.9      2.202      9.946
REMARK  4 active torsions:
REMARK  status: ('A' for Active; 'I' for Inactive)
REMARK    1  A    between atoms: O_2  and  C_3 
REMARK    2  A    between atoms: C_6  and  C_7 
REMARK    3  A    between atoms: C_9  and  N_10 
REMARK       I    between atoms: N_10  and  C_11 
REMARK    4  A    between atoms: C_11  and  C_12 
ROOT
HETATM    1  C   UNL     1      44.386 -11.786   9.241  1.00  0.00     0.173 A 
HETATM    2  N   UNL     1      43.793 -12.559   8.347  1.00  0.00    -0.041 NA
HETATM    3  C   UNL     1      44.822 -13.250   7.766  1.00  0.00     0.748 A 
HETATM    4  N   UNL     1      46.024 -12.948   8.249  1.00  0.00     0.021 NA
HETATM    5  N   UNL     1      45.730 -12.029   9.171  1.00  0.00    -0.244 N 
HETATM    6  H   UNL     1      46.480 -11.634   9.726  1.00  0.00     0.191 HD
ENDROOT
BRANCH   3   7
HETATM    7  N   UNL     1      44.506 -14.154   6.790  1.00  0.00    -0.150 N 
HETATM    8  C   UNL     1      44.038 -15.426   7.017  1.00  0.00     0.270 C 
HETATM    9  O   UNL     1      43.867 -15.957   8.109  1.00  0.00    -0.267 OA
HETATM   10  H   UNL     1      44.681 -13.801   5.865  1.00  0.00     0.188 HD
BRANCH   8  11
HETATM   11  C   UNL     1      43.732 -16.239   5.797  1.00  0.00     0.035 A 
HETATM   12  C   UNL     1      43.327 -15.670   4.583  1.00  0.00     0.056 A 
HETATM   13  C   UNL     1      43.057 -16.492   3.486  1.00  0.00     0.103 A 
HETATM   14  C   UNL     1      43.142 -17.883   3.603  1.00  0.00     0.102 A 
HETATM   15  O   UNL     1      42.696 -15.859   2.322  1.00  0.00    -0.346 OA
HETATM   16  O   UNL     1      42.849 -18.744   2.578  1.00  0.00    -0.346 OA
HETATM   17  C   UNL     1      43.541 -18.455   4.806  1.00  0.00     0.040 A 
HETATM   18  C   UNL     1      42.126 -18.084   1.532  1.00  0.00     0.202 C 
HETATM   19  C   UNL     1      42.770 -16.748   1.200  1.00  0.00     0.202 C 
HETATM   20  C   UNL     1      43.832 -17.637   5.900  1.00  0.00     0.020 A 
ENDBRANCH   8  11
ENDBRANCH   3   7
BRANCH   1  21
HETATM   21  C   UNL     1      43.752 -10.867  10.185  1.00  0.00     0.012 A 
HETATM   22  C   UNL     1      42.599 -10.171   9.801  1.00  0.00     0.018 A 
HETATM   23  C   UNL     1      41.948  -9.315  10.696  1.00  0.00     0.037 A 
HETATM   24  C   UNL     1      42.436  -9.135  11.990  1.00  0.00     0.068 A 
HETATM   25  C   UNL     1      43.598  -9.802  12.375  1.00  0.00     0.037 A 
HETATM   26  C   UNL     1      44.250 -10.661  11.479  1.00  0.00     0.018 A 
BRANCH  24  27
HETATM   27  O   UNL     1      41.700  -8.287  12.770  1.00  0.00    -0.356 OA
HETATM   28  C   UNL     1      40.296  -8.263  12.546  1.00  0.00     0.210 C 
ENDBRANCH  24  27
ENDBRANCH   1  21
TORSDOF 4
ENDMDL
MODEL 5
REMARK VINA RESULT:      -7.9      6.791      8.967
REMARK  4 active torsions:
REMARK  status: ('A' for Active; 'I' for Inactive)
REMARK    1  A    between atoms: O_2  and  C_3 
REMARK    2  A    between atoms: C_6  and  C_7 
REMARK    3  A    between atoms: C_9  and  N_10 
REMARK       I    between atoms: N_10  and  C_11 
REMARK    4  A    between atoms: C_11  and  C_12 
ROOT
HETATM    1  C   UNL     1      42.335 -17.286   1.886  1.00  0.00     0.173 A 
HETATM    2  N   UNL     1      42.762 -16.401   1.001  1.00  0.00    -0.041 NA
HETATM    3  C   UNL     1      41.651 -15.654   0.711  1.00  0.00     0.748 A 
HETATM    4  N   UNL     1      40.556 -16.028   1.368  1.00  0.00     0.021 NA
HETATM    5  N   UNL     1      41.004 -17.052   2.097  1.00  0.00    -0.244 N 
HETATM    6  H   UNL     1      40.366 -17.521   2.727  1.00  0.00     0.191 HD
ENDROOT
BRANCH   3   7
HETATM    7  N   UNL     1      41.792 -14.632  -0.185  1.00  0.00    -0.150 N 
HETATM    8  C   UNL     1      42.149 -13.345   0.138  1.00  0.00     0.270 C 
HETATM    9  O   UNL     1      42.359 -12.906   1.263  1.00  0.00    -0.267 OA
HETATM   10  H   UNL     1      41.574 -14.911  -1.127  1.00  0.00     0.188 HD
BRANCH   8  11
HETATM   11  C   UNL     1      42.268 -12.390  -1.010  1.00  0.00     0.035 A 
HETATM   12  C   UNL     1      42.207 -10.999  -0.855  1.00  0.00     0.056 A 
HETATM   13  C   UNL     1      42.324 -10.170  -1.972  1.00  0.00     0.103 A 
HETATM   14  C   UNL     1      42.456 -10.717  -3.253  1.00  0.00     0.102 A 
HETATM   15  O   UNL     1      42.287  -8.818  -1.737  1.00  0.00    -0.346 OA
HETATM   16  O   UNL     1      42.533  -9.959  -4.392  1.00  0.00    -0.346 OA
HETATM   17  C   UNL     1      42.516 -12.097  -3.415  1.00  0.00     0.040 A 
HETATM   18  C   UNL     1      42.113  -8.611  -4.151  1.00  0.00     0.202 C 
HETATM   19  C   UNL     1      42.744  -8.076  -2.875  1.00  0.00     0.202 C 
HETATM   20  C   UNL     1      42.419 -12.931  -2.298  1.00  0.00     0.020 A 
ENDBRANCH   8  11
ENDBRANCH   3   7
BRANCH   1  21
HETATM   21  C   UNL     1      43.122 -18.308   2.574  1.00  0.00     0.012 A 
HETATM   22  C   UNL     1      43.388 -18.169   3.942  1.00  0.00     0.018 A 
HETATM   23  C   UNL     1      44.104 -19.151   4.635  1.00  0.00     0.037 A 
HETATM   24  C   UNL     1      44.572 -20.288   3.977  1.00  0.00     0.068 A 
HETATM   25  C   UNL     1      44.337 -20.424   2.610  1.00  0.00     0.037 A 
HETATM   26  C   UNL     1      43.618 -19.442   1.914  1.00  0.00     0.018 A 
BRANCH  24  27
HETATM   27  O   UNL     1      45.243 -21.177   4.770  1.00  0.00    -0.356 OA
HETATM   28  C   UNL     1      44.811 -22.531   4.724  1.00  0.00     0.210 C 
ENDBRANCH  24  27
ENDBRANCH   1  21
TORSDOF 4
ENDMDL
MODEL 6
REMARK VINA RESULT:      -7.8      6.819      9.328
REMARK  4 active torsions:
REMARK  status: ('A' for Active; 'I' for Inactive)
REMARK    1  A    between atoms: O_2  and  C_3 
REMARK    2  A    between atoms: C_6  and  C_7 
REMARK    3  A    between atoms: C_9  and  N_10 
REMARK       I    between atoms: N_10  and  C_11 
REMARK    4  A    between atoms: C_11  and  C_12 
ROOT
HETATM    1  C   UNL     1      42.217 -17.099   1.984  1.00  0.00     0.173 A 
HETATM    2  N   UNL     1      42.595 -16.262   1.034  1.00  0.00    -0.041 NA
HETATM    3  C   UNL     1      41.499 -15.464   0.835  1.00  0.00     0.748 A 
HETATM    4  N   UNL     1      40.460 -15.761   1.612  1.00  0.00     0.021 NA
HETATM    5  N   UNL     1      40.929 -16.789   2.323  1.00  0.00    -0.244 N 
HETATM    6  H   UNL     1      40.337 -17.207   3.030  1.00  0.00     0.191 HD
ENDROOT
BRANCH   3   7
HETATM    7  N   UNL     1      41.597 -14.475  -0.102  1.00  0.00    -0.150 N 
HETATM    8  C   UNL     1      42.051 -13.201   0.141  1.00  0.00     0.270 C 
HETATM    9  O   UNL     1      42.398 -12.744   1.225  1.00  0.00    -0.267 OA
HETATM   10  H   UNL     1      41.270 -14.767  -1.008  1.00  0.00     0.188 HD
BRANCH   8  11
HETATM   11  C   UNL     1      42.099 -12.284  -1.042  1.00  0.00     0.035 A 
HETATM   12  C   UNL     1      41.302 -12.466  -2.180  1.00  0.00     0.056 A 
HETATM   13  C   UNL     1      41.401 -11.570  -3.247  1.00  0.00     0.103 A 
HETATM   14  C   UNL     1      42.324 -10.519  -3.210  1.00  0.00     0.102 A 
HETATM   15  O   UNL     1      40.566 -11.795  -4.314  1.00  0.00    -0.346 OA
HETATM   16  O   UNL     1      42.498  -9.633  -4.241  1.00  0.00    -0.346 OA
HETATM   17  C   UNL     1      43.119 -10.334  -2.084  1.00  0.00     0.040 A 
HETATM   18  C   UNL     1      41.905 -10.117  -5.451  1.00  0.00     0.202 C 
HETATM   19  C   UNL     1      40.509 -10.656  -5.182  1.00  0.00     0.202 C 
HETATM   20  C   UNL     1      43.009 -11.215  -1.006  1.00  0.00     0.020 A 
ENDBRANCH   8  11
ENDBRANCH   3   7
BRANCH   1  21
HETATM   21  C   UNL     1      43.019 -18.144   2.620  1.00  0.00     0.012 A 
HETATM   22  C   UNL     1      43.316 -18.050   3.985  1.00  0.00     0.018 A 
HETATM   23  C   UNL     1      44.048 -19.054   4.630  1.00  0.00     0.037 A 
HETATM   24  C   UNL     1      44.498 -20.169   3.924  1.00  0.00     0.068 A 
HETATM   25  C   UNL     1      44.232 -20.261   2.559  1.00  0.00     0.037 A 
HETATM   26  C   UNL     1      43.498 -19.256   1.913  1.00  0.00     0.018 A 
BRANCH  24  27
HETATM   27  O   UNL     1      45.186 -21.084   4.672  1.00  0.00    -0.356 OA
HETATM   28  C   UNL     1      44.819 -22.449   4.514  1.00  0.00     0.210 C 
ENDBRANCH  24  27
ENDBRANCH   1  21
TORSDOF 4
ENDMDL
MODEL 7
REMARK VINA RESULT:      -7.6      7.259      9.662
REMARK  4 active torsions:
REMARK  status: ('A' for Active; 'I' for Inactive)
REMARK    1  A    between atoms: O_2  and  C_3 
REMARK    2  A    between atoms: C_6  and  C_7 
REMARK    3  A    between atoms: C_9  and  N_10 
REMARK       I    between atoms: N_10  and  C_11 
REMARK    4  A    between atoms: C_11  and  C_12 
ROOT
HETATM    1  C   UNL     1      43.026 -17.461   2.184  1.00  0.00     0.173 A 
HETATM    2  N   UNL     1      42.756 -16.981   0.982  1.00  0.00    -0.041 NA
HETATM    3  C   UNL     1      42.378 -15.685   1.215  1.00  0.00     0.748 A 
HETATM    4  N   UNL     1      42.398 -15.334   2.498  1.00  0.00     0.021 NA
HETATM    5  N   UNL     1      42.805 -16.459   3.089  1.00  0.00    -0.244 N 
HETATM    6  H   UNL     1      42.935 -16.467   4.093  1.00  0.00     0.191 HD
ENDROOT
BRANCH   3   7
HETATM    7  N   UNL     1      42.044 -14.919   0.134  1.00  0.00    -0.150 N 
HETATM    8  C   UNL     1      40.774 -14.484  -0.161  1.00  0.00     0.270 C 
HETATM    9  O   UNL     1      39.751 -14.739   0.466  1.00  0.00    -0.267 OA
HETATM   10  H   UNL     1      42.832 -14.722  -0.459  1.00  0.00     0.188 HD
BRANCH   8  11
HETATM   11  C   UNL     1      40.640 -13.633  -1.386  1.00  0.00     0.035 A 
HETATM   12  C   UNL     1      41.700 -12.884  -1.914  1.00  0.00     0.056 A 
HETATM   13  C   UNL     1      41.500 -12.112  -3.060  1.00  0.00     0.103 A 
HETATM   14  C   UNL     1      40.238 -12.042  -3.660  1.00  0.00     0.102 A 
HETATM   15  O   UNL     1      42.594 -11.431  -3.537  1.00  0.00    -0.346 OA
HETATM   16  O   UNL     1      39.969 -11.270  -4.760  1.00  0.00    -0.346 OA
HETATM   17  C   UNL     1      39.181 -12.782  -3.140  1.00  0.00     0.040 A 
HETATM   18  C   UNL     1      41.003 -10.306  -4.987  1.00  0.00     0.202 C 
HETATM   19  C   UNL     1      42.372 -10.955  -4.870  1.00  0.00     0.202 C 
HETATM   20  C   UNL     1      39.381 -13.572  -2.006  1.00  0.00     0.020 A 
ENDBRANCH   8  11
ENDBRANCH   3   7
BRANCH   1  21
HETATM   21  C   UNL     1      43.522 -18.795   2.519  1.00  0.00     0.012 A 
HETATM   22  C   UNL     1      44.179 -18.999   3.739  1.00  0.00     0.018 A 
HETATM   23  C   UNL     1      44.631 -20.272   4.104  1.00  0.00     0.037 A 
HETATM   24  C   UNL     1      44.437 -21.365   3.259  1.00  0.00     0.068 A 
HETATM   25  C   UNL     1      43.808 -21.168   2.031  1.00  0.00     0.037 A 
HETATM   26  C   UNL     1      43.355 -19.893   1.664  1.00  0.00     0.018 A 
BRANCH  24  27
HETATM   27  O   UNL     1      44.909 -22.554   3.739  1.00  0.00    -0.356 OA
HETATM   28  C   UNL     1      45.150 -22.633   5.139  1.00  0.00     0.210 C 
ENDBRANCH  24  27
ENDBRANCH   1  21
TORSDOF 4
ENDMDL
MODEL 8
REMARK VINA RESULT:      -7.6      3.596      4.505
REMARK  4 active torsions:
REMARK  status: ('A' for Active; 'I' for Inactive)
REMARK    1  A    between atoms: O_2  and  C_3 
REMARK    2  A    between atoms: C_6  and  C_7 
REMARK    3  A    between atoms: C_9  and  N_10 
REMARK       I    between atoms: N_10  and  C_11 
REMARK    4  A    between atoms: C_11  and  C_12 
ROOT
HETATM    1  C   UNL     1      43.770 -17.145   5.540  1.00  0.00     0.173 A 
HETATM    2  N   UNL     1      42.822 -16.257   5.294  1.00  0.00    -0.041 NA
HETATM    3  C   UNL     1      43.030 -15.277   6.228  1.00  0.00     0.748 A 
HETATM    4  N   UNL     1      44.056 -15.509   7.043  1.00  0.00     0.021 NA
HETATM    5  N   UNL     1      44.506 -16.683   6.597  1.00  0.00    -0.244 N 
HETATM    6  H   UNL     1      45.321 -17.094   7.035  1.00  0.00     0.191 HD
ENDROOT
BRANCH   3   7
HETATM    7  N   UNL     1      42.190 -14.199   6.211  1.00  0.00    -0.150 N 
HETATM    8  C   UNL     1      42.273 -13.151   5.326  1.00  0.00     0.270 C 
HETATM    9  O   UNL     1      43.119 -12.998   4.452  1.00  0.00    -0.267 OA
HETATM   10  H   UNL     1      41.504 -14.231   6.946  1.00  0.00     0.188 HD
BRANCH   8  11
HETATM   11  C   UNL     1      41.231 -12.084   5.474  1.00  0.00     0.035 A 
HETATM   12  C   UNL     1      40.429 -11.649   4.411  1.00  0.00     0.056 A 
HETATM   13  C   UNL     1      39.479 -10.648   4.623  1.00  0.00     0.103 A 
HETATM   14  C   UNL     1      39.351 -10.043   5.878  1.00  0.00     0.102 A 
HETATM   15  O   UNL     1      38.709 -10.297   3.541  1.00  0.00    -0.346 OA
HETATM   16  O   UNL     1      38.467  -9.028   6.138  1.00  0.00    -0.346 OA
HETATM   17  C   UNL     1      40.145 -10.469   6.937  1.00  0.00     0.040 A 
HETATM   18  C   UNL     1      37.972  -8.444   4.928  1.00  0.00     0.202 C 
HETATM   19  C   UNL     1      37.568  -9.526   3.940  1.00  0.00     0.202 C 
HETATM   20  C   UNL     1      41.083 -11.484   6.735  1.00  0.00     0.020 A 
ENDBRANCH   8  11
ENDBRANCH   3   7
BRANCH   1  21
HETATM   21  C   UNL     1      44.047 -18.379   4.807  1.00  0.00     0.012 A 
HETATM   22  C   UNL     1      43.683 -18.476   3.458  1.00  0.00     0.018 A 
HETATM   23  C   UNL     1      43.971 -19.630   2.720  1.00  0.00     0.037 A 
HETATM   24  C   UNL     1      44.624 -20.709   3.314  1.00  0.00     0.068 A 
HETATM   25  C   UNL     1      44.966 -20.635   4.663  1.00  0.00     0.037 A 
HETATM   26  C   UNL     1      44.680 -19.480   5.403  1.00  0.00     0.018 A 
BRANCH  24  27
HETATM   27  O   UNL     1      44.860 -21.768   2.482  1.00  0.00    -0.356 OA
HETATM   28  C   UNL     1      43.944 -21.960   1.411  1.00  0.00     0.210 C 
ENDBRANCH  24  27
ENDBRANCH   1  21
TORSDOF 4
ENDMDL
MODEL 9
REMARK VINA RESULT:      -7.5      7.013     10.349
REMARK  4 active torsions:
REMARK  status: ('A' for Active; 'I' for Inactive)
REMARK    1  A    between atoms: O_2  and  C_3 
REMARK    2  A    between atoms: C_6  and  C_7 
REMARK    3  A    between atoms: C_9  and  N_10 
REMARK       I    between atoms: N_10  and  C_11 
REMARK    4  A    between atoms: C_11  and  C_12 
ROOT
HETATM    1  C   UNL     1      40.787 -14.444  -0.523  1.00  0.00     0.173 A 
HETATM    2  N   UNL     1      41.542 -15.503  -0.289  1.00  0.00    -0.041 NA
HETATM    3  C   UNL     1      41.098 -15.970   0.920  1.00  0.00     0.748 A 
HETATM    4  N   UNL     1      40.107 -15.258   1.449  1.00  0.00     0.021 NA
HETATM    5  N   UNL     1      39.928 -14.305   0.532  1.00  0.00    -0.244 N 
HETATM    6  H   UNL     1      39.196 -13.620   0.674  1.00  0.00     0.191 HD
ENDROOT
BRANCH   3   7
HETATM    7  N   UNL     1      41.697 -17.090   1.424  1.00  0.00    -0.150 N 
HETATM    8  C   UNL     1      42.852 -17.097   2.170  1.00  0.00     0.270 C 
HETATM    9  O   UNL     1      43.536 -16.123   2.466  1.00  0.00    -0.267 OA
HETATM   10  H   UNL     1      41.217 -17.935   1.166  1.00  0.00     0.188 HD
BRANCH   8  11
HETATM   11  C   UNL     1      43.319 -18.439   2.642  1.00  0.00     0.035 A 
HETATM   12  C   UNL     1      43.646 -18.707   3.978  1.00  0.00     0.056 A 
HETATM   13  C   UNL     1      44.077 -19.984   4.345  1.00  0.00     0.103 A 
HETATM   14  C   UNL     1      44.230 -20.986   3.382  1.00  0.00     0.102 A 
HETATM   15  O   UNL     1      44.347 -20.178   5.677  1.00  0.00    -0.346 OA
HETATM   16  O   UNL     1      44.689 -22.245   3.671  1.00  0.00    -0.346 OA
HETATM   17  C   UNL     1      43.910 -20.727   2.053  1.00  0.00     0.040 A 
HETATM   18  C   UNL     1      45.309 -22.291   4.962  1.00  0.00     0.202 C 
HETATM   19  C   UNL     1      44.451 -21.573   5.991  1.00  0.00     0.202 C 
HETATM   20  C   UNL     1      43.459 -19.458   1.685  1.00  0.00     0.020 A 
ENDBRANCH   8  11
ENDBRANCH   3   7
BRANCH   1  21
HETATM   21  C   UNL     1      40.801 -13.584  -1.706  1.00  0.00     0.012 A 
HETATM   22  C   UNL     1      39.606 -13.012  -2.158  1.00  0.00     0.018 A 
HETATM   23  C   UNL     1      39.595 -12.154  -3.263  1.00  0.00     0.037 A 
HETATM   24  C   UNL     1      40.776 -11.852  -3.940  1.00  0.00     0.068 A 
HETATM   25  C   UNL     1      41.969 -12.436  -3.516  1.00  0.00     0.037 A 
HETATM   26  C   UNL     1      41.980 -13.295  -2.408  1.00  0.00     0.018 A 
BRANCH  24  27
HETATM   27  O   UNL     1      40.633 -10.990  -4.991  1.00  0.00    -0.356 OA
HETATM   28  C   UNL     1      40.909  -9.618  -4.739  1.00  0.00     0.210 C 
ENDBRANCH  24  27
ENDBRANCH   1  21
TORSDOF 4
ENDMDL
MODEL 10
REMARK VINA RESULT:      -7.4      2.588      3.255
REMARK  4 active torsions:
REMARK  status: ('A' for Active; 'I' for Inactive)
REMARK    1  A    between atoms: O_2  and  C_3 
REMARK    2  A    between atoms: C_6  and  C_7 
REMARK    3  A    between atoms: C_9  and  N_10 
REMARK       I    between atoms: N_10  and  C_11 
REMARK    4  A    between atoms: C_11  and  C_12 
ROOT
HETATM    1  C   UNL     1      41.477 -16.028   4.241  1.00  0.00     0.173 A 
HETATM    2  N   UNL     1      41.694 -15.252   5.288  1.00  0.00    -0.041 NA
HETATM    3  C   UNL     1      40.664 -14.349   5.255  1.00  0.00     0.748 A 
HETATM    4  N   UNL     1      39.819 -14.523   4.243  1.00  0.00     0.021 NA
HETATM    5  N   UNL     1      40.345 -15.578   3.618  1.00  0.00    -0.244 N 
HETATM    6  H   UNL     1      39.874 -15.950   2.803  1.00  0.00     0.191 HD
ENDROOT
BRANCH   3   7
HETATM    7  N   UNL     1      40.618 -13.407   6.244  1.00  0.00    -0.150 N 
HETATM    8  C   UNL     1      41.063 -12.113   6.120  1.00  0.00     0.270 C 
HETATM    9  O   UNL     1      41.598 -11.616   5.135  1.00  0.00    -0.267 OA
HETATM   10  H   UNL     1      40.243 -13.767   7.105  1.00  0.00     0.188 HD
BRANCH   8  11
HETATM   11  C   UNL     1      40.892 -11.242   7.327  1.00  0.00     0.035 A 
HETATM   12  C   UNL     1      39.641 -10.951   7.886  1.00  0.00     0.056 A 
HETATM   13  C   UNL     1      39.558 -10.129   9.012  1.00  0.00     0.103 A 
HETATM   14  C   UNL     1      40.711  -9.555   9.560  1.00  0.00     0.102 A 
HETATM   15  O   UNL     1      38.301  -9.916   9.523  1.00  0.00    -0.346 OA
HETATM   16  O   UNL     1      40.691  -8.707  10.637  1.00  0.00    -0.346 OA
HETATM   17  C   UNL     1      41.956  -9.837   9.008  1.00  0.00     0.040 A 
HETATM   18  C   UNL     1      39.370  -8.217  10.891  1.00  0.00     0.202 C 
HETATM   19  C   UNL     1      38.361  -9.353  10.840  1.00  0.00     0.202 C 
HETATM   20  C   UNL     1      42.046 -10.675   7.895  1.00  0.00     0.020 A 
ENDBRANCH   8  11
ENDBRANCH   3   7
BRANCH   1  21
HETATM   21  C   UNL     1      42.251 -17.196   3.822  1.00  0.00     0.012 A 
HETATM   22  C   UNL     1      43.093 -17.832   4.743  1.00  0.00     0.018 A 
HETATM   23  C   UNL     1      43.816 -18.975   4.383  1.00  0.00     0.037 A 
HETATM   24  C   UNL     1      43.714 -19.503   3.096  1.00  0.00     0.068 A 
HETATM   25  C   UNL     1      42.900 -18.864   2.163  1.00  0.00     0.037 A 
HETATM   26  C   UNL     1      42.175 -17.720   2.523  1.00  0.00     0.018 A 
BRANCH  24  27
HETATM   27  O   UNL     1      44.457 -20.630   2.877  1.00  0.00    -0.356 OA
HETATM   28  C   UNL     1      44.846 -21.376   4.023  1.00  0.00     0.210 C 
ENDBRANCH  24  27
ENDBRANCH   1  21
TORSDOF 4
ENDMDL
