MODEL 1
REMARK VINA RESULT:      -8.2      0.000      0.000
REMARK  8 active torsions:
REMARK  status: ('A' for Active; 'I' for Inactive)
REMARK    1  A    between atoms: O_2  and  C_3 
REMARK    2  A    between atoms: C_6  and  C_7 
REMARK    3  A    between atoms: C_7  and  O_8 
REMARK    4  A    between atoms: C_7  and  C_9 
REMARK    5  A    between atoms: C_9  and  N_10 
REMARK    6  A    between atoms: C_11  and  N_12 
REMARK    7  A    between atoms: N_13  and  C_14 
REMARK    8  A    between atoms: C_14  and  C_15 
ROOT
HETATM    1  N   UNL     1      41.634 -14.845   3.785  1.00  0.00    -0.178 N 
HETATM    2  C   UNL     1      41.212 -16.105   3.829  1.00  0.00     0.681 A 
HETATM    3  N   UNL     1      41.921 -16.783   4.721  1.00  0.00    -0.177 N 
HETATM    4  C   UNL     1      42.790 -15.910   5.368  1.00  0.00     0.079 A 
HETATM    5  C   UNL     1      42.601 -14.661   4.772  1.00  0.00     0.079 A 
HETATM    6  C   UNL     1      43.706 -16.112   6.398  1.00  0.00     0.032 A 
HETATM    7  C   UNL     1      44.437 -14.986   6.801  1.00  0.00     0.002 A 
HETATM    8  C   UNL     1      44.251 -13.728   6.196  1.00  0.00     0.002 A 
HETATM    9  C   UNL     1      43.323 -13.536   5.162  1.00  0.00     0.032 A 
ENDROOT
BRANCH   1  10
HETATM   10  C   UNL     1      41.216 -13.826   2.812  1.00  0.00     0.184 C 
BRANCH  10  11
HETATM   11  C   UNL     1      42.259 -13.558   1.700  1.00  0.00     0.170 C 
BRANCH  11  12
HETATM   12  C   UNL     1      41.788 -14.031   0.341  1.00  0.00    -0.028 A 
HETATM   13  C   UNL     1      41.689 -13.117  -0.716  1.00  0.00     0.012 A 
HETATM   14  C   UNL     1      41.335 -13.549  -1.995  1.00  0.00     0.037 A 
HETATM   15  C   UNL     1      41.067 -14.896  -2.243  1.00  0.00     0.068 A 
HETATM   16  C   UNL     1      41.142 -15.811  -1.194  1.00  0.00     0.037 A 
HETATM   17  C   UNL     1      41.500 -15.383   0.091  1.00  0.00     0.012 A 
BRANCH  15  18
HETATM   18  O   UNL     1      40.757 -15.180  -3.543  1.00  0.00    -0.356 OA
HETATM   19  C   UNL     1      39.406 -15.521  -3.829  1.00  0.00     0.210 C 
ENDBRANCH  15  18
ENDBRANCH  11  12
BRANCH  11  20
HETATM   20  O   UNL     1      42.551 -12.161   1.653  1.00  0.00    -0.389 OA
HETATM   21  H   UNL     1      42.197 -11.821   0.809  1.00  0.00     0.210 HD
ENDBRANCH  11  20
ENDBRANCH  10  11
ENDBRANCH   1  10
BRANCH   2  22
HETATM   22  N   UNL     1      40.220 -16.615   3.100  1.00  0.00    -0.234 N 
HETATM   23  H   UNL     1      40.235 -17.571   2.785  1.00  0.00     0.174 HD
HETATM   24  H   UNL     1      39.442 -16.040   2.812  1.00  0.00     0.174 HD
ENDBRANCH   2  22
BRANCH   3  25
HETATM   25  C   UNL     1      41.870 -18.224   4.932  1.00  0.00     0.186 C 
BRANCH  25  26
HETATM   26  C   UNL     1      42.926 -18.958   4.142  1.00  0.00    -0.039 A 
HETATM   27  C   UNL     1      42.906 -19.092   2.745  1.00  0.00     0.009 A 
HETATM   28  C   UNL     1      43.902 -19.811   2.079  1.00  0.00     0.001 A 
HETATM   29  C   UNL     1      44.934 -20.406   2.799  1.00  0.00     0.000 A 
HETATM   30  C   UNL     1      44.974 -20.282   4.184  1.00  0.00     0.001 A 
HETATM   31  C   UNL     1      43.980 -19.563   4.851  1.00  0.00     0.009 A 
ENDBRANCH  25  26
ENDBRANCH   3  25
TORSDOF 8
ENDMDL
MODEL 2
REMARK VINA RESULT:      -7.8      2.748      7.293
REMARK  8 active torsions:
REMARK  status: ('A' for Active; 'I' for Inactive)
REMARK    1  A    between atoms: O_2  and  C_3 
REMARK    2  A    between atoms: C_6  and  C_7 
REMARK    3  A    between atoms: C_7  and  O_8 
REMARK    4  A    between atoms: C_7  and  C_9 
REMARK    5  A    between atoms: C_9  and  N_10 
REMARK    6  A    between atoms: C_11  and  N_12 
REMARK    7  A    between atoms: N_13  and  C_14 
REMARK    8  A    between atoms: C_14  and  C_15 
ROOT
HETATM    1  N   UNL     1      41.116 -15.539   1.727  1.00  0.00    -0.178 N 
HETATM    2  C   UNL     1      41.521 -15.448   0.464  1.00  0.00     0.681 A 
HETATM    3  N   UNL     1      41.093 -14.308  -0.061  1.00  0.00    -0.177 N 
HETATM    4  C   UNL     1      40.454 -13.564   0.927  1.00  0.00     0.079 A 
HETATM    5  C   UNL     1      40.475 -14.353   2.080  1.00  0.00     0.079 A 
HETATM    6  C   UNL     1      39.872 -12.299   0.900  1.00  0.00     0.032 A 
HETATM    7  C   UNL     1      39.298 -11.861   2.101  1.00  0.00     0.002 A 
HETATM    8  C   UNL     1      39.313 -12.657   3.262  1.00  0.00     0.002 A 
HETATM    9  C   UNL     1      39.906 -13.928   3.278  1.00  0.00     0.032 A 
ENDROOT
BRANCH   1  10
HETATM   10  C   UNL     1      41.245 -16.719   2.594  1.00  0.00     0.184 C 
BRANCH  10  11
HETATM   11  C   UNL     1      42.622 -16.834   3.293  1.00  0.00     0.170 C 
BRANCH  11  12
HETATM   12  C   UNL     1      43.214 -18.223   3.174  1.00  0.00    -0.028 A 
HETATM   13  C   UNL     1      43.938 -18.762   4.246  1.00  0.00     0.012 A 
HETATM   14  C   UNL     1      44.421 -20.069   4.187  1.00  0.00     0.037 A 
HETATM   15  C   UNL     1      44.199 -20.861   3.060  1.00  0.00     0.068 A 
HETATM   16  C   UNL     1      43.498 -20.328   1.979  1.00  0.00     0.037 A 
HETATM   17  C   UNL     1      43.008 -19.017   2.034  1.00  0.00     0.012 A 
BRANCH  15  18
HETATM   18  O   UNL     1      44.707 -22.127   3.149  1.00  0.00    -0.356 OA
HETATM   19  C   UNL     1      44.802 -22.699   4.448  1.00  0.00     0.210 C 
ENDBRANCH  15  18
ENDBRANCH  11  12
BRANCH  11  20
HETATM   20  O   UNL     1      43.519 -15.875   2.733  1.00  0.00    -0.389 OA
HETATM   21  H   UNL     1      44.385 -16.003   3.165  1.00  0.00     0.210 HD
ENDBRANCH  11  20
ENDBRANCH  10  11
ENDBRANCH   1  10
BRANCH   2  22
HETATM   22  N   UNL     1      42.257 -16.352  -0.180  1.00  0.00    -0.234 N 
HETATM   23  H   UNL     1      43.239 -16.466   0.013  1.00  0.00     0.174 HD
HETATM   24  H   UNL     1      41.855 -16.923  -0.908  1.00  0.00     0.174 HD
ENDBRANCH   2  22
BRANCH   3  25
HETATM   25  C   UNL     1      41.189 -13.929  -1.465  1.00  0.00     0.186 C 
BRANCH  25  26
HETATM   26  C   UNL     1      40.102 -14.554  -2.306  1.00  0.00    -0.039 A 
HETATM   27  C   UNL     1      40.305 -15.652  -3.155  1.00  0.00     0.009 A 
HETATM   28  C   UNL     1      39.259 -16.163  -3.928  1.00  0.00     0.001 A 
HETATM   29  C   UNL     1      37.995 -15.586  -3.863  1.00  0.00     0.000 A 
HETATM   30  C   UNL     1      37.772 -14.498  -3.024  1.00  0.00     0.001 A 
HETATM   31  C   UNL     1      38.816 -13.986  -2.250  1.00  0.00     0.009 A 
ENDBRANCH  25  26
ENDBRANCH   3  25
TORSDOF 8
ENDMDL
MODEL 3
REMARK VINA RESULT:      -7.7      2.010      2.662
REMARK  8 active torsions:
REMARK  status: ('A' for Active; 'I' for Inactive)
REMARK    1  A    between atoms: O_2  and  C_3 
REMARK    2  A    between atoms: C_6  and  C_7 
REMARK    3  A    between atoms: C_7  and  O_8 
REMARK    4  A    between atoms: C_7  and  C_9 
REMARK    5  A    between atoms: C_9  and  N_10 
REMARK    6  A    between atoms: C_11  and  N_12 
REMARK    7  A    between atoms: N_13  and  C_14 
REMARK    8  A    between atoms: C_14  and  C_15 
ROOT
HETATM    1  N   UNL     1      40.957 -16.537   2.870  1.00  0.00    -0.178 N 
HETATM    2  C   UNL     1      41.857 -17.204   2.154  1.00  0.00     0.681 A 
HETATM    3  N   UNL     1      42.894 -17.518   2.919  1.00  0.00    -0.177 N 
HETATM    4  C   UNL     1      42.628 -17.125   4.227  1.00  0.00     0.079 A 
HETATM    5  C   UNL     1      41.379 -16.500   4.198  1.00  0.00     0.079 A 
HETATM    6  C   UNL     1      43.366 -17.259   5.400  1.00  0.00     0.032 A 
HETATM    7  C   UNL     1      42.785 -16.723   6.557  1.00  0.00     0.002 A 
HETATM    8  C   UNL     1      41.529 -16.088   6.528  1.00  0.00     0.002 A 
HETATM    9  C   UNL     1      40.793 -15.962   5.341  1.00  0.00     0.032 A 
ENDROOT
BRANCH   1  10
HETATM   10  C   UNL     1      39.753 -15.876   2.348  1.00  0.00     0.184 C 
BRANCH  10  11
HETATM   11  C   UNL     1      40.008 -14.447   1.810  1.00  0.00     0.170 C 
BRANCH  11  12
HETATM   12  C   UNL     1      39.566 -14.286   0.370  1.00  0.00    -0.028 A 
HETATM   13  C   UNL     1      40.464 -14.573  -0.666  1.00  0.00     0.012 A 
HETATM   14  C   UNL     1      40.052 -14.509  -1.998  1.00  0.00     0.037 A 
HETATM   15  C   UNL     1      38.743 -14.152  -2.322  1.00  0.00     0.068 A 
HETATM   16  C   UNL     1      37.847 -13.843  -1.299  1.00  0.00     0.037 A 
HETATM   17  C   UNL     1      38.255 -13.909   0.039  1.00  0.00     0.012 A 
BRANCH  15  18
HETATM   18  O   UNL     1      38.471 -14.154  -3.661  1.00  0.00    -0.356 OA
HETATM   19  C   UNL     1      37.169 -14.566  -4.060  1.00  0.00     0.210 C 
ENDBRANCH  15  18
ENDBRANCH  11  12
BRANCH  11  20
HETATM   20  O   UNL     1      39.326 -13.503   2.635  1.00  0.00    -0.389 OA
HETATM   21  H   UNL     1      38.371 -13.608   2.465  1.00  0.00     0.210 HD
ENDBRANCH  11  20
ENDBRANCH  10  11
ENDBRANCH   1  10
BRANCH   2  22
HETATM   22  N   UNL     1      41.737 -17.525   0.866  1.00  0.00    -0.234 N 
HETATM   23  H   UNL     1      41.849 -16.836   0.139  1.00  0.00     0.174 HD
HETATM   24  H   UNL     1      41.494 -18.463   0.587  1.00  0.00     0.174 HD
ENDBRANCH   2  22
BRANCH   3  25
HETATM   25  C   UNL     1      44.148 -18.097   2.456  1.00  0.00     0.186 C 
BRANCH  25  26
HETATM   26  C   UNL     1      44.229 -19.581   2.721  1.00  0.00    -0.039 A 
HETATM   27  C   UNL     1      44.741 -20.138   3.903  1.00  0.00     0.009 A 
HETATM   28  C   UNL     1      44.813 -21.523   4.070  1.00  0.00     0.001 A 
HETATM   29  C   UNL     1      44.372 -22.374   3.060  1.00  0.00     0.000 A 
HETATM   30  C   UNL     1      43.857 -21.842   1.882  1.00  0.00     0.001 A 
HETATM   31  C   UNL     1      43.784 -20.457   1.713  1.00  0.00     0.009 A 
ENDBRANCH  25  26
ENDBRANCH   3  25
TORSDOF 8
ENDMDL
MODEL 4
REMARK VINA RESULT:      -7.7      2.594      4.759
REMARK  8 active torsions:
REMARK  status: ('A' for Active; 'I' for Inactive)
REMARK    1  A    between atoms: O_2  and  C_3 
REMARK    2  A    between atoms: C_6  and  C_7 
REMARK    3  A    between atoms: C_7  and  O_8 
REMARK    4  A    between atoms: C_7  and  C_9 
REMARK    5  A    between atoms: C_9  and  N_10 
REMARK    6  A    between atoms: C_11  and  N_12 
REMARK    7  A    between atoms: N_13  and  C_14 
REMARK    8  A    between atoms: C_14  and  C_15 
ROOT
HETATM    1  N   UNL     1      40.987 -16.499   2.860  1.00  0.00    -0.178 N 
HETATM    2  C   UNL     1      41.962 -17.096   2.180  1.00  0.00     0.681 A 
HETATM    3  N   UNL     1      42.888 -17.535   3.021  1.00  0.00    -0.177 N 
HETATM    4  C   UNL     1      42.464 -17.303   4.326  1.00  0.00     0.079 A 
HETATM    5  C   UNL     1      41.237 -16.642   4.224  1.00  0.00     0.079 A 
HETATM    6  C   UNL     1      43.045 -17.608   5.555  1.00  0.00     0.032 A 
HETATM    7  C   UNL     1      42.329 -17.205   6.690  1.00  0.00     0.002 A 
HETATM    8  C   UNL     1      41.095 -16.535   6.588  1.00  0.00     0.002 A 
HETATM    9  C   UNL     1      40.518 -16.237   5.344  1.00  0.00     0.032 A 
ENDROOT
BRANCH   1  10
HETATM   10  C   UNL     1      39.869 -15.741   2.282  1.00  0.00     0.184 C 
BRANCH  10  11
HETATM   11  C   UNL     1      40.227 -14.281   1.910  1.00  0.00     0.170 C 
BRANCH  11  12
HETATM   12  C   UNL     1      40.543 -13.437   3.128  1.00  0.00    -0.028 A 
HETATM   13  C   UNL     1      39.499 -12.980   3.944  1.00  0.00     0.012 A 
HETATM   14  C   UNL     1      39.774 -12.271   5.113  1.00  0.00     0.037 A 
HETATM   15  C   UNL     1      41.090 -11.998   5.488  1.00  0.00     0.068 A 
HETATM   16  C   UNL     1      42.136 -12.430   4.672  1.00  0.00     0.037 A 
HETATM   17  C   UNL     1      41.865 -13.145   3.499  1.00  0.00     0.012 A 
BRANCH  15  18
HETATM   18  O   UNL     1      41.213 -11.318   6.666  1.00  0.00    -0.356 OA
HETATM   19  C   UNL     1      40.056 -11.229   7.489  1.00  0.00     0.210 C 
ENDBRANCH  15  18
ENDBRANCH  11  12
BRANCH  11  20
HETATM   20  O   UNL     1      41.340 -14.280   1.018  1.00  0.00    -0.389 OA
HETATM   21  H   UNL     1      42.127 -14.030   1.538  1.00  0.00     0.210 HD
ENDBRANCH  11  20
ENDBRANCH  10  11
ENDBRANCH   1  10
BRANCH   2  22
HETATM   22  N   UNL     1      42.003 -17.246   0.857  1.00  0.00    -0.234 N 
HETATM   23  H   UNL     1      42.811 -16.974   0.321  1.00  0.00     0.174 HD
HETATM   24  H   UNL     1      41.206 -17.604   0.352  1.00  0.00     0.174 HD
ENDBRANCH   2  22
BRANCH   3  25
HETATM   25  C   UNL     1      44.184 -18.088   2.647  1.00  0.00     0.186 C 
BRANCH  25  26
HETATM   26  C   UNL     1      44.246 -19.584   2.834  1.00  0.00    -0.039 A 
HETATM   27  C   UNL     1      44.813 -20.210   3.955  1.00  0.00     0.009 A 
HETATM   28  C   UNL     1      44.863 -21.603   4.050  1.00  0.00     0.001 A 
HETATM   29  C   UNL     1      44.346 -22.392   3.027  1.00  0.00     0.000 A 
HETATM   30  C   UNL     1      43.776 -21.792   1.909  1.00  0.00     0.001 A 
HETATM   31  C   UNL     1      43.725 -20.400   1.813  1.00  0.00     0.009 A 
ENDBRANCH  25  26
ENDBRANCH   3  25
TORSDOF 8
ENDMDL
MODEL 5
REMARK VINA RESULT:      -7.6      1.980      2.716
REMARK  8 active torsions:
REMARK  status: ('A' for Active; 'I' for Inactive)
REMARK    1  A    between atoms: O_2  and  C_3 
REMARK    2  A    between atoms: C_6  and  C_7 
REMARK    3  A    between atoms: C_7  and  O_8 
REMARK    4  A    between atoms: C_7  and  C_9 
REMARK    5  A    between atoms: C_9  and  N_10 
REMARK    6  A    between atoms: C_11  and  N_12 
REMARK    7  A    between atoms: N_13  and  C_14 
REMARK    8  A    between atoms: C_14  and  C_15 
ROOT
HETATM    1  N   UNL     1      40.340 -15.896   2.453  1.00  0.00    -0.178 N 
HETATM    2  C   UNL     1      41.249 -16.615   1.803  1.00  0.00     0.681 A 
HETATM    3  N   UNL     1      42.379 -16.639   2.497  1.00  0.00    -0.177 N 
HETATM    4  C   UNL     1      42.181 -15.984   3.709  1.00  0.00     0.079 A 
HETATM    5  C   UNL     1      40.867 -15.511   3.684  1.00  0.00     0.079 A 
HETATM    6  C   UNL     1      43.029 -15.769   4.793  1.00  0.00     0.032 A 
HETATM    7  C   UNL     1      42.489 -15.042   5.862  1.00  0.00     0.002 A 
HETATM    8  C   UNL     1      41.166 -14.561   5.836  1.00  0.00     0.002 A 
HETATM    9  C   UNL     1      40.320 -14.786   4.740  1.00  0.00     0.032 A 
ENDROOT
BRANCH   1  10
HETATM   10  C   UNL     1      39.023 -15.497   1.937  1.00  0.00     0.184 C 
BRANCH  10  11
HETATM   11  C   UNL     1      38.935 -14.005   1.530  1.00  0.00     0.170 C 
BRANCH  11  12
HETATM   12  C   UNL     1      39.902 -13.652   0.420  1.00  0.00    -0.028 A 
HETATM   13  C   UNL     1      40.999 -12.825   0.693  1.00  0.00     0.012 A 
HETATM   14  C   UNL     1      41.945 -12.554  -0.296  1.00  0.00     0.037 A 
HETATM   15  C   UNL     1      41.813 -13.096  -1.575  1.00  0.00     0.068 A 
HETATM   16  C   UNL     1      40.713 -13.904  -1.864  1.00  0.00     0.037 A 
HETATM   17  C   UNL     1      39.763 -14.180  -0.874  1.00  0.00     0.012 A 
BRANCH  15  18
HETATM   18  O   UNL     1      42.823 -12.768  -2.435  1.00  0.00    -0.356 OA
HETATM   19  C   UNL     1      42.484 -11.964  -3.559  1.00  0.00     0.210 C 
ENDBRANCH  15  18
ENDBRANCH  11  12
BRANCH  11  20
HETATM   20  O   UNL     1      37.600 -13.704   1.126  1.00  0.00    -0.389 OA
HETATM   21  H   UNL     1      37.256 -14.489   0.659  1.00  0.00     0.210 HD
ENDBRANCH  11  20
ENDBRANCH  10  11
ENDBRANCH   1  10
BRANCH   2  22
HETATM   22  N   UNL     1      41.059 -17.234   0.639  1.00  0.00    -0.234 N 
HETATM   23  H   UNL     1      41.749 -17.199  -0.095  1.00  0.00     0.174 HD
HETATM   24  H   UNL     1      40.199 -17.725   0.448  1.00  0.00     0.174 HD
ENDBRANCH   2  22
BRANCH   3  25
HETATM   25  C   UNL     1      43.651 -17.180   2.035  1.00  0.00     0.186 C 
BRANCH  25  26
HETATM   26  C   UNL     1      43.869 -18.603   2.488  1.00  0.00    -0.039 A 
HETATM   27  C   UNL     1      44.400 -18.952   3.740  1.00  0.00     0.009 A 
HETATM   28  C   UNL     1      44.603 -20.290   4.084  1.00  0.00     0.001 A 
HETATM   29  C   UNL     1      44.278 -21.301   3.184  1.00  0.00     0.000 A 
HETATM   30  C   UNL     1      43.747 -20.977   1.940  1.00  0.00     0.001 A 
HETATM   31  C   UNL     1      43.543 -19.639   1.594  1.00  0.00     0.009 A 
ENDBRANCH  25  26
ENDBRANCH   3  25
TORSDOF 8
ENDMDL
MODEL 6
REMARK VINA RESULT:      -7.6      2.966      7.591
REMARK  8 active torsions:
REMARK  status: ('A' for Active; 'I' for Inactive)
REMARK    1  A    between atoms: O_2  and  C_3 
REMARK    2  A    between atoms: C_6  and  C_7 
REMARK    3  A    between atoms: C_7  and  O_8 
REMARK    4  A    between atoms: C_7  and  C_9 
REMARK    5  A    between atoms: C_9  and  N_10 
REMARK    6  A    between atoms: C_11  and  N_12 
REMARK    7  A    between atoms: N_13  and  C_14 
REMARK    8  A    between atoms: C_14  and  C_15 
ROOT
HETATM    1  N   UNL     1      41.086 -15.791   1.263  1.00  0.00    -0.178 N 
HETATM    2  C   UNL     1      40.955 -15.280   0.044  1.00  0.00     0.681 A 
HETATM    3  N   UNL     1      40.315 -14.120   0.112  1.00  0.00    -0.177 N 
HETATM    4  C   UNL     1      40.095 -13.801   1.449  1.00  0.00     0.079 A 
HETATM    5  C   UNL     1      40.597 -14.873   2.191  1.00  0.00     0.079 A 
HETATM    6  C   UNL     1      39.507 -12.690   2.049  1.00  0.00     0.032 A 
HETATM    7  C   UNL     1      39.440 -12.712   3.449  1.00  0.00     0.002 A 
HETATM    8  C   UNL     1      39.941 -13.794   4.197  1.00  0.00     0.002 A 
HETATM    9  C   UNL     1      40.535 -14.905   3.582  1.00  0.00     0.032 A 
ENDROOT
BRANCH   1  10
HETATM   10  C   UNL     1      41.588 -17.134   1.589  1.00  0.00     0.184 C 
BRANCH  10  11
HETATM   11  C   UNL     1      43.131 -17.221   1.676  1.00  0.00     0.170 C 
BRANCH  11  12
HETATM   12  C   UNL     1      43.594 -18.302   2.631  1.00  0.00    -0.028 A 
HETATM   13  C   UNL     1      43.973 -19.554   2.129  1.00  0.00     0.012 A 
HETATM   14  C   UNL     1      44.479 -20.535   2.983  1.00  0.00     0.037 A 
HETATM   15  C   UNL     1      44.610 -20.290   4.351  1.00  0.00     0.068 A 
HETATM   16  C   UNL     1      44.215 -19.055   4.864  1.00  0.00     0.037 A 
HETATM   17  C   UNL     1      43.710 -18.066   4.010  1.00  0.00     0.012 A 
BRANCH  15  18
HETATM   18  O   UNL     1      45.141 -21.329   5.062  1.00  0.00    -0.356 OA
HETATM   19  C   UNL     1      44.727 -22.641   4.703  1.00  0.00     0.210 C 
ENDBRANCH  15  18
ENDBRANCH  11  12
BRANCH  11  20
HETATM   20  O   UNL     1      43.666 -17.461   0.375  1.00  0.00    -0.389 OA
HETATM   21  H   UNL     1      43.146 -18.186  -0.021  1.00  0.00     0.210 HD
ENDBRANCH  11  20
ENDBRANCH  10  11
ENDBRANCH   1  10
BRANCH   2  22
HETATM   22  N   UNL     1      41.406 -15.833  -1.081  1.00  0.00    -0.234 N 
HETATM   23  H   UNL     1      41.192 -16.788  -1.321  1.00  0.00     0.174 HD
HETATM   24  H   UNL     1      42.009 -15.319  -1.705  1.00  0.00     0.174 HD
ENDBRANCH   2  22
BRANCH   3  25
HETATM   25  C   UNL     1      39.835 -13.344  -1.024  1.00  0.00     0.186 C 
BRANCH  25  26
HETATM   26  C   UNL     1      40.874 -12.379  -1.542  1.00  0.00    -0.039 A 
HETATM   27  C   UNL     1      41.285 -11.228  -0.852  1.00  0.00     0.009 A 
HETATM   28  C   UNL     1      42.232 -10.361  -1.403  1.00  0.00     0.001 A 
HETATM   29  C   UNL     1      42.785 -10.632  -2.651  1.00  0.00     0.000 A 
HETATM   30  C   UNL     1      42.394 -11.771  -3.350  1.00  0.00     0.001 A 
HETATM   31  C   UNL     1      41.448 -12.638  -2.800  1.00  0.00     0.009 A 
ENDBRANCH  25  26
ENDBRANCH   3  25
TORSDOF 8
ENDMDL
MODEL 7
REMARK VINA RESULT:      -7.4      3.075      4.587
REMARK  8 active torsions:
REMARK  status: ('A' for Active; 'I' for Inactive)
REMARK    1  A    between atoms: O_2  and  C_3 
REMARK    2  A    between atoms: C_6  and  C_7 
REMARK    3  A    between atoms: C_7  and  O_8 
REMARK    4  A    between atoms: C_7  and  C_9 
REMARK    5  A    between atoms: C_9  and  N_10 
REMARK    6  A    between atoms: C_11  and  N_12 
REMARK    7  A    between atoms: N_13  and  C_14 
REMARK    8  A    between atoms: C_14  and  C_15 
ROOT
HETATM    1  N   UNL     1      41.593 -16.054   4.893  1.00  0.00    -0.178 N 
HETATM    2  C   UNL     1      42.605 -16.324   5.712  1.00  0.00     0.681 A 
HETATM    3  N   UNL     1      43.527 -17.025   5.065  1.00  0.00    -0.177 N 
HETATM    4  C   UNL     1      43.154 -17.144   3.730  1.00  0.00     0.079 A 
HETATM    5  C   UNL     1      41.912 -16.513   3.616  1.00  0.00     0.079 A 
HETATM    6  C   UNL     1      43.787 -17.742   2.643  1.00  0.00     0.032 A 
HETATM    7  C   UNL     1      43.101 -17.683   1.423  1.00  0.00     0.002 A 
HETATM    8  C   UNL     1      41.847 -17.052   1.309  1.00  0.00     0.002 A 
HETATM    9  C   UNL     1      41.221 -16.449   2.410  1.00  0.00     0.032 A 
ENDROOT
BRANCH   1  10
HETATM   10  C   UNL     1      40.312 -15.444   5.275  1.00  0.00     0.184 C 
BRANCH  10  11
HETATM   11  C   UNL     1      40.414 -13.939   5.624  1.00  0.00     0.170 C 
BRANCH  11  12
HETATM   12  C   UNL     1      39.746 -13.060   4.586  1.00  0.00    -0.028 A 
HETATM   13  C   UNL     1      39.674 -13.491   3.255  1.00  0.00     0.012 A 
HETATM   14  C   UNL     1      38.992 -12.734   2.302  1.00  0.00     0.037 A 
HETATM   15  C   UNL     1      38.376 -11.533   2.654  1.00  0.00     0.068 A 
HETATM   16  C   UNL     1      38.459 -11.084   3.972  1.00  0.00     0.037 A 
HETATM   17  C   UNL     1      39.140 -11.842   4.933  1.00  0.00     0.012 A 
BRANCH  15  18
HETATM   18  O   UNL     1      37.725 -10.909   1.628  1.00  0.00    -0.356 OA
HETATM   19  C   UNL     1      38.138 -11.231   0.305  1.00  0.00     0.210 C 
ENDBRANCH  15  18
ENDBRANCH  11  12
BRANCH  11  20
HETATM   20  O   UNL     1      39.827 -13.709   6.904  1.00  0.00    -0.389 OA
HETATM   21  H   UNL     1      38.931 -14.097   6.885  1.00  0.00     0.210 HD
ENDBRANCH  11  20
ENDBRANCH  10  11
ENDBRANCH   1  10
BRANCH   2  22
HETATM   22  N   UNL     1      42.695 -15.942   6.984  1.00  0.00    -0.234 N 
HETATM   23  H   UNL     1      42.002 -15.343   7.405  1.00  0.00     0.174 HD
HETATM   24  H   UNL     1      43.484 -16.213   7.552  1.00  0.00     0.174 HD
ENDBRANCH   2  22
BRANCH   3  25
HETATM   25  C   UNL     1      44.698 -17.650   5.667  1.00  0.00     0.186 C 
BRANCH  25  26
HETATM   26  C   UNL     1      44.546 -19.146   5.800  1.00  0.00    -0.039 A 
HETATM   27  C   UNL     1      45.071 -20.071   4.883  1.00  0.00     0.009 A 
HETATM   28  C   UNL     1      44.868 -21.442   5.052  1.00  0.00     0.001 A 
HETATM   29  C   UNL     1      44.138 -21.912   6.140  1.00  0.00     0.000 A 
HETATM   30  C   UNL     1      43.612 -21.013   7.063  1.00  0.00     0.001 A 
HETATM   31  C   UNL     1      43.815 -19.641   6.895  1.00  0.00     0.009 A 
ENDBRANCH  25  26
ENDBRANCH   3  25
TORSDOF 8
ENDMDL
MODEL 8
REMARK VINA RESULT:      -7.3      2.905      7.679
REMARK  8 active torsions:
REMARK  status: ('A' for Active; 'I' for Inactive)
REMARK    1  A    between atoms: O_2  and  C_3 
REMARK    2  A    between atoms: C_6  and  C_7 
REMARK    3  A    between atoms: C_7  and  O_8 
REMARK    4  A    between atoms: C_7  and  C_9 
REMARK    5  A    between atoms: C_9  and  N_10 
REMARK    6  A    between atoms: C_11  and  N_12 
REMARK    7  A    between atoms: N_13  and  C_14 
REMARK    8  A    between atoms: C_14  and  C_15 
ROOT
HETATM    1  N   UNL     1      41.323 -14.963   1.855  1.00  0.00    -0.178 N 
HETATM    2  C   UNL     1      41.502 -15.267   0.574  1.00  0.00     0.681 A 
HETATM    3  N   UNL     1      40.642 -14.584  -0.171  1.00  0.00    -0.177 N 
HETATM    4  C   UNL     1      39.924 -13.716   0.645  1.00  0.00     0.079 A 
HETATM    5  C   UNL     1      40.366 -13.954   1.949  1.00  0.00     0.079 A 
HETATM    6  C   UNL     1      38.944 -12.770   0.352  1.00  0.00     0.032 A 
HETATM    7  C   UNL     1      38.418 -12.071   1.447  1.00  0.00     0.002 A 
HETATM    8  C   UNL     1      38.860 -12.314   2.762  1.00  0.00     0.002 A 
HETATM    9  C   UNL     1      39.849 -13.267   3.044  1.00  0.00     0.032 A 
ENDROOT
BRANCH   1  10
HETATM   10  C   UNL     1      41.963 -15.629   2.999  1.00  0.00     0.184 C 
BRANCH  10  11
HETATM   11  C   UNL     1      41.393 -17.036   3.304  1.00  0.00     0.170 C 
BRANCH  11  12
HETATM   12  C   UNL     1      42.482 -18.071   3.492  1.00  0.00    -0.028 A 
HETATM   13  C   UNL     1      42.946 -18.363   4.781  1.00  0.00     0.012 A 
HETATM   14  C   UNL     1      43.890 -19.370   4.983  1.00  0.00     0.037 A 
HETATM   15  C   UNL     1      44.395 -20.099   3.905  1.00  0.00     0.068 A 
HETATM   16  C   UNL     1      43.956 -19.802   2.615  1.00  0.00     0.037 A 
HETATM   17  C   UNL     1      43.006 -18.794   2.408  1.00  0.00     0.012 A 
BRANCH  15  18
HETATM   18  O   UNL     1      45.293 -21.069   4.250  1.00  0.00    -0.356 OA
HETATM   19  C   UNL     1      44.898 -21.991   5.258  1.00  0.00     0.210 C 
ENDBRANCH  15  18
ENDBRANCH  11  12
BRANCH  11  20
HETATM   20  O   UNL     1      40.577 -16.972   4.474  1.00  0.00    -0.389 OA
HETATM   21  H   UNL     1      39.734 -17.415   4.261  1.00  0.00     0.210 HD
ENDBRANCH  11  20
ENDBRANCH  10  11
ENDBRANCH   1  10
BRANCH   2  22
HETATM   22  N   UNL     1      42.412 -16.116   0.099  1.00  0.00    -0.234 N 
HETATM   23  H   UNL     1      42.173 -17.066  -0.137  1.00  0.00     0.174 HD
HETATM   24  H   UNL     1      43.376 -15.838  -0.001  1.00  0.00     0.174 HD
ENDBRANCH   2  22
BRANCH   3  25
HETATM   25  C   UNL     1      40.416 -14.772  -1.598  1.00  0.00     0.186 C 
BRANCH  25  26
HETATM   26  C   UNL     1      40.922 -13.610  -2.419  1.00  0.00    -0.039 A 
HETATM   27  C   UNL     1      42.240 -13.132  -2.368  1.00  0.00     0.009 A 
HETATM   28  C   UNL     1      42.633 -12.032  -3.134  1.00  0.00     0.001 A 
HETATM   29  C   UNL     1      41.716 -11.393  -3.964  1.00  0.00     0.000 A 
HETATM   30  C   UNL     1      40.405 -11.854  -4.032  1.00  0.00     0.001 A 
HETATM   31  C   UNL     1      40.010 -12.955  -3.267  1.00  0.00     0.009 A 
ENDBRANCH  25  26
ENDBRANCH   3  25
TORSDOF 8
ENDMDL
MODEL 9
REMARK VINA RESULT:      -7.1      3.083      6.241
REMARK  8 active torsions:
REMARK  status: ('A' for Active; 'I' for Inactive)
REMARK    1  A    between atoms: O_2  and  C_3 
REMARK    2  A    between atoms: C_6  and  C_7 
REMARK    3  A    between atoms: C_7  and  O_8 
REMARK    4  A    between atoms: C_7  and  C_9 
REMARK    5  A    between atoms: C_9  and  N_10 
REMARK    6  A    between atoms: C_11  and  N_12 
REMARK    7  A    between atoms: N_13  and  C_14 
REMARK    8  A    between atoms: C_14  and  C_15 
ROOT
HETATM    1  N   UNL     1      43.072 -13.399   5.142  1.00  0.00    -0.178 N 
HETATM    2  C   UNL     1      43.068 -13.668   3.840  1.00  0.00     0.681 A 
HETATM    3  N   UNL     1      41.997 -13.128   3.275  1.00  0.00    -0.177 N 
HETATM    4  C   UNL     1      41.307 -12.385   4.229  1.00  0.00     0.079 A 
HETATM    5  C   UNL     1      42.003 -12.553   5.429  1.00  0.00     0.079 A 
HETATM    6  C   UNL     1      40.158 -11.604   4.138  1.00  0.00     0.032 A 
HETATM    7  C   UNL     1      39.731 -10.998   5.327  1.00  0.00     0.002 A 
HETATM    8  C   UNL     1      40.428 -11.171   6.538  1.00  0.00     0.002 A 
HETATM    9  C   UNL     1      41.587 -11.957   6.616  1.00  0.00     0.032 A 
ENDROOT
BRANCH   1  10
HETATM   10  C   UNL     1      43.998 -13.957   6.137  1.00  0.00     0.184 C 
BRANCH  10  11
HETATM   11  C   UNL     1      43.423 -15.163   6.920  1.00  0.00     0.170 C 
BRANCH  11  12
HETATM   12  C   UNL     1      43.719 -16.485   6.243  1.00  0.00    -0.028 A 
HETATM   13  C   UNL     1      42.874 -16.947   5.225  1.00  0.00     0.012 A 
HETATM   14  C   UNL     1      43.175 -18.121   4.534  1.00  0.00     0.037 A 
HETATM   15  C   UNL     1      44.317 -18.859   4.847  1.00  0.00     0.068 A 
HETATM   16  C   UNL     1      45.154 -18.419   5.872  1.00  0.00     0.037 A 
HETATM   17  C   UNL     1      44.858 -17.240   6.567  1.00  0.00     0.012 A 
BRANCH  15  18
HETATM   18  O   UNL     1      44.501 -19.971   4.075  1.00  0.00    -0.356 OA
HETATM   19  C   UNL     1      44.888 -21.167   4.741  1.00  0.00     0.210 C 
ENDBRANCH  15  18
ENDBRANCH  11  12
BRANCH  11  20
HETATM   20  O   UNL     1      43.957 -15.166   8.243  1.00  0.00    -0.389 OA
HETATM   21  H   UNL     1      44.191 -16.089   8.458  1.00  0.00     0.210 HD
ENDBRANCH  11  20
ENDBRANCH  10  11
ENDBRANCH   1  10
BRANCH   2  22
HETATM   22  N   UNL     1      44.001 -14.363   3.190  1.00  0.00    -0.234 N 
HETATM   23  H   UNL     1      44.879 -14.599   3.623  1.00  0.00     0.174 HD
HETATM   24  H   UNL     1      43.864 -14.640   2.229  1.00  0.00     0.174 HD
ENDBRANCH   2  22
BRANCH   3  25
HETATM   25  C   UNL     1      41.555 -13.346   1.904  1.00  0.00     0.186 C 
BRANCH  25  26
HETATM   26  C   UNL     1      41.259 -14.799   1.620  1.00  0.00    -0.039 A 
HETATM   27  C   UNL     1      40.428 -15.598   2.419  1.00  0.00     0.009 A 
HETATM   28  C   UNL     1      40.219 -16.945   2.113  1.00  0.00     0.001 A 
HETATM   29  C   UNL     1      40.837 -17.515   1.004  1.00  0.00     0.000 A 
HETATM   30  C   UNL     1      41.662 -16.738   0.196  1.00  0.00     0.001 A 
HETATM   31  C   UNL     1      41.871 -15.391   0.500  1.00  0.00     0.009 A 
ENDBRANCH  25  26
ENDBRANCH   3  25
TORSDOF 8
ENDMDL
MODEL 10
REMARK VINA RESULT:      -7.1      3.340      7.361
REMARK  8 active torsions:
REMARK  status: ('A' for Active; 'I' for Inactive)
REMARK    1  A    between atoms: O_2  and  C_3 
REMARK    2  A    between atoms: C_6  and  C_7 
REMARK    3  A    between atoms: C_7  and  O_8 
REMARK    4  A    between atoms: C_7  and  C_9 
REMARK    5  A    between atoms: C_9  and  N_10 
REMARK    6  A    between atoms: C_11  and  N_12 
REMARK    7  A    between atoms: N_13  and  C_14 
REMARK    8  A    between atoms: C_14  and  C_15 
ROOT
HETATM    1  N   UNL     1      41.498 -15.586   2.331  1.00  0.00    -0.178 N 
HETATM    2  C   UNL     1      41.491 -14.534   1.519  1.00  0.00     0.681 A 
HETATM    3  N   UNL     1      40.998 -13.481   2.157  1.00  0.00    -0.177 N 
HETATM    4  C   UNL     1      40.755 -13.827   3.483  1.00  0.00     0.079 A 
HETATM    5  C   UNL     1      41.083 -15.180   3.598  1.00  0.00     0.079 A 
HETATM    6  C   UNL     1      40.281 -13.081   4.560  1.00  0.00     0.032 A 
HETATM    7  C   UNL     1      40.145 -13.771   5.772  1.00  0.00     0.002 A 
HETATM    8  C   UNL     1      40.470 -15.136   5.887  1.00  0.00     0.002 A 
HETATM    9  C   UNL     1      40.950 -15.875   4.796  1.00  0.00     0.032 A 
ENDROOT
BRANCH   1  10
HETATM   10  C   UNL     1      41.812 -16.971   1.950  1.00  0.00     0.184 C 
BRANCH  10  11
HETATM   11  C   UNL     1      43.326 -17.241   1.766  1.00  0.00     0.170 C 
BRANCH  11  12
HETATM   12  C   UNL     1      43.796 -18.447   2.553  1.00  0.00    -0.028 A 
HETATM   13  C   UNL     1      44.020 -18.331   3.931  1.00  0.00     0.012 A 
HETATM   14  C   UNL     1      44.374 -19.449   4.687  1.00  0.00     0.037 A 
HETATM   15  C   UNL     1      44.518 -20.699   4.085  1.00  0.00     0.068 A 
HETATM   16  C   UNL     1      44.318 -20.822   2.710  1.00  0.00     0.037 A 
HETATM   17  C   UNL     1      43.959 -19.703   1.948  1.00  0.00     0.012 A 
BRANCH  15  18
HETATM   18  O   UNL     1      44.844 -21.707   4.947  1.00  0.00    -0.356 OA
HETATM   19  C   UNL     1      44.336 -21.618   6.273  1.00  0.00     0.210 C 
ENDBRANCH  15  18
ENDBRANCH  11  12
BRANCH  11  20
HETATM   20  O   UNL     1      43.608 -17.426   0.379  1.00  0.00    -0.389 OA
HETATM   21  H   UNL     1      43.994 -18.317   0.280  1.00  0.00     0.210 HD
ENDBRANCH  11  20
ENDBRANCH  10  11
ENDBRANCH   1  10
BRANCH   2  22
HETATM   22  N   UNL     1      41.924 -14.525   0.259  1.00  0.00    -0.234 N 
HETATM   23  H   UNL     1      41.323 -14.789  -0.506  1.00  0.00     0.174 HD
HETATM   24  H   UNL     1      42.880 -14.290   0.042  1.00  0.00     0.174 HD
ENDBRANCH   2  22
BRANCH   3  25
HETATM   25  C   UNL     1      40.674 -12.195   1.553  1.00  0.00     0.186 C 
BRANCH  25  26
HETATM   26  C   UNL     1      39.227 -12.106   1.132  1.00  0.00    -0.039 A 
HETATM   27  C   UNL     1      38.699 -12.755   0.005  1.00  0.00     0.009 A 
HETATM   28  C   UNL     1      37.354 -12.605  -0.344  1.00  0.00     0.001 A 
HETATM   29  C   UNL     1      36.516 -11.806   0.428  1.00  0.00     0.000 A 
HETATM   30  C   UNL     1      37.019 -11.157   1.552  1.00  0.00     0.001 A 
HETATM   31  C   UNL     1      38.363 -11.306   1.902  1.00  0.00     0.009 A 
ENDBRANCH  25  26
ENDBRANCH   3  25
TORSDOF 8
ENDMDL
