MODEL 1
REMARK VINA RESULT:      -8.9      0.000      0.000
REMARK  8 active torsions:
REMARK  status: ('A' for Active; 'I' for Inactive)
REMARK    1  A    between atoms: C_3  and  N_4 
REMARK       I    between atoms: N_4  and  C_5 
REMARK    2  A    between atoms: C_5  and  C_6 
REMARK    3  A    between atoms: C_6  and  N_7 
REMARK    4  A    between atoms: C_10  and  C_11 
REMARK       I    between atoms: C_11  and  N_12 
REMARK    5  A    between atoms: N_12  and  C_13 
REMARK    6  A    between atoms: C_13  and  C_14 
REMARK    7  A    between atoms: C_17  and  O_18 
REMARK    8  A    between atoms: C_23  and  N_24 
ROOT
HETATM    1  N   UNL     1      42.762 -15.377   5.942  1.00  0.00    -0.248 N 
HETATM    2  N   UNL     1      43.434 -16.305   6.658  1.00  0.00     0.007 NA
HETATM    3  N   UNL     1      44.321 -15.663   7.404  1.00  0.00    -0.150 NA
HETATM    4  C   UNL     1      44.201 -14.310   7.156  1.00  0.00     0.186 A 
HETATM    5  C   UNL     1      43.211 -14.109   6.207  1.00  0.00     0.151 A 
ENDROOT
BRANCH   1   6
HETATM    6  C   UNL     1      41.729 -15.805   5.030  1.00  0.00     0.251 C 
BRANCH   6   7
HETATM    7  C   UNL     1      41.917 -17.249   4.624  1.00  0.00     0.241 C 
HETATM    8  N   UNL     1      43.132 -17.507   4.014  1.00  0.00    -0.325 N 
HETATM    9  H   UNL     1      43.819 -16.758   4.080  1.00  0.00     0.169 HD
HETATM   10  O   UNL     1      41.073 -18.086   4.938  1.00  0.00    -0.271 OA
BRANCH   8  11
HETATM   11  C   UNL     1      43.625 -18.726   3.496  1.00  0.00     0.042 A 
HETATM   12  C   UNL     1      43.745 -19.069   2.137  1.00  0.00    -0.035 A 
HETATM   13  C   UNL     1      43.466 -18.140   0.987  1.00  0.00     0.050 C 
HETATM   14  C   UNL     1      44.212 -20.358   1.799  1.00  0.00     0.011 A 
HETATM   15  C   UNL     1      44.612 -21.267   2.778  1.00  0.00     0.024 A 
HETATM   16  C   UNL     1      44.554 -20.894   4.112  1.00  0.00     0.036 A 
HETATM   17  C   UNL     1      44.076 -19.636   4.470  1.00  0.00     0.053 A 
HETATM   18 CL   UNL     1      45.065 -21.995   5.332  1.00  0.00    -0.084 Cl
ENDBRANCH   8  11
ENDBRANCH   6   7
ENDBRANCH   1   6
BRANCH   5  19
HETATM   19  N   UNL     1      42.717 -12.994   5.625  1.00  0.00    -0.382 N 
HETATM   20  H   UNL     1      42.068 -13.100   4.839  1.00  0.00     0.157 HD
HETATM   21  H   UNL     1      42.617 -12.098   6.098  1.00  0.00     0.157 HD
ENDBRANCH   5  19
BRANCH   4  22
HETATM   22  C   UNL     1      45.015 -13.304   7.823  1.00  0.00     0.275 C 
HETATM   23  N   UNL     1      44.386 -12.705   8.892  1.00  0.00    -0.351 N 
HETATM   24  H   UNL     1      43.440 -12.999   9.111  1.00  0.00     0.163 HD
HETATM   25  O   UNL     1      46.149 -13.013   7.453  1.00  0.00    -0.266 OA
BRANCH  23  26
HETATM   26  C   UNL     1      44.962 -11.594   9.610  1.00  0.00     0.161 C 
BRANCH  26  27
HETATM   27  C   UNL     1      43.977 -10.760  10.393  1.00  0.00    -0.040 A 
HETATM   28  C   UNL     1      42.815 -10.203   9.845  1.00  0.00     0.011 A 
HETATM   29  C   UNL     1      41.949  -9.443  10.640  1.00  0.00     0.037 A 
HETATM   30  C   UNL     1      42.218  -9.229  11.993  1.00  0.00     0.068 A 
HETATM   31  C   UNL     1      43.371  -9.777  12.548  1.00  0.00     0.037 A 
HETATM   32  C   UNL     1      44.240 -10.534  11.755  1.00  0.00     0.011 A 
BRANCH  30  33
HETATM   33  O   UNL     1      41.287  -8.475  12.654  1.00  0.00    -0.356 OA
HETATM   34  C   UNL     1      39.941  -8.928  12.600  1.00  0.00     0.210 C 
ENDBRANCH  30  33
ENDBRANCH  26  27
ENDBRANCH  23  26
ENDBRANCH   4  22
TORSDOF 8
ENDMDL
MODEL 2
REMARK VINA RESULT:      -8.9      1.399      2.140
REMARK  8 active torsions:
REMARK  status: ('A' for Active; 'I' for Inactive)
REMARK    1  A    between atoms: C_3  and  N_4 
REMARK       I    between atoms: N_4  and  C_5 
REMARK    2  A    between atoms: C_5  and  C_6 
REMARK    3  A    between atoms: C_6  and  N_7 
REMARK    4  A    between atoms: C_10  and  C_11 
REMARK       I    between atoms: C_11  and  N_12 
REMARK    5  A    between atoms: N_12  and  C_13 
REMARK    6  A    between atoms: C_13  and  C_14 
REMARK    7  A    between atoms: C_17  and  O_18 
REMARK    8  A    between atoms: C_23  and  N_24 
ROOT
HETATM    1  N   UNL     1      42.572 -15.126   4.557  1.00  0.00    -0.248 N 
HETATM    2  N   UNL     1      43.185 -14.274   3.706  1.00  0.00     0.007 NA
HETATM    3  N   UNL     1      44.085 -13.598   4.405  1.00  0.00    -0.150 NA
HETATM    4  C   UNL     1      44.039 -14.035   5.714  1.00  0.00     0.186 A 
HETATM    5  C   UNL     1      43.059 -15.009   5.832  1.00  0.00     0.151 A 
ENDROOT
BRANCH   1   6
HETATM    6  C   UNL     1      41.530 -15.990   4.056  1.00  0.00     0.251 C 
BRANCH   6   7
HETATM    7  C   UNL     1      41.844 -17.445   4.325  1.00  0.00     0.241 C 
HETATM    8  N   UNL     1      43.076 -17.852   3.843  1.00  0.00    -0.325 N 
HETATM    9  H   UNL     1      43.694 -17.101   3.541  1.00  0.00     0.169 HD
HETATM   10  O   UNL     1      41.079 -18.117   5.012  1.00  0.00    -0.271 OA
BRANCH   8  11
HETATM   11  C   UNL     1      43.674 -19.131   3.900  1.00  0.00     0.042 A 
HETATM   12  C   UNL     1      44.285 -19.718   5.024  1.00  0.00    -0.035 A 
HETATM   13  C   UNL     1      44.309 -19.117   6.402  1.00  0.00     0.050 C 
HETATM   14  C   UNL     1      44.881 -20.990   4.887  1.00  0.00     0.011 A 
HETATM   15  C   UNL     1      44.822 -21.696   3.686  1.00  0.00     0.024 A 
HETATM   16  C   UNL     1      44.158 -21.138   2.605  1.00  0.00     0.036 A 
HETATM   17  C   UNL     1      43.581 -19.875   2.710  1.00  0.00     0.053 A 
HETATM   18 CL   UNL     1      44.054 -22.006   1.122  1.00  0.00    -0.084 Cl
ENDBRANCH   8  11
ENDBRANCH   6   7
ENDBRANCH   1   6
BRANCH   5  19
HETATM   19  N   UNL     1      42.619 -15.740   6.881  1.00  0.00    -0.382 N 
HETATM   20  H   UNL     1      41.658 -16.092   6.861  1.00  0.00     0.157 HD
HETATM   21  H   UNL     1      43.223 -16.285   7.492  1.00  0.00     0.157 HD
ENDBRANCH   5  19
BRANCH   4  22
HETATM   22  C   UNL     1      44.910 -13.516   6.758  1.00  0.00     0.275 C 
HETATM   23  N   UNL     1      44.240 -13.153   7.907  1.00  0.00    -0.351 N 
HETATM   24  H   UNL     1      43.232 -13.266   7.923  1.00  0.00     0.163 HD
HETATM   25  O   UNL     1      46.124 -13.403   6.617  1.00  0.00    -0.266 OA
BRANCH  23  26
HETATM   26  C   UNL     1      44.893 -12.497   9.012  1.00  0.00     0.161 C 
BRANCH  26  27
HETATM   27  C   UNL     1      44.060 -11.455   9.719  1.00  0.00    -0.040 A 
HETATM   28  C   UNL     1      42.907 -10.877   9.175  1.00  0.00     0.011 A 
HETATM   29  C   UNL     1      42.186  -9.917   9.895  1.00  0.00     0.037 A 
HETATM   30  C   UNL     1      42.594  -9.520  11.169  1.00  0.00     0.068 A 
HETATM   31  C   UNL     1      43.740 -10.087  11.719  1.00  0.00     0.037 A 
HETATM   32  C   UNL     1      44.464 -11.044  11.000  1.00  0.00     0.011 A 
BRANCH  30  33
HETATM   33  O   UNL     1      41.797  -8.580  11.764  1.00  0.00    -0.356 OA
HETATM   34  C   UNL     1      42.454  -7.547  12.487  1.00  0.00     0.210 C 
ENDBRANCH  30  33
ENDBRANCH  26  27
ENDBRANCH  23  26
ENDBRANCH   4  22
TORSDOF 8
ENDMDL
MODEL 3
REMARK VINA RESULT:      -8.6      3.259     10.745
REMARK  8 active torsions:
REMARK  status: ('A' for Active; 'I' for Inactive)
REMARK    1  A    between atoms: C_3  and  N_4 
REMARK       I    between atoms: N_4  and  C_5 
REMARK    2  A    between atoms: C_5  and  C_6 
REMARK    3  A    between atoms: C_6  and  N_7 
REMARK    4  A    between atoms: C_10  and  C_11 
REMARK       I    between atoms: C_11  and  N_12 
REMARK    5  A    between atoms: N_12  and  C_13 
REMARK    6  A    between atoms: C_13  and  C_14 
REMARK    7  A    between atoms: C_17  and  O_18 
REMARK    8  A    between atoms: C_23  and  N_24 
ROOT
HETATM    1  N   UNL     1      44.232 -13.519   7.246  1.00  0.00    -0.248 N 
HETATM    2  N   UNL     1      43.384 -12.587   6.758  1.00  0.00     0.007 NA
HETATM    3  N   UNL     1      42.592 -13.192   5.885  1.00  0.00    -0.150 NA
HETATM    4  C   UNL     1      42.944 -14.525   5.827  1.00  0.00     0.186 A 
HETATM    5  C   UNL     1      44.008 -14.750   6.687  1.00  0.00     0.151 A 
ENDROOT
BRANCH   1   6
HETATM    6  C   UNL     1      45.219 -13.129   8.223  1.00  0.00     0.251 C 
BRANCH   6   7
HETATM    7  C   UNL     1      44.863 -11.809   8.870  1.00  0.00     0.241 C 
HETATM    8  N   UNL     1      43.639 -11.815   9.517  1.00  0.00    -0.325 N 
HETATM    9  H   UNL     1      43.220 -12.734   9.646  1.00  0.00     0.169 HD
HETATM   10  O   UNL     1      45.680 -10.892   8.877  1.00  0.00    -0.271 OA
BRANCH   8  11
HETATM   11  C   UNL     1      42.992 -10.762  10.203  1.00  0.00     0.042 A 
HETATM   12  C   UNL     1      41.948  -9.960   9.707  1.00  0.00    -0.035 A 
HETATM   13  C   UNL     1      41.260 -10.163   8.385  1.00  0.00     0.050 C 
HETATM   14  C   UNL     1      41.452  -8.913  10.514  1.00  0.00     0.011 A 
HETATM   15  C   UNL     1      41.932  -8.700  11.806  1.00  0.00     0.024 A 
HETATM   16  C   UNL     1      42.914  -9.539  12.310  1.00  0.00     0.036 A 
HETATM   17  C   UNL     1      43.433 -10.565  11.524  1.00  0.00     0.053 A 
HETATM   18 CL   UNL     1      43.501  -9.306  13.911  1.00  0.00    -0.084 Cl
ENDBRANCH   8  11
ENDBRANCH   6   7
ENDBRANCH   1   6
BRANCH   5  19
HETATM   19  N   UNL     1      44.717 -15.861   6.992  1.00  0.00    -0.382 N 
HETATM   20  H   UNL     1      44.446 -16.399   7.820  1.00  0.00     0.157 HD
HETATM   21  H   UNL     1      45.228 -16.418   6.312  1.00  0.00     0.157 HD
ENDBRANCH   5  19
BRANCH   4  22
HETATM   22  C   UNL     1      42.265 -15.492   4.978  1.00  0.00     0.275 C 
HETATM   23  N   UNL     1      43.067 -16.019   3.989  1.00  0.00    -0.351 N 
HETATM   24  H   UNL     1      44.025 -15.693   3.933  1.00  0.00     0.163 HD
HETATM   25  O   UNL     1      41.084 -15.796   5.127  1.00  0.00    -0.266 OA
BRANCH  23  26
HETATM   26  C   UNL     1      42.560 -16.894   2.961  1.00  0.00     0.161 C 
BRANCH  26  27
HETATM   27  C   UNL     1      43.148 -18.284   2.958  1.00  0.00    -0.040 A 
HETATM   28  C   UNL     1      43.991 -18.778   3.961  1.00  0.00     0.011 A 
HETATM   29  C   UNL     1      44.495 -20.081   3.888  1.00  0.00     0.037 A 
HETATM   30  C   UNL     1      44.166 -20.919   2.821  1.00  0.00     0.068 A 
HETATM   31  C   UNL     1      43.329 -20.439   1.818  1.00  0.00     0.037 A 
HETATM   32  C   UNL     1      42.828 -19.134   1.887  1.00  0.00     0.011 A 
BRANCH  30  33
HETATM   33  O   UNL     1      44.720 -22.169   2.877  1.00  0.00    -0.356 OA
HETATM   34  C   UNL     1      44.741 -22.804   4.148  1.00  0.00     0.210 C 
ENDBRANCH  30  33
ENDBRANCH  26  27
ENDBRANCH  23  26
ENDBRANCH   4  22
TORSDOF 8
ENDMDL
MODEL 4
REMARK VINA RESULT:      -8.6      3.672     10.308
REMARK  8 active torsions:
REMARK  status: ('A' for Active; 'I' for Inactive)
REMARK    1  A    between atoms: C_3  and  N_4 
REMARK       I    between atoms: N_4  and  C_5 
REMARK    2  A    between atoms: C_5  and  C_6 
REMARK    3  A    between atoms: C_6  and  N_7 
REMARK    4  A    between atoms: C_10  and  C_11 
REMARK       I    between atoms: C_11  and  N_12 
REMARK    5  A    between atoms: N_12  and  C_13 
REMARK    6  A    between atoms: C_13  and  C_14 
REMARK    7  A    between atoms: C_17  and  O_18 
REMARK    8  A    between atoms: C_23  and  N_24 
ROOT
HETATM    1  N   UNL     1      41.006 -11.984   6.018  1.00  0.00    -0.248 N 
HETATM    2  N   UNL     1      42.287 -12.176   5.634  1.00  0.00     0.007 NA
HETATM    3  N   UNL     1      42.422 -13.458   5.331  1.00  0.00    -0.150 NA
HETATM    4  C   UNL     1      41.205 -14.082   5.524  1.00  0.00     0.186 A 
HETATM    5  C   UNL     1      40.286 -13.149   5.979  1.00  0.00     0.151 A 
ENDROOT
BRANCH   1   6
HETATM    6  C   UNL     1      40.581 -10.663   6.413  1.00  0.00     0.251 C 
BRANCH   6   7
HETATM    7  C   UNL     1      41.509 -10.073   7.451  1.00  0.00     0.241 C 
HETATM    8  N   UNL     1      41.745 -10.907   8.531  1.00  0.00    -0.325 N 
HETATM    9  H   UNL     1      41.431 -11.868   8.414  1.00  0.00     0.169 HD
HETATM   10  O   UNL     1      42.055  -8.994   7.238  1.00  0.00    -0.271 OA
BRANCH   8  11
HETATM   11  C   UNL     1      42.535 -10.671   9.678  1.00  0.00     0.042 A 
HETATM   12  C   UNL     1      43.821 -11.186   9.926  1.00  0.00    -0.035 A 
HETATM   13  C   UNL     1      44.627 -11.996   8.949  1.00  0.00     0.050 C 
HETATM   14  C   UNL     1      44.448 -10.888  11.156  1.00  0.00     0.011 A 
HETATM   15  C   UNL     1      43.847 -10.051  12.095  1.00  0.00     0.024 A 
HETATM   16  C   UNL     1      42.609  -9.494  11.811  1.00  0.00     0.036 A 
HETATM   17  C   UNL     1      41.962  -9.791  10.614  1.00  0.00     0.053 A 
HETATM   18 CL   UNL     1      41.862  -8.440  12.948  1.00  0.00    -0.084 Cl
ENDBRANCH   8  11
ENDBRANCH   6   7
ENDBRANCH   1   6
BRANCH   5  19
HETATM   19  N   UNL     1      38.980 -13.244   6.317  1.00  0.00    -0.382 N 
HETATM   20  H   UNL     1      38.606 -14.165   6.565  1.00  0.00     0.157 HD
HETATM   21  H   UNL     1      38.434 -12.480   6.710  1.00  0.00     0.157 HD
ENDBRANCH   5  19
BRANCH   4  22
HETATM   22  C   UNL     1      40.986 -15.498   5.268  1.00  0.00     0.275 C 
HETATM   23  N   UNL     1      41.482 -15.923   4.055  1.00  0.00    -0.351 N 
HETATM   24  H   UNL     1      41.932 -15.236   3.460  1.00  0.00     0.163 HD
HETATM   25  O   UNL     1      40.404 -16.235   6.059  1.00  0.00    -0.266 OA
BRANCH  23  26
HETATM   26  C   UNL     1      41.260 -17.255   3.548  1.00  0.00     0.161 C 
BRANCH  26  27
HETATM   27  C   UNL     1      42.382 -18.231   3.804  1.00  0.00    -0.040 A 
HETATM   28  C   UNL     1      42.872 -18.542   5.078  1.00  0.00     0.011 A 
HETATM   29  C   UNL     1      43.915 -19.462   5.233  1.00  0.00     0.037 A 
HETATM   30  C   UNL     1      44.486 -20.093   4.127  1.00  0.00     0.068 A 
HETATM   31  C   UNL     1      44.008 -19.791   2.855  1.00  0.00     0.037 A 
HETATM   32  C   UNL     1      42.968 -18.869   2.698  1.00  0.00     0.011 A 
BRANCH  30  33
HETATM   33  O   UNL     1      45.492 -20.973   4.420  1.00  0.00    -0.356 OA
HETATM   34  C   UNL     1      45.129 -22.141   5.145  1.00  0.00     0.210 C 
ENDBRANCH  30  33
ENDBRANCH  26  27
ENDBRANCH  23  26
ENDBRANCH   4  22
TORSDOF 8
ENDMDL
MODEL 5
REMARK VINA RESULT:      -8.5      2.600      3.360
REMARK  8 active torsions:
REMARK  status: ('A' for Active; 'I' for Inactive)
REMARK    1  A    between atoms: C_3  and  N_4 
REMARK       I    between atoms: N_4  and  C_5 
REMARK    2  A    between atoms: C_5  and  C_6 
REMARK    3  A    between atoms: C_6  and  N_7 
REMARK    4  A    between atoms: C_10  and  C_11 
REMARK       I    between atoms: C_11  and  N_12 
REMARK    5  A    between atoms: N_12  and  C_13 
REMARK    6  A    between atoms: C_13  and  C_14 
REMARK    7  A    between atoms: C_17  and  O_18 
REMARK    8  A    between atoms: C_23  and  N_24 
ROOT
HETATM    1  N   UNL     1      41.888 -14.246   3.876  1.00  0.00    -0.248 N 
HETATM    2  N   UNL     1      42.900 -13.567   4.459  1.00  0.00     0.007 NA
HETATM    3  N   UNL     1      42.374 -12.817   5.416  1.00  0.00    -0.150 NA
HETATM    4  C   UNL     1      41.010 -13.032   5.437  1.00  0.00     0.186 A 
HETATM    5  C   UNL     1      40.679 -13.939   4.443  1.00  0.00     0.151 A 
ENDROOT
BRANCH   1   6
HETATM    6  C   UNL     1      42.181 -15.144   2.785  1.00  0.00     0.251 C 
BRANCH   6   7
HETATM    7  C   UNL     1      42.261 -16.578   3.258  1.00  0.00     0.241 C 
HETATM    8  N   UNL     1      43.542 -17.101   3.250  1.00  0.00    -0.325 N 
HETATM    9  H   UNL     1      44.288 -16.421   3.115  1.00  0.00     0.169 HD
HETATM   10  O   UNL     1      41.257 -17.132   3.699  1.00  0.00    -0.271 OA
BRANCH   8  11
HETATM   11  C   UNL     1      43.974 -18.398   3.605  1.00  0.00     0.042 A 
HETATM   12  C   UNL     1      44.474 -18.799   4.858  1.00  0.00    -0.035 A 
HETATM   13  C   UNL     1      44.531 -17.926   6.081  1.00  0.00     0.050 C 
HETATM   14  C   UNL     1      44.911 -20.132   5.021  1.00  0.00     0.011 A 
HETATM   15  C   UNL     1      44.800 -21.066   3.992  1.00  0.00     0.024 A 
HETATM   16  C   UNL     1      44.244 -20.678   2.783  1.00  0.00     0.036 A 
HETATM   17  C   UNL     1      43.826 -19.363   2.591  1.00  0.00     0.053 A 
HETATM   18 CL   UNL     1      44.077 -21.823   1.509  1.00  0.00    -0.084 Cl
ENDBRANCH   8  11
ENDBRANCH   6   7
ENDBRANCH   1   6
BRANCH   5  19
HETATM   19  N   UNL     1      39.501 -14.472   4.048  1.00  0.00    -0.382 N 
HETATM   20  H   UNL     1      38.733 -14.513   4.725  1.00  0.00     0.157 HD
HETATM   21  H   UNL     1      39.174 -14.489   3.085  1.00  0.00     0.157 HD
ENDBRANCH   5  19
BRANCH   4  22
HETATM   22  C   UNL     1      40.116 -12.379   6.382  1.00  0.00     0.275 C 
HETATM   23  N   UNL     1      40.771 -11.628   7.334  1.00  0.00    -0.351 N 
HETATM   24  H   UNL     1      41.784 -11.602   7.302  1.00  0.00     0.163 HD
HETATM   25  O   UNL     1      38.895 -12.501   6.337  1.00  0.00    -0.266 OA
BRANCH  23  26
HETATM   26  C   UNL     1      40.086 -11.005   8.439  1.00  0.00     0.161 C 
BRANCH  26  27
HETATM   27  C   UNL     1      40.886 -10.911   9.716  1.00  0.00    -0.040 A 
HETATM   28  C   UNL     1      42.258 -10.638   9.759  1.00  0.00     0.011 A 
HETATM   29  C   UNL     1      42.929 -10.565  10.985  1.00  0.00     0.037 A 
HETATM   30  C   UNL     1      42.249 -10.754  12.189  1.00  0.00     0.068 A 
HETATM   31  C   UNL     1      40.884 -11.026  12.158  1.00  0.00     0.037 A 
HETATM   32  C   UNL     1      40.212 -11.105  10.933  1.00  0.00     0.011 A 
BRANCH  30  33
HETATM   33  O   UNL     1      43.023 -10.648  13.312  1.00  0.00    -0.356 OA
HETATM   34  C   UNL     1      43.186  -9.345  13.857  1.00  0.00     0.210 C 
ENDBRANCH  30  33
ENDBRANCH  26  27
ENDBRANCH  23  26
ENDBRANCH   4  22
TORSDOF 8
ENDMDL
MODEL 6
REMARK VINA RESULT:      -8.5      4.677      7.958
REMARK  8 active torsions:
REMARK  status: ('A' for Active; 'I' for Inactive)
REMARK    1  A    between atoms: C_3  and  N_4 
REMARK       I    between atoms: N_4  and  C_5 
REMARK    2  A    between atoms: C_5  and  C_6 
REMARK    3  A    between atoms: C_6  and  N_7 
REMARK    4  A    between atoms: C_10  and  C_11 
REMARK       I    between atoms: C_11  and  N_12 
REMARK    5  A    between atoms: N_12  and  C_13 
REMARK    6  A    between atoms: C_13  and  C_14 
REMARK    7  A    between atoms: C_17  and  O_18 
REMARK    8  A    between atoms: C_23  and  N_24 
ROOT
HETATM    1  N   UNL     1      42.709 -15.825   6.336  1.00  0.00    -0.248 N 
HETATM    2  N   UNL     1      41.572 -16.478   6.659  1.00  0.00     0.007 NA
HETATM    3  N   UNL     1      40.588 -15.926   5.964  1.00  0.00    -0.150 NA
HETATM    4  C   UNL     1      41.117 -14.913   5.189  1.00  0.00     0.186 A 
HETATM    5  C   UNL     1      42.479 -14.825   5.427  1.00  0.00     0.151 A 
ENDROOT
BRANCH   1   6
HETATM    6  C   UNL     1      43.949 -16.221   6.960  1.00  0.00     0.251 C 
BRANCH   6   7
HETATM    7  C   UNL     1      44.548 -17.430   6.276  1.00  0.00     0.241 C 
HETATM    8  N   UNL     1      43.819 -17.876   5.187  1.00  0.00    -0.325 N 
HETATM    9  H   UNL     1      43.091 -17.243   4.863  1.00  0.00     0.169 HD
HETATM   10  O   UNL     1      45.641 -17.856   6.639  1.00  0.00    -0.271 OA
BRANCH   8  11
HETATM   11  C   UNL     1      44.074 -18.978   4.340  1.00  0.00     0.042 A 
HETATM   12  C   UNL     1      43.980 -18.992   2.936  1.00  0.00    -0.035 A 
HETATM   13  C   UNL     1      43.695 -17.788   2.081  1.00  0.00     0.050 C 
HETATM   14  C   UNL     1      44.221 -20.202   2.250  1.00  0.00     0.011 A 
HETATM   15  C   UNL     1      44.608 -21.358   2.927  1.00  0.00     0.024 A 
HETATM   16  C   UNL     1      44.763 -21.316   4.304  1.00  0.00     0.036 A 
HETATM   17  C   UNL     1      44.509 -20.139   5.004  1.00  0.00     0.053 A 
HETATM   18 CL   UNL     1      45.262 -22.727   5.153  1.00  0.00    -0.084 Cl
ENDBRANCH   8  11
ENDBRANCH   6   7
ENDBRANCH   1   6
BRANCH   5  19
HETATM   19  N   UNL     1      43.442 -14.013   4.935  1.00  0.00    -0.382 N 
HETATM   20  H   UNL     1      43.652 -13.146   5.439  1.00  0.00     0.157 HD
HETATM   21  H   UNL     1      44.217 -14.329   4.358  1.00  0.00     0.157 HD
ENDBRANCH   5  19
BRANCH   4  22
HETATM   22  C   UNL     1      40.315 -14.104   4.283  1.00  0.00     0.275 C 
HETATM   23  N   UNL     1      39.611 -14.843   3.357  1.00  0.00    -0.351 N 
HETATM   24  H   UNL     1      39.715 -15.851   3.379  1.00  0.00     0.163 HD
HETATM   25  O   UNL     1      40.285 -12.877   4.337  1.00  0.00    -0.266 OA
BRANCH  23  26
HETATM   26  C   UNL     1      38.859 -14.235   2.288  1.00  0.00     0.161 C 
BRANCH  26  27
HETATM   27  C   UNL     1      39.451 -14.413   0.910  1.00  0.00    -0.040 A 
HETATM   28  C   UNL     1      38.930 -13.819  -0.246  1.00  0.00     0.011 A 
HETATM   29  C   UNL     1      39.538 -14.031  -1.489  1.00  0.00     0.037 A 
HETATM   30  C   UNL     1      40.677 -14.830  -1.604  1.00  0.00     0.068 A 
HETATM   31  C   UNL     1      41.202 -15.427  -0.462  1.00  0.00     0.037 A 
HETATM   32  C   UNL     1      40.593 -15.220   0.781  1.00  0.00     0.011 A 
BRANCH  30  33
HETATM   33  O   UNL     1      41.173 -14.947  -2.874  1.00  0.00    -0.356 OA
HETATM   34  C   UNL     1      41.417 -13.738  -3.580  1.00  0.00     0.210 C 
ENDBRANCH  30  33
ENDBRANCH  26  27
ENDBRANCH  23  26
ENDBRANCH   4  22
TORSDOF 8
ENDMDL
MODEL 7
REMARK VINA RESULT:      -8.4      3.660     10.355
REMARK  8 active torsions:
REMARK  status: ('A' for Active; 'I' for Inactive)
REMARK    1  A    between atoms: C_3  and  N_4 
REMARK       I    between atoms: N_4  and  C_5 
REMARK    2  A    between atoms: C_5  and  C_6 
REMARK    3  A    between atoms: C_6  and  N_7 
REMARK    4  A    between atoms: C_10  and  C_11 
REMARK       I    between atoms: C_11  and  N_12 
REMARK    5  A    between atoms: N_12  and  C_13 
REMARK    6  A    between atoms: C_13  and  C_14 
REMARK    7  A    between atoms: C_17  and  O_18 
REMARK    8  A    between atoms: C_23  and  N_24 
ROOT
HETATM    1  N   UNL     1      41.180 -12.187   6.040  1.00  0.00    -0.248 N 
HETATM    2  N   UNL     1      42.414 -12.559   6.444  1.00  0.00     0.007 NA
HETATM    3  N   UNL     1      42.764 -13.614   5.725  1.00  0.00    -0.150 NA
HETATM    4  C   UNL     1      41.735 -13.908   4.852  1.00  0.00     0.186 A 
HETATM    5  C   UNL     1      40.701 -13.007   5.052  1.00  0.00     0.151 A 
ENDROOT
BRANCH   1   6
HETATM    6  C   UNL     1      40.546 -11.053   6.669  1.00  0.00     0.251 C 
BRANCH   6   7
HETATM    7  C   UNL     1      41.473 -10.381   7.657  1.00  0.00     0.241 C 
HETATM    8  N   UNL     1      41.648 -11.091   8.832  1.00  0.00    -0.325 N 
HETATM    9  H   UNL     1      41.298 -12.047   8.820  1.00  0.00     0.169 HD
HETATM   10  O   UNL     1      42.068  -9.356   7.335  1.00  0.00    -0.271 OA
BRANCH   8  11
HETATM   11  C   UNL     1      42.421 -10.753   9.966  1.00  0.00     0.042 A 
HETATM   12  C   UNL     1      43.781 -11.053  10.170  1.00  0.00    -0.035 A 
HETATM   13  C   UNL     1      44.682 -11.696   9.153  1.00  0.00     0.050 C 
HETATM   14  C   UNL     1      44.383 -10.682  11.393  1.00  0.00     0.011 A 
HETATM   15  C   UNL     1      43.678  -9.978  12.367  1.00  0.00     0.024 A 
HETATM   16  C   UNL     1      42.358  -9.628  12.128  1.00  0.00     0.036 A 
HETATM   17  C   UNL     1      41.736 -10.002  10.939  1.00  0.00     0.053 A 
HETATM   18 CL   UNL     1      41.479  -8.738  13.310  1.00  0.00    -0.084 Cl
ENDBRANCH   8  11
ENDBRANCH   6   7
ENDBRANCH   1   6
BRANCH   5  19
HETATM   19  N   UNL     1      39.489 -12.864   4.470  1.00  0.00    -0.382 N 
HETATM   20  H   UNL     1      38.923 -13.702   4.309  1.00  0.00     0.157 HD
HETATM   21  H   UNL     1      38.929 -12.015   4.515  1.00  0.00     0.157 HD
ENDBRANCH   5  19
BRANCH   4  22
HETATM   22  C   UNL     1      41.791 -15.004   3.896  1.00  0.00     0.275 C 
HETATM   23  N   UNL     1      43.068 -15.456   3.647  1.00  0.00    -0.351 N 
HETATM   24  H   UNL     1      43.835 -14.997   4.128  1.00  0.00     0.163 HD
HETATM   25  O   UNL     1      40.790 -15.468   3.356  1.00  0.00    -0.266 OA
BRANCH  23  26
HETATM   26  C   UNL     1      43.360 -16.445   2.639  1.00  0.00     0.161 C 
BRANCH  26  27
HETATM   27  C   UNL     1      43.778 -17.795   3.170  1.00  0.00    -0.040 A 
HETATM   28  C   UNL     1      43.966 -18.926   2.367  1.00  0.00     0.011 A 
HETATM   29  C   UNL     1      44.357 -20.143   2.936  1.00  0.00     0.037 A 
HETATM   30  C   UNL     1      44.576 -20.257   4.310  1.00  0.00     0.068 A 
HETATM   31  C   UNL     1      44.391 -19.139   5.118  1.00  0.00     0.037 A 
HETATM   32  C   UNL     1      43.996 -17.922   4.552  1.00  0.00     0.011 A 
BRANCH  30  33
HETATM   33  O   UNL     1      44.961 -21.500   4.732  1.00  0.00    -0.356 OA
HETATM   34  C   UNL     1      44.692 -22.586   3.854  1.00  0.00     0.210 C 
ENDBRANCH  30  33
ENDBRANCH  26  27
ENDBRANCH  23  26
ENDBRANCH   4  22
TORSDOF 8
ENDMDL
MODEL 8
REMARK VINA RESULT:      -8.4      5.338      9.033
REMARK  8 active torsions:
REMARK  status: ('A' for Active; 'I' for Inactive)
REMARK    1  A    between atoms: C_3  and  N_4 
REMARK       I    between atoms: N_4  and  C_5 
REMARK    2  A    between atoms: C_5  and  C_6 
REMARK    3  A    between atoms: C_6  and  N_7 
REMARK    4  A    between atoms: C_10  and  C_11 
REMARK       I    between atoms: C_11  and  N_12 
REMARK    5  A    between atoms: N_12  and  C_13 
REMARK    6  A    between atoms: C_13  and  C_14 
REMARK    7  A    between atoms: C_17  and  O_18 
REMARK    8  A    between atoms: C_23  and  N_24 
ROOT
HETATM    1  N   UNL     1      42.434 -14.944   4.238  1.00  0.00    -0.248 N 
HETATM    2  N   UNL     1      43.574 -14.334   3.847  1.00  0.00     0.007 NA
HETATM    3  N   UNL     1      43.279 -13.577   2.801  1.00  0.00    -0.150 NA
HETATM    4  C   UNL     1      41.931 -13.709   2.534  1.00  0.00     0.186 A 
HETATM    5  C   UNL     1      41.374 -14.597   3.442  1.00  0.00     0.151 A 
ENDROOT
BRANCH   1   6
HETATM    6  C   UNL     1      42.469 -15.843   5.366  1.00  0.00     0.251 C 
BRANCH   6   7
HETATM    7  C   UNL     1      42.442 -17.288   4.920  1.00  0.00     0.241 C 
HETATM    8  N   UNL     1      43.573 -17.682   4.227  1.00  0.00    -0.325 N 
HETATM    9  H   UNL     1      44.354 -17.030   4.263  1.00  0.00     0.169 HD
HETATM   10  O   UNL     1      41.518 -18.017   5.272  1.00  0.00    -0.271 OA
BRANCH   8  11
HETATM   11  C   UNL     1      43.870 -18.939   3.655  1.00  0.00     0.042 A 
HETATM   12  C   UNL     1      43.760 -19.285   2.295  1.00  0.00    -0.035 A 
HETATM   13  C   UNL     1      43.406 -18.329   1.190  1.00  0.00     0.050 C 
HETATM   14  C   UNL     1      44.051 -20.611   1.905  1.00  0.00     0.011 A 
HETATM   15  C   UNL     1      44.501 -21.558   2.823  1.00  0.00     0.024 A 
HETATM   16  C   UNL     1      44.671 -21.188   4.148  1.00  0.00     0.036 A 
HETATM   17  C   UNL     1      44.369 -19.892   4.561  1.00  0.00     0.053 A 
HETATM   18 CL   UNL     1      45.248 -22.338   5.292  1.00  0.00    -0.084 Cl
ENDBRANCH   8  11
ENDBRANCH   6   7
ENDBRANCH   1   6
BRANCH   5  19
HETATM   19  N   UNL     1      40.117 -15.065   3.608  1.00  0.00    -0.382 N 
HETATM   20  H   UNL     1      39.795 -15.273   4.557  1.00  0.00     0.157 HD
HETATM   21  H   UNL     1      39.349 -14.883   2.965  1.00  0.00     0.157 HD
ENDBRANCH   5  19
BRANCH   4  22
HETATM   22  C   UNL     1      41.259 -12.998   1.456  1.00  0.00     0.275 C 
HETATM   23  N   UNL     1      41.874 -13.145   0.231  1.00  0.00    -0.351 N 
HETATM   24  H   UNL     1      42.717 -13.707   0.188  1.00  0.00     0.163 HD
HETATM   25  O   UNL     1      40.248 -12.324   1.631  1.00  0.00    -0.266 OA
BRANCH  23  26
HETATM   26  C   UNL     1      41.449 -12.422  -0.943  1.00  0.00     0.161 C 
BRANCH  26  27
HETATM   27  C   UNL     1      40.477 -13.161  -1.830  1.00  0.00    -0.040 A 
HETATM   28  C   UNL     1      39.168 -12.733  -2.082  1.00  0.00     0.011 A 
HETATM   29  C   UNL     1      38.327 -13.473  -2.921  1.00  0.00     0.037 A 
HETATM   30  C   UNL     1      38.773 -14.648  -3.529  1.00  0.00     0.068 A 
HETATM   31  C   UNL     1      40.072 -15.084  -3.285  1.00  0.00     0.037 A 
HETATM   32  C   UNL     1      40.913 -14.348  -2.443  1.00  0.00     0.011 A 
BRANCH  30  33
HETATM   33  O   UNL     1      37.853 -15.269  -4.328  1.00  0.00    -0.356 OA
HETATM   34  C   UNL     1      36.546 -14.710  -4.354  1.00  0.00     0.210 C 
ENDBRANCH  30  33
ENDBRANCH  26  27
ENDBRANCH  23  26
ENDBRANCH   4  22
TORSDOF 8
ENDMDL
MODEL 9
REMARK VINA RESULT:      -8.3      5.698      9.100
REMARK  8 active torsions:
REMARK  status: ('A' for Active; 'I' for Inactive)
REMARK    1  A    between atoms: C_3  and  N_4 
REMARK       I    between atoms: N_4  and  C_5 
REMARK    2  A    between atoms: C_5  and  C_6 
REMARK    3  A    between atoms: C_6  and  N_7 
REMARK    4  A    between atoms: C_10  and  C_11 
REMARK       I    between atoms: C_11  and  N_12 
REMARK    5  A    between atoms: N_12  and  C_13 
REMARK    6  A    between atoms: C_13  and  C_14 
REMARK    7  A    between atoms: C_17  and  O_18 
REMARK    8  A    between atoms: C_23  and  N_24 
ROOT
HETATM    1  N   UNL     1      41.038 -14.906   3.225  1.00  0.00    -0.248 N 
HETATM    2  N   UNL     1      42.160 -14.180   3.027  1.00  0.00     0.007 NA
HETATM    3  N   UNL     1      42.218 -13.886   1.737  1.00  0.00    -0.150 NA
HETATM    4  C   UNL     1      41.113 -14.432   1.115  1.00  0.00     0.186 A 
HETATM    5  C   UNL     1      40.350 -15.105   2.058  1.00  0.00     0.151 A 
ENDROOT
BRANCH   1   6
HETATM    6  C   UNL     1      40.727 -15.370   4.556  1.00  0.00     0.251 C 
BRANCH   6   7
HETATM    7  C   UNL     1      41.344 -16.724   4.825  1.00  0.00     0.241 C 
HETATM    8  N   UNL     1      42.563 -16.919   4.199  1.00  0.00    -0.325 N 
HETATM    9  H   UNL     1      42.985 -16.084   3.798  1.00  0.00     0.169 HD
HETATM   10  O   UNL     1      40.811 -17.489   5.625  1.00  0.00    -0.271 OA
BRANCH   8  11
HETATM   11  C   UNL     1      43.397 -18.060   4.216  1.00  0.00     0.042 A 
HETATM   12  C   UNL     1      44.343 -18.389   5.205  1.00  0.00    -0.035 A 
HETATM   13  C   UNL     1      44.551 -17.626   6.484  1.00  0.00     0.050 C 
HETATM   14  C   UNL     1      45.132 -19.547   5.033  1.00  0.00     0.011 A 
HETATM   15  C   UNL     1      44.950 -20.397   3.943  1.00  0.00     0.024 A 
HETATM   16  C   UNL     1      43.968 -20.100   3.010  1.00  0.00     0.036 A 
HETATM   17  C   UNL     1      43.193 -18.951   3.147  1.00  0.00     0.053 A 
HETATM   18 CL   UNL     1      43.713 -21.150   1.671  1.00  0.00    -0.084 Cl
ENDBRANCH   8  11
ENDBRANCH   6   7
ENDBRANCH   1   6
BRANCH   5  19
HETATM   19  N   UNL     1      39.194 -15.801   1.969  1.00  0.00    -0.382 N 
HETATM   20  H   UNL     1      38.315 -15.280   1.904  1.00  0.00     0.157 HD
HETATM   21  H   UNL     1      39.121 -16.742   1.589  1.00  0.00     0.157 HD
ENDBRANCH   5  19
BRANCH   4  22
HETATM   22  C   UNL     1      40.847 -14.287  -0.308  1.00  0.00     0.275 C 
HETATM   23  N   UNL     1      41.985 -14.145  -1.071  1.00  0.00    -0.351 N 
HETATM   24  H   UNL     1      42.879 -14.143  -0.592  1.00  0.00     0.163 HD
HETATM   25  O   UNL     1      39.712 -14.281  -0.776  1.00  0.00    -0.266 OA
BRANCH  23  26
HETATM   26  C   UNL     1      41.943 -13.858  -2.484  1.00  0.00     0.161 C 
BRANCH  26  27
HETATM   27  C   UNL     1      42.123 -12.404  -2.847  1.00  0.00    -0.040 A 
HETATM   28  C   UNL     1      41.645 -11.830  -4.031  1.00  0.00     0.011 A 
HETATM   29  C   UNL     1      41.849 -10.470  -4.293  1.00  0.00     0.037 A 
HETATM   30  C   UNL     1      42.526  -9.657  -3.383  1.00  0.00     0.068 A 
HETATM   31  C   UNL     1      43.007 -10.218  -2.204  1.00  0.00     0.037 A 
HETATM   32  C   UNL     1      42.807 -11.577  -1.941  1.00  0.00     0.011 A 
BRANCH  30  33
HETATM   33  O   UNL     1      42.651  -8.348  -3.761  1.00  0.00    -0.356 OA
HETATM   34  C   UNL     1      42.783  -7.390  -2.718  1.00  0.00     0.210 C 
ENDBRANCH  30  33
ENDBRANCH  26  27
ENDBRANCH  23  26
ENDBRANCH   4  22
TORSDOF 8
ENDMDL
MODEL 10
REMARK VINA RESULT:      -8.3      5.345      9.637
REMARK  8 active torsions:
REMARK  status: ('A' for Active; 'I' for Inactive)
REMARK    1  A    between atoms: C_3  and  N_4 
REMARK       I    between atoms: N_4  and  C_5 
REMARK    2  A    between atoms: C_5  and  C_6 
REMARK    3  A    between atoms: C_6  and  N_7 
REMARK    4  A    between atoms: C_10  and  C_11 
REMARK       I    between atoms: C_11  and  N_12 
REMARK    5  A    between atoms: N_12  and  C_13 
REMARK    6  A    between atoms: C_13  and  C_14 
REMARK    7  A    between atoms: C_17  and  O_18 
REMARK    8  A    between atoms: C_23  and  N_24 
ROOT
HETATM    1  N   UNL     1      41.574 -14.375   3.815  1.00  0.00    -0.248 N 
HETATM    2  N   UNL     1      42.817 -13.846   3.812  1.00  0.00     0.007 NA
HETATM    3  N   UNL     1      43.032 -13.349   2.603  1.00  0.00    -0.150 NA
HETATM    4  C   UNL     1      41.904 -13.566   1.836  1.00  0.00     0.186 A 
HETATM    5  C   UNL     1      40.961 -14.239   2.597  1.00  0.00     0.151 A 
ENDROOT
BRANCH   1   6
HETATM    6  C   UNL     1      41.078 -14.998   5.019  1.00  0.00     0.251 C 
BRANCH   6   7
HETATM    7  C   UNL     1      41.550 -16.430   5.134  1.00  0.00     0.241 C 
HETATM    8  N   UNL     1      42.793 -16.657   4.569  1.00  0.00    -0.325 N 
HETATM    9  H   UNL     1      43.317 -15.820   4.319  1.00  0.00     0.169 HD
HETATM   10  O   UNL     1      40.891 -17.239   5.781  1.00  0.00    -0.271 OA
BRANCH   8  11
HETATM   11  C   UNL     1      43.520 -17.866   4.479  1.00  0.00     0.042 A 
HETATM   12  C   UNL     1      44.453 -18.351   5.414  1.00  0.00    -0.035 A 
HETATM   13  C   UNL     1      44.757 -17.708   6.739  1.00  0.00     0.050 C 
HETATM   14  C   UNL     1      45.128 -19.560   5.137  1.00  0.00     0.011 A 
HETATM   15  C   UNL     1      44.846 -20.305   3.994  1.00  0.00     0.024 A 
HETATM   16  C   UNL     1      43.876 -19.853   3.113  1.00  0.00     0.036 A 
HETATM   17  C   UNL     1      43.212 -18.652   3.354  1.00  0.00     0.053 A 
HETATM   18 CL   UNL     1      43.497 -20.773   1.708  1.00  0.00    -0.084 Cl
ENDBRANCH   8  11
ENDBRANCH   6   7
ENDBRANCH   1   6
BRANCH   5  19
HETATM   19  N   UNL     1      39.715 -14.684   2.322  1.00  0.00    -0.382 N 
HETATM   20  H   UNL     1      38.967 -13.995   2.199  1.00  0.00     0.157 HD
HETATM   21  H   UNL     1      39.511 -15.569   1.864  1.00  0.00     0.157 HD
ENDBRANCH   5  19
BRANCH   4  22
HETATM   22  C   UNL     1      41.787 -13.130   0.452  1.00  0.00     0.275 C 
HETATM   23  N   UNL     1      41.674 -14.168  -0.446  1.00  0.00    -0.351 N 
HETATM   24  H   UNL     1      41.691 -15.114  -0.081  1.00  0.00     0.163 HD
HETATM   25  O   UNL     1      41.801 -11.947   0.123  1.00  0.00    -0.266 OA
BRANCH  23  26
HETATM   26  C   UNL     1      41.677 -13.964  -1.874  1.00  0.00     0.161 C 
BRANCH  26  27
HETATM   27  C   UNL     1      40.377 -14.292  -2.568  1.00  0.00    -0.040 A 
HETATM   28  C   UNL     1      40.177 -15.433  -3.354  1.00  0.00     0.011 A 
HETATM   29  C   UNL     1      38.939 -15.668  -3.964  1.00  0.00     0.037 A 
HETATM   30  C   UNL     1      37.877 -14.777  -3.799  1.00  0.00     0.068 A 
HETATM   31  C   UNL     1      38.065 -13.639  -3.020  1.00  0.00     0.037 A 
HETATM   32  C   UNL     1      39.303 -13.400  -2.413  1.00  0.00     0.011 A 
BRANCH  30  33
HETATM   33  O   UNL     1      36.723 -15.130  -4.443  1.00  0.00    -0.356 OA
HETATM   34  C   UNL     1      35.856 -14.071  -4.829  1.00  0.00     0.210 C 
ENDBRANCH  30  33
ENDBRANCH  26  27
ENDBRANCH  23  26
ENDBRANCH   4  22
TORSDOF 8
ENDMDL
