MODEL 1
REMARK VINA RESULT:      -9.9      0.000      0.000
REMARK  8 active torsions:
REMARK  status: ('A' for Active; 'I' for Inactive)
REMARK       I    between atoms: C_2  and  N_3 
REMARK    1  A    between atoms: N_6  and  C_7 
REMARK    2  A    between atoms: C_8  and  N_9 
REMARK    3  A    between atoms: N_9  and  C_10 
REMARK    4  A    between atoms: C_10  and  N_11 
REMARK       I    between atoms: N_11  and  C_12 
REMARK    5  A    between atoms: C_12  and  C_13 
REMARK    6  A    between atoms: C_15  and  O_16 
REMARK    7  A    between atoms: O_16  and  C_17 
REMARK    8  A    between atoms: C_17  and  C_18 
ROOT
HETATM    1  C   UNL     1      43.912 -16.867   6.828  1.00  0.00     0.179 C 
HETATM    2  S   UNL     1      43.727 -17.881   8.145  1.00  0.00    -0.040 SA
ENDROOT
BRANCH   1   3
HETATM    3  N   UNL     1      43.293 -17.160   5.666  1.00  0.00    -0.331 N 
HETATM    4  H   UNL     1      42.305 -16.922   5.608  1.00  0.00     0.168 HD
BRANCH   3   5
HETATM    5  C   UNL     1      43.687 -18.001   4.598  1.00  0.00     0.061 A 
HETATM    6  C   UNL     1      43.124 -17.707   3.323  1.00  0.00     0.057 A 
HETATM    7  C   UNL     1      43.310 -18.647   2.301  1.00  0.00     0.031 A 
HETATM    8  C   UNL     1      44.072 -19.803   2.507  1.00  0.00     0.002 A 
HETATM    9  C   UNL     1      44.658 -20.045   3.746  1.00  0.00     0.002 A 
HETATM   10  C   UNL     1      44.460 -19.151   4.795  1.00  0.00     0.032 A 
BRANCH   6  11
HETATM   11  N   UNL     1      42.417 -16.500   3.141  1.00  0.00    -0.376 N 
HETATM   12  C   UNL     1      42.937 -15.678   2.005  1.00  0.00     0.143 C 
HETATM   13  C   UNL     1      42.197 -15.994   0.691  1.00  0.00     0.145 C 
HETATM   14  N   UNL     1      40.751 -15.826   0.877  1.00  0.00    -0.349 N 
HETATM   15  C   UNL     1      40.060 -14.668   0.561  1.00  0.00     0.215 C 
HETATM   16  C   UNL     1      40.210 -16.700   1.922  1.00  0.00     0.145 C 
HETATM   17  C   UNL     1      40.710 -13.727  -0.421  1.00  0.00     0.117 C 
HETATM   18  O   UNL     1      38.958 -14.400   1.039  1.00  0.00    -0.274 OA
HETATM   19  C   UNL     1      40.936 -16.474   3.267  1.00  0.00     0.143 C 
ENDBRANCH   6  11
ENDBRANCH   3   5
ENDBRANCH   1   3
BRANCH   1  20
HETATM   20  N   UNL     1      44.644 -15.731   6.992  1.00  0.00    -0.299 N 
HETATM   21  C   UNL     1      44.163 -14.434   6.842  1.00  0.00     0.257 C 
HETATM   22  O   UNL     1      43.153 -14.081   6.248  1.00  0.00    -0.267 OA
HETATM   23  H   UNL     1      45.310 -15.842   7.745  1.00  0.00     0.171 HD
BRANCH  21  24
HETATM   24  C   UNL     1      44.959 -13.410   7.570  1.00  0.00     0.035 A 
HETATM   25  C   UNL     1      44.410 -12.686   8.632  1.00  0.00     0.053 A 
HETATM   26  C   UNL     1      45.157 -11.669   9.219  1.00  0.00     0.070 A 
HETATM   27  C   UNL     1      46.458 -11.397   8.798  1.00  0.00     0.037 A 
HETATM   28  C   UNL     1      47.016 -12.141   7.759  1.00  0.00     0.004 A 
HETATM   29  C   UNL     1      46.268 -13.149   7.144  1.00  0.00     0.017 A 
BRANCH  26  30
HETATM   30  O   UNL     1      44.598 -10.990  10.265  1.00  0.00    -0.347 OA
BRANCH  30  31
HETATM   31  C   UNL     1      43.409 -11.642  10.723  1.00  0.00     0.214 C 
BRANCH  31  32
HETATM   32  C   UNL     1      42.985 -10.964  12.001  1.00  0.00    -0.034 A 
HETATM   33  C   UNL     1      41.774 -11.306  12.619  1.00  0.00     0.009 A 
HETATM   34  C   UNL     1      41.364 -10.650  13.781  1.00  0.00     0.001 A 
HETATM   35  C   UNL     1      42.154  -9.642  14.330  1.00  0.00     0.000 A 
HETATM   36  C   UNL     1      43.354  -9.287  13.719  1.00  0.00     0.001 A 
HETATM   37  C   UNL     1      43.768  -9.942  12.558  1.00  0.00     0.009 A 
ENDBRANCH  31  32
ENDBRANCH  30  31
ENDBRANCH  26  30
ENDBRANCH  21  24
ENDBRANCH   1  20
TORSDOF 8
ENDMDL
MODEL 2
REMARK VINA RESULT:      -9.4      4.748      8.005
REMARK  8 active torsions:
REMARK  status: ('A' for Active; 'I' for Inactive)
REMARK       I    between atoms: C_2  and  N_3 
REMARK    1  A    between atoms: N_6  and  C_7 
REMARK    2  A    between atoms: C_8  and  N_9 
REMARK    3  A    between atoms: N_9  and  C_10 
REMARK    4  A    between atoms: C_10  and  N_11 
REMARK       I    between atoms: N_11  and  C_12 
REMARK    5  A    between atoms: C_12  and  C_13 
REMARK    6  A    between atoms: C_15  and  O_16 
REMARK    7  A    between atoms: O_16  and  C_17 
REMARK    8  A    between atoms: C_17  and  C_18 
ROOT
HETATM    1  C   UNL     1      40.121 -13.523   3.852  1.00  0.00     0.179 C 
HETATM    2  S   UNL     1      39.306 -12.170   4.401  1.00  0.00    -0.040 SA
ENDROOT
BRANCH   1   3
HETATM    3  N   UNL     1      39.801 -14.057   2.655  1.00  0.00    -0.331 N 
HETATM    4  H   UNL     1      38.837 -13.939   2.352  1.00  0.00     0.168 HD
BRANCH   3   5
HETATM    5  C   UNL     1      40.484 -15.005   1.856  1.00  0.00     0.061 A 
HETATM    6  C   UNL     1      40.814 -14.593   0.533  1.00  0.00     0.057 A 
HETATM    7  C   UNL     1      41.281 -15.573  -0.352  1.00  0.00     0.031 A 
HETATM    8  C   UNL     1      41.474 -16.895   0.064  1.00  0.00     0.002 A 
HETATM    9  C   UNL     1      41.195 -17.265   1.376  1.00  0.00     0.002 A 
HETATM   10  C   UNL     1      40.692 -16.325   2.272  1.00  0.00     0.032 A 
BRANCH   6  11
HETATM   11  N   UNL     1      40.666 -13.236   0.174  1.00  0.00    -0.376 N 
HETATM   12  C   UNL     1      41.970 -12.519   0.029  1.00  0.00     0.143 C 
HETATM   13  C   UNL     1      42.485 -12.567  -1.423  1.00  0.00     0.145 C 
HETATM   14  N   UNL     1      41.461 -12.043  -2.335  1.00  0.00    -0.349 N 
HETATM   15  C   UNL     1      41.420 -10.731  -2.779  1.00  0.00     0.215 C 
HETATM   16  C   UNL     1      40.208 -12.800  -2.274  1.00  0.00     0.145 C 
HETATM   17  C   UNL     1      42.701  -9.940  -2.704  1.00  0.00     0.117 C 
HETATM   18  O   UNL     1      40.398 -10.213  -3.229  1.00  0.00    -0.274 OA
HETATM   19  C   UNL     1      39.650 -12.837  -0.834  1.00  0.00     0.143 C 
ENDBRANCH   6  11
ENDBRANCH   3   5
ENDBRANCH   1   3
BRANCH   1  20
HETATM   20  N   UNL     1      41.137 -14.012   4.615  1.00  0.00    -0.299 N 
HETATM   21  C   UNL     1      41.004 -14.968   5.618  1.00  0.00     0.257 C 
HETATM   22  O   UNL     1      39.979 -15.291   6.203  1.00  0.00    -0.267 OA
HETATM   23  H   UNL     1      41.983 -14.101   4.068  1.00  0.00     0.171 HD
BRANCH  21  24
HETATM   24  C   UNL     1      42.260 -15.704   5.916  1.00  0.00     0.035 A 
HETATM   25  C   UNL     1      42.329 -17.096   5.805  1.00  0.00     0.053 A 
HETATM   26  C   UNL     1      43.495 -17.752   6.191  1.00  0.00     0.070 A 
HETATM   27  C   UNL     1      44.608 -17.039   6.637  1.00  0.00     0.037 A 
HETATM   28  C   UNL     1      44.548 -15.648   6.718  1.00  0.00     0.004 A 
HETATM   29  C   UNL     1      43.376 -14.978   6.358  1.00  0.00     0.017 A 
BRANCH  26  30
HETATM   30  O   UNL     1      43.536 -19.110   6.056  1.00  0.00    -0.347 OA
BRANCH  30  31
HETATM   31  C   UNL     1      44.767 -19.530   5.455  1.00  0.00     0.214 C 
BRANCH  31  32
HETATM   32  C   UNL     1      44.425 -20.230   4.164  1.00  0.00    -0.034 A 
HETATM   33  C   UNL     1      44.735 -21.585   3.988  1.00  0.00     0.009 A 
HETATM   34  C   UNL     1      44.453 -22.223   2.779  1.00  0.00     0.001 A 
HETATM   35  C   UNL     1      43.868 -21.511   1.733  1.00  0.00     0.000 A 
HETATM   36  C   UNL     1      43.566 -20.161   1.894  1.00  0.00     0.001 A 
HETATM   37  C   UNL     1      43.845 -19.521   3.102  1.00  0.00     0.009 A 
ENDBRANCH  31  32
ENDBRANCH  30  31
ENDBRANCH  26  30
ENDBRANCH  21  24
ENDBRANCH   1  20
TORSDOF 8
ENDMDL
MODEL 3
REMARK VINA RESULT:      -9.4      3.532      9.481
REMARK  8 active torsions:
REMARK  status: ('A' for Active; 'I' for Inactive)
REMARK       I    between atoms: C_2  and  N_3 
REMARK    1  A    between atoms: N_6  and  C_7 
REMARK    2  A    between atoms: C_8  and  N_9 
REMARK    3  A    between atoms: N_9  and  C_10 
REMARK    4  A    between atoms: C_10  and  N_11 
REMARK       I    between atoms: N_11  and  C_12 
REMARK    5  A    between atoms: C_12  and  C_13 
REMARK    6  A    between atoms: C_15  and  O_16 
REMARK    7  A    between atoms: O_16  and  C_17 
REMARK    8  A    between atoms: C_17  and  C_18 
ROOT
HETATM    1  C   UNL     1      44.942 -12.493   8.358  1.00  0.00     0.179 C 
HETATM    2  S   UNL     1      46.585 -12.507   8.048  1.00  0.00    -0.040 SA
ENDROOT
BRANCH   1   3
HETATM    3  N   UNL     1      44.376 -11.405   8.920  1.00  0.00    -0.331 N 
HETATM    4  H   UNL     1      44.867 -10.523   8.791  1.00  0.00     0.168 HD
BRANCH   3   5
HETATM    5  C   UNL     1      43.364 -11.297   9.904  1.00  0.00     0.061 A 
HETATM    6  C   UNL     1      42.197 -10.571   9.530  1.00  0.00     0.057 A 
HETATM    7  C   UNL     1      41.283 -10.251  10.543  1.00  0.00     0.031 A 
HETATM    8  C   UNL     1      41.479 -10.679  11.860  1.00  0.00     0.002 A 
HETATM    9  C   UNL     1      42.601 -11.431  12.194  1.00  0.00     0.002 A 
HETATM   10  C   UNL     1      43.549 -11.735  11.220  1.00  0.00     0.032 A 
BRANCH   6  11
HETATM   11  N   UNL     1      42.007 -10.214   8.178  1.00  0.00    -0.376 N 
HETATM   12  C   UNL     1      41.462 -11.331   7.345  1.00  0.00     0.143 C 
HETATM   13  C   UNL     1      39.922 -11.297   7.290  1.00  0.00     0.145 C 
HETATM   14  N   UNL     1      39.467  -9.983   6.819  1.00  0.00    -0.349 N 
HETATM   15  C   UNL     1      39.157  -9.699   5.498  1.00  0.00     0.215 C 
HETATM   16  C   UNL     1      39.912  -8.887   7.684  1.00  0.00     0.145 C 
HETATM   17  C   UNL     1      38.832 -10.867   4.603  1.00  0.00     0.117 C 
HETATM   18  O   UNL     1      39.132  -8.552   5.053  1.00  0.00    -0.274 OA
HETATM   19  C   UNL     1      41.451  -8.882   7.828  1.00  0.00     0.143 C 
ENDBRANCH   6  11
ENDBRANCH   3   5
ENDBRANCH   1   3
BRANCH   1  20
HETATM   20  N   UNL     1      44.209 -13.572   7.971  1.00  0.00    -0.299 N 
HETATM   21  C   UNL     1      44.121 -14.064   6.672  1.00  0.00     0.257 C 
HETATM   22  O   UNL     1      44.391 -13.473   5.636  1.00  0.00    -0.267 OA
HETATM   23  H   UNL     1      44.225 -14.289   8.685  1.00  0.00     0.171 HD
BRANCH  21  24
HETATM   24  C   UNL     1      43.726 -15.496   6.597  1.00  0.00     0.035 A 
HETATM   25  C   UNL     1      43.368 -16.087   5.383  1.00  0.00     0.053 A 
HETATM   26  C   UNL     1      42.909 -17.401   5.375  1.00  0.00     0.070 A 
HETATM   27  C   UNL     1      42.850 -18.149   6.550  1.00  0.00     0.037 A 
HETATM   28  C   UNL     1      43.237 -17.568   7.758  1.00  0.00     0.004 A 
HETATM   29  C   UNL     1      43.676 -16.242   7.784  1.00  0.00     0.017 A 
BRANCH  26  30
HETATM   30  O   UNL     1      42.582 -17.955   4.170  1.00  0.00    -0.347 OA
BRANCH  30  31
HETATM   31  C   UNL     1      43.735 -18.075   3.330  1.00  0.00     0.214 C 
BRANCH  31  32
HETATM   32  C   UNL     1      44.003 -19.546   3.137  1.00  0.00    -0.034 A 
HETATM   33  C   UNL     1      43.556 -20.204   1.984  1.00  0.00     0.009 A 
HETATM   34  C   UNL     1      43.770 -21.574   1.824  1.00  0.00     0.001 A 
HETATM   35  C   UNL     1      44.424 -22.300   2.817  1.00  0.00     0.000 A 
HETATM   36  C   UNL     1      44.863 -21.658   3.973  1.00  0.00     0.001 A 
HETATM   37  C   UNL     1      44.652 -20.288   4.135  1.00  0.00     0.009 A 
ENDBRANCH  31  32
ENDBRANCH  30  31
ENDBRANCH  26  30
ENDBRANCH  21  24
ENDBRANCH   1  20
TORSDOF 8
ENDMDL
MODEL 4
REMARK VINA RESULT:      -9.2      5.709      9.089
REMARK  8 active torsions:
REMARK  status: ('A' for Active; 'I' for Inactive)
REMARK       I    between atoms: C_2  and  N_3 
REMARK    1  A    between atoms: N_6  and  C_7 
REMARK    2  A    between atoms: C_8  and  N_9 
REMARK    3  A    between atoms: N_9  and  C_10 
REMARK    4  A    between atoms: C_10  and  N_11 
REMARK       I    between atoms: N_11  and  C_12 
REMARK    5  A    between atoms: C_12  and  C_13 
REMARK    6  A    between atoms: C_15  and  O_16 
REMARK    7  A    between atoms: O_16  and  C_17 
REMARK    8  A    between atoms: C_17  and  C_18 
ROOT
HETATM    1  C   UNL     1      41.447 -12.053   1.837  1.00  0.00     0.179 C 
HETATM    2  S   UNL     1      40.332 -10.877   2.249  1.00  0.00    -0.040 SA
ENDROOT
BRANCH   1   3
HETATM    3  N   UNL     1      42.419 -11.771   0.945  1.00  0.00    -0.331 N 
HETATM    4  H   UNL     1      43.368 -12.018   1.217  1.00  0.00     0.168 HD
BRANCH   3   5
HETATM    5  C   UNL     1      42.407 -10.931  -0.194  1.00  0.00     0.061 A 
HETATM    6  C   UNL     1      41.902 -11.506  -1.396  1.00  0.00     0.057 A 
HETATM    7  C   UNL     1      42.087 -10.787  -2.584  1.00  0.00     0.031 A 
HETATM    8  C   UNL     1      42.690  -9.525  -2.583  1.00  0.00     0.002 A 
HETATM    9  C   UNL     1      43.130  -8.958  -1.391  1.00  0.00     0.002 A 
HETATM   10  C   UNL     1      42.997  -9.663  -0.196  1.00  0.00     0.032 A 
BRANCH   6  11
HETATM   11  N   UNL     1      41.243 -12.752  -1.343  1.00  0.00    -0.376 N 
HETATM   12  C   UNL     1      39.755 -12.636  -1.443  1.00  0.00     0.143 C 
HETATM   13  C   UNL     1      39.275 -12.750  -2.903  1.00  0.00     0.145 C 
HETATM   14  N   UNL     1      39.773 -13.995  -3.499  1.00  0.00    -0.349 N 
HETATM   15  C   UNL     1      39.045 -15.172  -3.552  1.00  0.00     0.215 C 
HETATM   16  C   UNL     1      41.236 -14.076  -3.497  1.00  0.00     0.145 C 
HETATM   17  C   UNL     1      37.548 -15.061  -3.418  1.00  0.00     0.117 C 
HETATM   18  O   UNL     1      39.572 -16.273  -3.710  1.00  0.00    -0.274 OA
HETATM   19  C   UNL     1      41.799 -13.924  -2.066  1.00  0.00     0.143 C 
ENDBRANCH   6  11
ENDBRANCH   3   5
ENDBRANCH   1   3
BRANCH   1  20
HETATM   20  N   UNL     1      41.374 -13.255   2.471  1.00  0.00    -0.299 N 
HETATM   21  C   UNL     1      42.440 -13.914   3.078  1.00  0.00     0.257 C 
HETATM   22  O   UNL     1      43.633 -13.725   2.887  1.00  0.00    -0.267 OA
HETATM   23  H   UNL     1      40.496 -13.344   2.967  1.00  0.00     0.171 HD
BRANCH  21  24
HETATM   24  C   UNL     1      42.028 -14.888   4.123  1.00  0.00     0.035 A 
HETATM   25  C   UNL     1      42.687 -16.111   4.275  1.00  0.00     0.053 A 
HETATM   26  C   UNL     1      42.204 -17.033   5.199  1.00  0.00     0.070 A 
HETATM   27  C   UNL     1      41.107 -16.736   6.006  1.00  0.00     0.037 A 
HETATM   28  C   UNL     1      40.469 -15.503   5.875  1.00  0.00     0.004 A 
HETATM   29  C   UNL     1      40.927 -14.577   4.934  1.00  0.00     0.017 A 
BRANCH  26  30
HETATM   30  O   UNL     1      42.880 -18.212   5.335  1.00  0.00    -0.347 OA
BRANCH  30  31
HETATM   31  C   UNL     1      44.092 -18.201   4.571  1.00  0.00     0.214 C 
BRANCH  31  32
HETATM   32  C   UNL     1      44.141 -19.483   3.781  1.00  0.00    -0.034 A 
HETATM   33  C   UNL     1      43.580 -19.549   2.498  1.00  0.00     0.009 A 
HETATM   34  C   UNL     1      43.591 -20.747   1.782  1.00  0.00     0.001 A 
HETATM   35  C   UNL     1      44.154 -21.892   2.344  1.00  0.00     0.000 A 
HETATM   36  C   UNL     1      44.705 -21.840   3.623  1.00  0.00     0.001 A 
HETATM   37  C   UNL     1      44.697 -20.644   4.340  1.00  0.00     0.009 A 
ENDBRANCH  31  32
ENDBRANCH  30  31
ENDBRANCH  26  30
ENDBRANCH  21  24
ENDBRANCH   1  20
TORSDOF 8
ENDMDL
MODEL 5
REMARK VINA RESULT:      -9.1      3.640     10.975
REMARK  8 active torsions:
REMARK  status: ('A' for Active; 'I' for Inactive)
REMARK       I    between atoms: C_2  and  N_3 
REMARK    1  A    between atoms: N_6  and  C_7 
REMARK    2  A    between atoms: C_8  and  N_9 
REMARK    3  A    between atoms: N_9  and  C_10 
REMARK    4  A    between atoms: C_10  and  N_11 
REMARK       I    between atoms: N_11  and  C_12 
REMARK    5  A    between atoms: C_12  and  C_13 
REMARK    6  A    between atoms: C_15  and  O_16 
REMARK    7  A    between atoms: O_16  and  C_17 
REMARK    8  A    between atoms: C_17  and  C_18 
ROOT
HETATM    1  C   UNL     1      41.540 -11.176   7.445  1.00  0.00     0.179 C 
HETATM    2  S   UNL     1      41.225  -9.708   6.708  1.00  0.00    -0.040 SA
ENDROOT
BRANCH   1   3
HETATM    3  N   UNL     1      41.936 -11.206   8.734  1.00  0.00    -0.331 N 
HETATM    4  H   UNL     1      41.257 -10.891   9.423  1.00  0.00     0.168 HD
BRANCH   3   5
HETATM    5  C   UNL     1      43.229 -11.328   9.299  1.00  0.00     0.061 A 
HETATM    6  C   UNL     1      43.410 -10.749  10.587  1.00  0.00     0.057 A 
HETATM    7  C   UNL     1      44.720 -10.651  11.073  1.00  0.00     0.031 A 
HETATM    8  C   UNL     1      45.804 -11.156  10.347  1.00  0.00     0.002 A 
HETATM    9  C   UNL     1      45.599 -11.764   9.113  1.00  0.00     0.002 A 
HETATM   10  C   UNL     1      44.314 -11.844   8.582  1.00  0.00     0.032 A 
BRANCH   6  11
HETATM   11  N   UNL     1      42.283 -10.311  11.314  1.00  0.00    -0.376 N 
HETATM   12  C   UNL     1      42.177 -10.933  12.671  1.00  0.00     0.143 C 
HETATM   13  C   UNL     1      42.868 -10.070  13.745  1.00  0.00     0.145 C 
HETATM   14  N   UNL     1      42.324  -8.707  13.718  1.00  0.00    -0.349 N 
HETATM   15  C   UNL     1      41.302  -8.266  14.543  1.00  0.00     0.215 C 
HETATM   16  C   UNL     1      42.510  -8.049  12.422  1.00  0.00     0.145 C 
HETATM   17  C   UNL     1      41.054  -9.049  15.807  1.00  0.00     0.117 C 
HETATM   18  O   UNL     1      40.618  -7.276  14.283  1.00  0.00    -0.274 OA
HETATM   19  C   UNL     1      41.882  -8.880  11.282  1.00  0.00     0.143 C 
ENDBRANCH   6  11
ENDBRANCH   3   5
ENDBRANCH   1   3
BRANCH   1  20
HETATM   20  N   UNL     1      41.326 -12.311   6.726  1.00  0.00    -0.299 N 
HETATM   21  C   UNL     1      40.106 -12.706   6.186  1.00  0.00     0.257 C 
HETATM   22  O   UNL     1      38.992 -12.315   6.507  1.00  0.00    -0.267 OA
HETATM   23  H   UNL     1      42.125 -12.519   6.141  1.00  0.00     0.171 HD
BRANCH  21  24
HETATM   24  C   UNL     1      40.231 -13.646   5.041  1.00  0.00     0.035 A 
HETATM   25  C   UNL     1      40.801 -14.912   5.201  1.00  0.00     0.053 A 
HETATM   26  C   UNL     1      40.989 -15.719   4.083  1.00  0.00     0.070 A 
HETATM   27  C   UNL     1      40.574 -15.305   2.818  1.00  0.00     0.037 A 
HETATM   28  C   UNL     1      39.978 -14.053   2.664  1.00  0.00     0.004 A 
HETATM   29  C   UNL     1      39.805 -13.222   3.774  1.00  0.00     0.017 A 
BRANCH  26  30
HETATM   30  O   UNL     1      41.534 -16.957   4.275  1.00  0.00    -0.347 OA
BRANCH  30  31
HETATM   31  C   UNL     1      42.959 -16.919   4.133  1.00  0.00     0.214 C 
BRANCH  31  32
HETATM   32  C   UNL     1      43.394 -18.253   3.581  1.00  0.00    -0.034 A 
HETATM   33  C   UNL     1      42.835 -18.746   2.394  1.00  0.00     0.009 A 
HETATM   34  C   UNL     1      43.210 -19.998   1.904  1.00  0.00     0.001 A 
HETATM   35  C   UNL     1      44.138 -20.771   2.599  1.00  0.00     0.000 A 
HETATM   36  C   UNL     1      44.692 -20.295   3.785  1.00  0.00     0.001 A 
HETATM   37  C   UNL     1      44.321 -19.043   4.277  1.00  0.00     0.009 A 
ENDBRANCH  31  32
ENDBRANCH  30  31
ENDBRANCH  26  30
ENDBRANCH  21  24
ENDBRANCH   1  20
TORSDOF 8
ENDMDL
MODEL 6
REMARK VINA RESULT:      -8.7      4.399      8.471
REMARK  8 active torsions:
REMARK  status: ('A' for Active; 'I' for Inactive)
REMARK       I    between atoms: C_2  and  N_3 
REMARK    1  A    between atoms: N_6  and  C_7 
REMARK    2  A    between atoms: C_8  and  N_9 
REMARK    3  A    between atoms: N_9  and  C_10 
REMARK    4  A    between atoms: C_10  and  N_11 
REMARK       I    between atoms: N_11  and  C_12 
REMARK    5  A    between atoms: C_12  and  C_13 
REMARK    6  A    between atoms: C_15  and  O_16 
REMARK    7  A    between atoms: O_16  and  C_17 
REMARK    8  A    between atoms: C_17  and  C_18 
ROOT
HETATM    1  C   UNL     1      41.003 -11.656   5.388  1.00  0.00     0.179 C 
HETATM    2  S   UNL     1      40.877 -10.755   6.791  1.00  0.00    -0.040 SA
ENDROOT
BRANCH   1   3
HETATM    3  N   UNL     1      40.677 -11.098   4.204  1.00  0.00    -0.331 N 
HETATM    4  H   UNL     1      41.304 -10.375   3.857  1.00  0.00     0.168 HD
BRANCH   3   5
HETATM    5  C   UNL     1      39.464 -11.126   3.474  1.00  0.00     0.061 A 
HETATM    6  C   UNL     1      39.385 -12.081   2.421  1.00  0.00     0.057 A 
HETATM    7  C   UNL     1      38.300 -11.983   1.540  1.00  0.00     0.031 A 
HETATM    8  C   UNL     1      37.300 -11.021   1.723  1.00  0.00     0.002 A 
HETATM    9  C   UNL     1      37.370 -10.131   2.789  1.00  0.00     0.002 A 
HETATM   10  C   UNL     1      38.455 -10.175   3.661  1.00  0.00     0.032 A 
BRANCH   6  11
HETATM   11  N   UNL     1      40.381 -13.075   2.311  1.00  0.00    -0.376 N 
HETATM   12  C   UNL     1      39.963 -14.393   2.880  1.00  0.00     0.143 C 
HETATM   13  C   UNL     1      39.325 -15.297   1.807  1.00  0.00     0.145 C 
HETATM   14  N   UNL     1      40.242 -15.451   0.672  1.00  0.00    -0.349 N 
HETATM   15  C   UNL     1      41.118 -16.514   0.524  1.00  0.00     0.215 C 
HETATM   16  C   UNL     1      40.582 -14.172   0.042  1.00  0.00     0.145 C 
HETATM   17  C   UNL     1      40.807 -17.772   1.292  1.00  0.00     0.117 C 
HETATM   18  O   UNL     1      42.109 -16.462  -0.205  1.00  0.00    -0.274 OA
HETATM   19  C   UNL     1      41.188 -13.190   1.069  1.00  0.00     0.143 C 
ENDBRANCH   6  11
ENDBRANCH   3   5
ENDBRANCH   1   3
BRANCH   1  20
HETATM   20  N   UNL     1      41.495 -12.921   5.481  1.00  0.00    -0.299 N 
HETATM   21  C   UNL     1      42.644 -13.388   4.849  1.00  0.00     0.257 C 
HETATM   22  O   UNL     1      43.214 -12.893   3.887  1.00  0.00    -0.267 OA
HETATM   23  H   UNL     1      41.355 -13.290   6.413  1.00  0.00     0.171 HD
BRANCH  21  24
HETATM   24  C   UNL     1      43.249 -14.578   5.505  1.00  0.00     0.035 A 
HETATM   25  C   UNL     1      43.017 -15.868   5.022  1.00  0.00     0.053 A 
HETATM   26  C   UNL     1      43.522 -16.958   5.727  1.00  0.00     0.070 A 
HETATM   27  C   UNL     1      44.293 -16.779   6.874  1.00  0.00     0.037 A 
HETATM   28  C   UNL     1      44.548 -15.488   7.338  1.00  0.00     0.004 A 
HETATM   29  C   UNL     1      44.028 -14.386   6.655  1.00  0.00     0.017 A 
BRANCH  26  30
HETATM   30  O   UNL     1      43.292 -18.206   5.220  1.00  0.00    -0.347 OA
BRANCH  30  31
HETATM   31  C   UNL     1      44.516 -18.933   5.070  1.00  0.00     0.214 C 
BRANCH  31  32
HETATM   32  C   UNL     1      44.307 -19.950   3.976  1.00  0.00    -0.034 A 
HETATM   33  C   UNL     1      44.733 -21.274   4.148  1.00  0.00     0.009 A 
HETATM   34  C   UNL     1      44.574 -22.206   3.120  1.00  0.00     0.001 A 
HETATM   35  C   UNL     1      43.998 -21.821   1.911  1.00  0.00     0.000 A 
HETATM   36  C   UNL     1      43.581 -20.504   1.726  1.00  0.00     0.001 A 
HETATM   37  C   UNL     1      43.737 -19.571   2.752  1.00  0.00     0.009 A 
ENDBRANCH  31  32
ENDBRANCH  30  31
ENDBRANCH  26  30
ENDBRANCH  21  24
ENDBRANCH   1  20
TORSDOF 8
ENDMDL
MODEL 7
REMARK VINA RESULT:      -8.7      4.642      8.446
REMARK  8 active torsions:
REMARK  status: ('A' for Active; 'I' for Inactive)
REMARK       I    between atoms: C_2  and  N_3 
REMARK    1  A    between atoms: N_6  and  C_7 
REMARK    2  A    between atoms: C_8  and  N_9 
REMARK    3  A    between atoms: N_9  and  C_10 
REMARK    4  A    between atoms: C_10  and  N_11 
REMARK       I    between atoms: N_11  and  C_12 
REMARK    5  A    between atoms: C_12  and  C_13 
REMARK    6  A    between atoms: C_15  and  O_16 
REMARK    7  A    between atoms: O_16  and  C_17 
REMARK    8  A    between atoms: C_17  and  C_18 
ROOT
HETATM    1  C   UNL     1      40.500 -13.296   3.093  1.00  0.00     0.179 C 
HETATM    2  S   UNL     1      39.853 -12.156   4.131  1.00  0.00    -0.040 SA
ENDROOT
BRANCH   1   3
HETATM    3  N   UNL     1      40.218 -13.236   1.775  1.00  0.00    -0.331 N 
HETATM    4  H   UNL     1      39.376 -12.728   1.516  1.00  0.00     0.168 HD
BRANCH   3   5
HETATM    5  C   UNL     1      40.724 -13.991   0.689  1.00  0.00     0.061 A 
HETATM    6  C   UNL     1      40.997 -13.268  -0.507  1.00  0.00     0.057 A 
HETATM    7  C   UNL     1      41.278 -14.010  -1.662  1.00  0.00     0.031 A 
HETATM    8  C   UNL     1      41.347 -15.407  -1.628  1.00  0.00     0.002 A 
HETATM    9  C   UNL     1      41.128 -16.091  -0.437  1.00  0.00     0.002 A 
HETATM   10  C   UNL     1      40.808 -15.386   0.722  1.00  0.00     0.032 A 
BRANCH   6  11
HETATM   11  N   UNL     1      40.979 -11.857  -0.483  1.00  0.00    -0.376 N 
HETATM   12  C   UNL     1      42.260 -11.260   0.010  1.00  0.00     0.143 C 
HETATM   13  C   UNL     1      43.228 -10.958  -1.151  1.00  0.00     0.145 C 
HETATM   14  N   UNL     1      42.566 -10.105  -2.145  1.00  0.00    -0.349 N 
HETATM   15  C   UNL     1      42.679  -8.724  -2.176  1.00  0.00     0.215 C 
HETATM   16  C   UNL     1      41.363 -10.722  -2.710  1.00  0.00     0.145 C 
HETATM   17  C   UNL     1      43.863  -8.115  -1.470  1.00  0.00     0.117 C 
HETATM   18  O   UNL     1      41.866  -8.004  -2.756  1.00  0.00    -0.274 OA
HETATM   19  C   UNL     1      40.358 -11.097  -1.598  1.00  0.00     0.143 C 
ENDBRANCH   6  11
ENDBRANCH   3   5
ENDBRANCH   1   3
BRANCH   1  20
HETATM   20  N   UNL     1      41.349 -14.225   3.610  1.00  0.00    -0.299 N 
HETATM   21  C   UNL     1      42.723 -14.066   3.762  1.00  0.00     0.257 C 
HETATM   22  O   UNL     1      43.443 -13.255   3.195  1.00  0.00    -0.267 OA
HETATM   23  H   UNL     1      40.905 -14.734   4.364  1.00  0.00     0.171 HD
BRANCH  21  24
HETATM   24  C   UNL     1      43.320 -14.949   4.799  1.00  0.00     0.035 A 
HETATM   25  C   UNL     1      43.201 -16.339   4.722  1.00  0.00     0.053 A 
HETATM   26  C   UNL     1      43.688 -17.122   5.766  1.00  0.00     0.070 A 
HETATM   27  C   UNL     1      44.333 -16.543   6.859  1.00  0.00     0.037 A 
HETATM   28  C   UNL     1      44.477 -15.157   6.919  1.00  0.00     0.004 A 
HETATM   29  C   UNL     1      43.972 -14.358   5.891  1.00  0.00     0.017 A 
BRANCH  26  30
HETATM   30  O   UNL     1      43.571 -18.478   5.654  1.00  0.00    -0.347 OA
BRANCH  30  31
HETATM   31  C   UNL     1      44.788 -19.060   5.171  1.00  0.00     0.214 C 
BRANCH  31  32
HETATM   32  C   UNL     1      44.428 -19.980   4.032  1.00  0.00    -0.034 A 
HETATM   33  C   UNL     1      44.799 -21.331   4.066  1.00  0.00     0.009 A 
HETATM   34  C   UNL     1      44.499 -22.174   2.994  1.00  0.00     0.001 A 
HETATM   35  C   UNL     1      43.836 -21.673   1.876  1.00  0.00     0.000 A 
HETATM   36  C   UNL     1      43.472 -20.329   1.827  1.00  0.00     0.001 A 
HETATM   37  C   UNL     1      43.769 -19.484   2.897  1.00  0.00     0.009 A 
ENDBRANCH  31  32
ENDBRANCH  30  31
ENDBRANCH  26  30
ENDBRANCH  21  24
ENDBRANCH   1  20
TORSDOF 8
ENDMDL
MODEL 8
REMARK VINA RESULT:      -8.7      3.431      5.530
REMARK  8 active torsions:
REMARK  status: ('A' for Active; 'I' for Inactive)
REMARK       I    between atoms: C_2  and  N_3 
REMARK    1  A    between atoms: N_6  and  C_7 
REMARK    2  A    between atoms: C_8  and  N_9 
REMARK    3  A    between atoms: N_9  and  C_10 
REMARK    4  A    between atoms: C_10  and  N_11 
REMARK       I    between atoms: N_11  and  C_12 
REMARK    5  A    between atoms: C_12  and  C_13 
REMARK    6  A    between atoms: C_15  and  O_16 
REMARK    7  A    between atoms: O_16  and  C_17 
REMARK    8  A    between atoms: C_17  and  C_18 
ROOT
HETATM    1  C   UNL     1      40.771 -15.503   3.568  1.00  0.00     0.179 C 
HETATM    2  S   UNL     1      40.454 -16.096   2.036  1.00  0.00    -0.040 SA
ENDROOT
BRANCH   1   3
HETATM    3  N   UNL     1      41.451 -16.262   4.451  1.00  0.00    -0.331 N 
HETATM    4  H   UNL     1      40.944 -17.045   4.858  1.00  0.00     0.168 HD
BRANCH   3   5
HETATM    5  C   UNL     1      42.660 -16.012   5.144  1.00  0.00     0.061 A 
HETATM    6  C   UNL     1      43.379 -17.158   5.590  1.00  0.00     0.057 A 
HETATM    7  C   UNL     1      44.450 -16.947   6.468  1.00  0.00     0.031 A 
HETATM    8  C   UNL     1      44.837 -15.657   6.845  1.00  0.00     0.002 A 
HETATM    9  C   UNL     1      44.154 -14.548   6.356  1.00  0.00     0.002 A 
HETATM   10  C   UNL     1      43.059 -14.723   5.512  1.00  0.00     0.032 A 
BRANCH   6  11
HETATM   11  N   UNL     1      42.995 -18.437   5.134  1.00  0.00    -0.376 N 
HETATM   12  C   UNL     1      42.970 -18.548   3.643  1.00  0.00     0.143 C 
HETATM   13  C   UNL     1      44.318 -19.053   3.090  1.00  0.00     0.145 C 
HETATM   14  N   UNL     1      44.678 -20.323   3.734  1.00  0.00    -0.349 N 
HETATM   15  C   UNL     1      44.405 -21.569   3.193  1.00  0.00     0.215 C 
HETATM   16  C   UNL     1      44.803 -20.204   5.189  1.00  0.00     0.145 C 
HETATM   17  C   UNL     1      44.152 -21.633   1.708  1.00  0.00     0.117 C 
HETATM   18  O   UNL     1      44.375 -22.595   3.871  1.00  0.00    -0.274 OA
HETATM   19  C   UNL     1      43.501 -19.656   5.815  1.00  0.00     0.143 C 
ENDBRANCH   6  11
ENDBRANCH   3   5
ENDBRANCH   1   3
BRANCH   1  20
HETATM   20  N   UNL     1      40.380 -14.231   3.855  1.00  0.00    -0.299 N 
HETATM   21  C   UNL     1      39.911 -13.792   5.090  1.00  0.00     0.257 C 
HETATM   22  O   UNL     1      39.469 -14.477   6.002  1.00  0.00    -0.267 OA
HETATM   23  H   UNL     1      40.963 -13.561   3.371  1.00  0.00     0.171 HD
BRANCH  21  24
HETATM   24  C   UNL     1      40.061 -12.328   5.303  1.00  0.00     0.035 A 
HETATM   25  C   UNL     1      41.008 -11.818   6.195  1.00  0.00     0.053 A 
HETATM   26  C   UNL     1      41.045 -10.448   6.437  1.00  0.00     0.070 A 
HETATM   27  C   UNL     1      40.188  -9.575   5.768  1.00  0.00     0.037 A 
HETATM   28  C   UNL     1      39.264 -10.083   4.855  1.00  0.00     0.004 A 
HETATM   29  C   UNL     1      39.199 -11.458   4.620  1.00  0.00     0.017 A 
BRANCH  26  30
HETATM   30  O   UNL     1      41.993  -9.980   7.303  1.00  0.00    -0.347 OA
BRANCH  30  31
HETATM   31  C   UNL     1      41.662 -10.311   8.656  1.00  0.00     0.214 C 
BRANCH  31  32
HETATM   32  C   UNL     1      42.928 -10.772   9.332  1.00  0.00    -0.034 A 
HETATM   33  C   UNL     1      43.265 -10.299  10.607  1.00  0.00     0.009 A 
HETATM   34  C   UNL     1      44.456 -10.697  11.217  1.00  0.00     0.001 A 
HETATM   35  C   UNL     1      45.325 -11.562  10.554  1.00  0.00     0.000 A 
HETATM   36  C   UNL     1      45.005 -12.030   9.281  1.00  0.00     0.001 A 
HETATM   37  C   UNL     1      43.814 -11.636   8.671  1.00  0.00     0.009 A 
ENDBRANCH  31  32
ENDBRANCH  30  31
ENDBRANCH  26  30
ENDBRANCH  21  24
ENDBRANCH   1  20
TORSDOF 8
ENDMDL
MODEL 9
REMARK VINA RESULT:      -8.5      4.637      8.711
REMARK  8 active torsions:
REMARK  status: ('A' for Active; 'I' for Inactive)
REMARK       I    between atoms: C_2  and  N_3 
REMARK    1  A    between atoms: N_6  and  C_7 
REMARK    2  A    between atoms: C_8  and  N_9 
REMARK    3  A    between atoms: N_9  and  C_10 
REMARK    4  A    between atoms: C_10  and  N_11 
REMARK       I    between atoms: N_11  and  C_12 
REMARK    5  A    between atoms: C_12  and  C_13 
REMARK    6  A    between atoms: C_15  and  O_16 
REMARK    7  A    between atoms: O_16  and  C_17 
REMARK    8  A    between atoms: C_17  and  C_18 
ROOT
HETATM    1  C   UNL     1      41.610 -15.189   1.695  1.00  0.00     0.179 C 
HETATM    2  S   UNL     1      41.693 -16.487   0.644  1.00  0.00    -0.040 SA
ENDROOT
BRANCH   1   3
HETATM    3  N   UNL     1      40.736 -14.190   1.457  1.00  0.00    -0.331 N 
HETATM    4  H   UNL     1      39.749 -14.421   1.552  1.00  0.00     0.168 HD
BRANCH   3   5
HETATM    5  C   UNL     1      40.916 -12.939   0.819  1.00  0.00     0.061 A 
HETATM    6  C   UNL     1      40.459 -12.846  -0.527  1.00  0.00     0.057 A 
HETATM    7  C   UNL     1      40.824 -11.707  -1.256  1.00  0.00     0.031 A 
HETATM    8  C   UNL     1      41.560 -10.673  -0.668  1.00  0.00     0.002 A 
HETATM    9  C   UNL     1      41.952 -10.760   0.664  1.00  0.00     0.002 A 
HETATM   10  C   UNL     1      41.639 -11.896   1.407  1.00  0.00     0.032 A 
BRANCH   6  11
HETATM   11  N   UNL     1      39.665 -13.883  -1.061  1.00  0.00    -0.376 N 
HETATM   12  C   UNL     1      38.237 -13.487  -1.265  1.00  0.00     0.143 C 
HETATM   13  C   UNL     1      37.999 -12.939  -2.685  1.00  0.00     0.145 C 
HETATM   14  N   UNL     1      38.448 -13.918  -3.682  1.00  0.00    -0.349 N 
HETATM   15  C   UNL     1      37.613 -14.840  -4.292  1.00  0.00     0.215 C 
HETATM   16  C   UNL     1      39.872 -14.241  -3.556  1.00  0.00     0.145 C 
HETATM   17  C   UNL     1      36.136 -14.538  -4.287  1.00  0.00     0.117 C 
HETATM   18  O   UNL     1      38.033 -15.864  -4.830  1.00  0.00    -0.274 OA
HETATM   19  C   UNL     1      40.201 -14.756  -2.137  1.00  0.00     0.143 C 
ENDBRANCH   6  11
ENDBRANCH   3   5
ENDBRANCH   1   3
BRANCH   1  20
HETATM   20  N   UNL     1      42.398 -15.213   2.805  1.00  0.00    -0.299 N 
HETATM   21  C   UNL     1      41.939 -15.278   4.118  1.00  0.00     0.257 C 
HETATM   22  O   UNL     1      40.818 -15.006   4.526  1.00  0.00    -0.267 OA
HETATM   23  H   UNL     1      43.240 -15.747   2.634  1.00  0.00     0.171 HD
BRANCH  21  24
HETATM   24  C   UNL     1      42.938 -15.819   5.077  1.00  0.00     0.035 A 
HETATM   25  C   UNL     1      43.612 -17.017   4.823  1.00  0.00     0.053 A 
HETATM   26  C   UNL     1      44.464 -17.537   5.794  1.00  0.00     0.070 A 
HETATM   27  C   UNL     1      44.691 -16.857   6.990  1.00  0.00     0.037 A 
HETATM   28  C   UNL     1      44.040 -15.647   7.229  1.00  0.00     0.004 A 
HETATM   29  C   UNL     1      43.164 -15.126   6.274  1.00  0.00     0.017 A 
BRANCH  26  30
HETATM   30  O   UNL     1      45.120 -18.700   5.508  1.00  0.00    -0.347 OA
BRANCH  30  31
HETATM   31  C   UNL     1      44.240 -19.825   5.614  1.00  0.00     0.214 C 
BRANCH  31  32
HETATM   32  C   UNL     1      44.320 -20.586   4.315  1.00  0.00    -0.034 A 
HETATM   33  C   UNL     1      43.957 -19.972   3.109  1.00  0.00     0.009 A 
HETATM   34  C   UNL     1      43.994 -20.689   1.912  1.00  0.00     0.001 A 
HETATM   35  C   UNL     1      44.385 -22.026   1.910  1.00  0.00     0.000 A 
HETATM   36  C   UNL     1      44.738 -22.650   3.105  1.00  0.00     0.001 A 
HETATM   37  C   UNL     1      44.703 -21.936   4.303  1.00  0.00     0.009 A 
ENDBRANCH  31  32
ENDBRANCH  30  31
ENDBRANCH  26  30
ENDBRANCH  21  24
ENDBRANCH   1  20
TORSDOF 8
ENDMDL
MODEL 10
REMARK VINA RESULT:      -8.5      3.579     10.650
REMARK  8 active torsions:
REMARK  status: ('A' for Active; 'I' for Inactive)
REMARK       I    between atoms: C_2  and  N_3 
REMARK    1  A    between atoms: N_6  and  C_7 
REMARK    2  A    between atoms: C_8  and  N_9 
REMARK    3  A    between atoms: N_9  and  C_10 
REMARK    4  A    between atoms: C_10  and  N_11 
REMARK       I    between atoms: N_11  and  C_12 
REMARK    5  A    between atoms: C_12  and  C_13 
REMARK    6  A    between atoms: C_15  and  O_16 
REMARK    7  A    between atoms: O_16  and  C_17 
REMARK    8  A    between atoms: C_17  and  C_18 
ROOT
HETATM    1  C   UNL     1      42.009 -13.165   5.661  1.00  0.00     0.179 C 
HETATM    2  S   UNL     1      43.362 -13.739   6.459  1.00  0.00    -0.040 SA
ENDROOT
BRANCH   1   3
HETATM    3  N   UNL     1      41.278 -12.174   6.212  1.00  0.00    -0.331 N 
HETATM    4  H   UNL     1      40.337 -12.420   6.512  1.00  0.00     0.168 HD
BRANCH   3   5
HETATM    5  C   UNL     1      41.468 -10.772   6.198  1.00  0.00     0.061 A 
HETATM    6  C   UNL     1      41.413 -10.116   7.462  1.00  0.00     0.057 A 
HETATM    7  C   UNL     1      41.369  -8.716   7.463  1.00  0.00     0.031 A 
HETATM    8  C   UNL     1      41.437  -7.987   6.271  1.00  0.00     0.002 A 
HETATM    9  C   UNL     1      41.543  -8.645   5.050  1.00  0.00     0.002 A 
HETATM   10  C   UNL     1      41.550 -10.038   5.010  1.00  0.00     0.032 A 
BRANCH   6  11
HETATM   11  N   UNL     1      41.411 -10.889   8.643  1.00  0.00    -0.376 N 
HETATM   12  C   UNL     1      42.699 -10.813   9.399  1.00  0.00     0.143 C 
HETATM   13  C   UNL     1      42.671  -9.691  10.455  1.00  0.00     0.145 C 
HETATM   14  N   UNL     1      41.517  -9.870  11.345  1.00  0.00    -0.349 N 
HETATM   15  C   UNL     1      41.577 -10.519  12.567  1.00  0.00     0.215 C 
HETATM   16  C   UNL     1      40.240  -9.847  10.627  1.00  0.00     0.145 C 
HETATM   17  C   UNL     1      42.933 -10.640  13.216  1.00  0.00     0.117 C 
HETATM   18  O   UNL     1      40.581 -10.978  13.125  1.00  0.00    -0.274 OA
HETATM   19  C   UNL     1      40.209 -10.918   9.515  1.00  0.00     0.143 C 
ENDBRANCH   6  11
ENDBRANCH   3   5
ENDBRANCH   1   3
BRANCH   1  20
HETATM   20  N   UNL     1      41.720 -13.683   4.436  1.00  0.00    -0.299 N 
HETATM   21  C   UNL     1      42.633 -13.859   3.399  1.00  0.00     0.257 C 
HETATM   22  O   UNL     1      43.721 -13.315   3.269  1.00  0.00    -0.267 OA
HETATM   23  H   UNL     1      41.034 -14.422   4.514  1.00  0.00     0.171 HD
BRANCH  21  24
HETATM   24  C   UNL     1      42.227 -14.892   2.411  1.00  0.00     0.035 A 
HETATM   25  C   UNL     1      42.789 -16.171   2.426  1.00  0.00     0.053 A 
HETATM   26  C   UNL     1      42.453 -17.074   1.421  1.00  0.00     0.070 A 
HETATM   27  C   UNL     1      41.530 -16.738   0.432  1.00  0.00     0.037 A 
HETATM   28  C   UNL     1      40.946 -15.471   0.435  1.00  0.00     0.004 A 
HETATM   29  C   UNL     1      41.293 -14.547   1.424  1.00  0.00     0.017 A 
BRANCH  26  30
HETATM   30  O   UNL     1      43.007 -18.321   1.473  1.00  0.00    -0.347 OA
BRANCH  30  31
HETATM   31  C   UNL     1      44.110 -18.355   2.387  1.00  0.00     0.214 C 
BRANCH  31  32
HETATM   32  C   UNL     1      44.262 -19.779   2.859  1.00  0.00    -0.034 A 
HETATM   33  C   UNL     1      44.682 -20.052   4.168  1.00  0.00     0.009 A 
HETATM   34  C   UNL     1      44.860 -21.370   4.593  1.00  0.00     0.001 A 
HETATM   35  C   UNL     1      44.629 -22.425   3.712  1.00  0.00     0.000 A 
HETATM   36  C   UNL     1      44.222 -22.164   2.405  1.00  0.00     0.001 A 
HETATM   37  C   UNL     1      44.042 -20.849   1.978  1.00  0.00     0.009 A 
ENDBRANCH  31  32
ENDBRANCH  30  31
ENDBRANCH  26  30
ENDBRANCH  21  24
ENDBRANCH   1  20
TORSDOF 8
ENDMDL
