MODEL 1
REMARK VINA RESULT:      -9.4      0.000      0.000
REMARK  7 active torsions:
REMARK  status: ('A' for Active; 'I' for Inactive)
REMARK    1  A    between atoms: C_8  and  C_9 
REMARK    2  A    between atoms: C_9  and  N_10 
REMARK    3  A    between atoms: C_14  and  C_15 
REMARK    4  A    between atoms: C_15  and  C_16 
REMARK    5  A    between atoms: C_16  and  C_17 
REMARK    6  A    between atoms: N_27  and  C_28 
REMARK    7  A    between atoms: C_28  and  C_29 
ROOT
HETATM    1  C   UNL     1      42.225 -16.963   3.203  1.00  0.00     0.123 A 
HETATM    2  N   UNL     1      41.661 -17.479   4.441  1.00  0.00    -0.324 N 
HETATM    3  C   UNL     1      41.370 -16.505   5.366  1.00  0.00     0.326 A 
HETATM    4  O   UNL     1      40.894 -16.727   6.463  1.00  0.00    -0.247 OA
HETATM    5  N   UNL     1      41.667 -15.298   4.816  1.00  0.00    -0.268 N 
HETATM    6  C   UNL     1      42.181 -15.462   3.563  1.00  0.00     0.257 A 
HETATM    7  O   UNL     1      42.505 -14.558   2.804  1.00  0.00    -0.270 OA
HETATM    8  H   UNL     1      41.574 -18.460   4.689  1.00  0.00     0.165 HD
ENDROOT
BRANCH   1   9
HETATM    9  C   UNL     1      41.303 -17.361   1.997  1.00  0.00     0.027 C 
HETATM   10  C   UNL     1      41.804 -17.043   0.578  1.00  0.00     0.035 C 
HETATM   11  C   UNL     1      41.611 -15.610   0.098  1.00  0.00     0.235 C 
HETATM   12  N   UNL     1      40.229 -15.082   0.385  1.00  0.00    -0.067 N 
HETATM   13  H   UNL     1      39.602 -15.482  -0.329  1.00  0.00     0.280 HD
HETATM   14  C   UNL     1      39.637 -15.418   1.726  1.00  0.00     0.235 C 
HETATM   15  C   UNL     1      39.840 -16.879   2.085  1.00  0.00     0.035 C 
BRANCH  12  16
HETATM   16  C   UNL     1      40.173 -13.571   0.186  1.00  0.00     0.278 C 
BRANCH  16  17
HETATM   17  C   UNL     1      40.329 -13.137  -1.217  1.00  0.00     0.034 A 
HETATM   18  C   UNL     1      39.465 -13.380  -2.323  1.00  0.00     0.062 A 
HETATM   19  C   UNL     1      38.168 -14.107  -2.352  1.00  0.00     0.073 C 
HETATM   20  N   UNL     1      39.942 -12.842  -3.451  1.00  0.00    -0.176 NA
HETATM   21  N   UNL     1      41.128 -12.306  -3.103  1.00  0.00    -0.262 N 
HETATM   22  C   UNL     1      41.970 -11.717  -4.119  1.00  0.00     0.181 C 
HETATM   23  C   UNL     1      41.369 -12.430  -1.769  1.00  0.00     0.131 A 
HETATM   24 CL   UNL     1      42.771 -11.787  -1.054  1.00  0.00    -0.062 Cl
ENDBRANCH  16  17
ENDBRANCH  12  16
ENDBRANCH   1   9
BRANCH   1  25
HETATM   25  C   UNL     1      43.720 -17.355   3.067  1.00  0.00     0.080 C 
BRANCH  25  26
HETATM   26  C   UNL     1      44.008 -18.833   3.211  1.00  0.00    -0.052 A 
HETATM   27  C   UNL     1      43.832 -19.717   2.139  1.00  0.00     0.049 A 
HETATM   28  C   UNL     1      44.091 -21.076   2.305  1.00  0.00     0.116 A 
HETATM   29  F   UNL     1      43.903 -21.907   1.272  1.00  0.00    -0.206 F 
HETATM   30  C   UNL     1      44.535 -21.580   3.520  1.00  0.00     0.042 A 
HETATM   31  C   UNL     1      44.727 -20.710   4.590  1.00  0.00     0.003 A 
HETATM   32  C   UNL     1      44.467 -19.345   4.436  1.00  0.00     0.007 A 
ENDBRANCH  25  26
ENDBRANCH   1  25
BRANCH   5  33
HETATM   33  C   UNL     1      41.425 -14.021   5.461  1.00  0.00     0.140 C 
BRANCH  33  34
HETATM   34  C   UNL     1      39.984 -13.511   5.302  1.00  0.00    -0.004 C 
HETATM   35  C   UNL     1      39.495 -12.771   6.548  1.00  0.00     0.011 C 
HETATM   36  C   UNL     1      39.902 -12.588   4.084  1.00  0.00     0.011 C 
ENDBRANCH  33  34
ENDBRANCH   5  33
TORSDOF 7
ENDMDL
MODEL 2
REMARK VINA RESULT:      -9.2      2.102      2.689
REMARK  7 active torsions:
REMARK  status: ('A' for Active; 'I' for Inactive)
REMARK    1  A    between atoms: C_8  and  C_9 
REMARK    2  A    between atoms: C_9  and  N_10 
REMARK    3  A    between atoms: C_14  and  C_15 
REMARK    4  A    between atoms: C_15  and  C_16 
REMARK    5  A    between atoms: C_16  and  C_17 
REMARK    6  A    between atoms: N_27  and  C_28 
REMARK    7  A    between atoms: C_28  and  C_29 
ROOT
HETATM    1  C   UNL     1      42.577 -17.354   2.925  1.00  0.00     0.123 A 
HETATM    2  N   UNL     1      42.040 -17.933   4.147  1.00  0.00    -0.324 N 
HETATM    3  C   UNL     1      41.972 -17.048   5.196  1.00  0.00     0.326 A 
HETATM    4  O   UNL     1      41.556 -17.333   6.303  1.00  0.00    -0.247 OA
HETATM    5  N   UNL     1      42.400 -15.835   4.754  1.00  0.00    -0.268 N 
HETATM    6  C   UNL     1      42.784 -15.917   3.448  1.00  0.00     0.257 A 
HETATM    7  O   UNL     1      43.178 -14.981   2.764  1.00  0.00    -0.270 OA
HETATM    8  H   UNL     1      41.829 -18.916   4.295  1.00  0.00     0.165 HD
ENDROOT
BRANCH   1   9
HETATM    9  C   UNL     1      41.513 -17.471   1.776  1.00  0.00     0.027 C 
HETATM   10  C   UNL     1      41.866 -16.860   0.409  1.00  0.00     0.035 C 
HETATM   11  C   UNL     1      41.675 -15.355   0.271  1.00  0.00     0.235 C 
HETATM   12  N   UNL     1      40.353 -14.885   0.821  1.00  0.00    -0.067 N 
HETATM   13  H   UNL     1      39.637 -15.114   0.116  1.00  0.00     0.280 HD
HETATM   14  C   UNL     1      39.899 -15.496   2.119  1.00  0.00     0.235 C 
HETATM   15  C   UNL     1      40.088 -17.002   2.133  1.00  0.00     0.035 C 
BRANCH  12  16
HETATM   16  C   UNL     1      40.330 -13.366   0.957  1.00  0.00     0.278 C 
BRANCH  16  17
HETATM   17  C   UNL     1      39.015 -12.752   0.689  1.00  0.00     0.034 A 
HETATM   18  C   UNL     1      38.258 -12.765  -0.518  1.00  0.00     0.062 A 
HETATM   19  C   UNL     1      38.578 -13.423  -1.813  1.00  0.00     0.073 C 
HETATM   20  N   UNL     1      37.112 -12.086  -0.391  1.00  0.00    -0.176 NA
HETATM   21  N   UNL     1      37.144 -11.586   0.859  1.00  0.00    -0.262 N 
HETATM   22  C   UNL     1      36.087 -10.706   1.303  1.00  0.00     0.181 C 
HETATM   23  C   UNL     1      38.246 -11.999   1.543  1.00  0.00     0.131 A 
HETATM   24 CL   UNL     1      38.505 -11.560   3.166  1.00  0.00    -0.062 Cl
ENDBRANCH  16  17
ENDBRANCH  12  16
ENDBRANCH   1   9
BRANCH   1  25
HETATM   25  C   UNL     1      43.980 -17.930   2.605  1.00  0.00     0.080 C 
BRANCH  25  26
HETATM   26  C   UNL     1      44.113 -19.427   2.781  1.00  0.00    -0.052 A 
HETATM   27  C   UNL     1      44.671 -19.977   3.941  1.00  0.00     0.049 A 
HETATM   28  C   UNL     1      44.794 -21.359   4.069  1.00  0.00     0.116 A 
HETATM   29  F   UNL     1      45.343 -21.864   5.182  1.00  0.00    -0.206 F 
HETATM   30  C   UNL     1      44.363 -22.215   3.065  1.00  0.00     0.042 A 
HETATM   31  C   UNL     1      43.794 -21.682   1.913  1.00  0.00     0.003 A 
HETATM   32  C   UNL     1      43.669 -20.297   1.771  1.00  0.00     0.007 A 
ENDBRANCH  25  26
ENDBRANCH   1  25
BRANCH   5  33
HETATM   33  C   UNL     1      42.403 -14.625   5.554  1.00  0.00     0.140 C 
BRANCH  33  34
HETATM   34  C   UNL     1      41.304 -13.624   5.165  1.00  0.00    -0.004 C 
HETATM   35  C   UNL     1      39.912 -14.114   5.564  1.00  0.00     0.011 C 
HETATM   36  C   UNL     1      41.590 -12.273   5.825  1.00  0.00     0.011 C 
ENDBRANCH  33  34
ENDBRANCH   5  33
TORSDOF 7
ENDMDL
MODEL 3
REMARK VINA RESULT:      -9.2      1.404      1.720
REMARK  7 active torsions:
REMARK  status: ('A' for Active; 'I' for Inactive)
REMARK    1  A    between atoms: C_8  and  C_9 
REMARK    2  A    between atoms: C_9  and  N_10 
REMARK    3  A    between atoms: C_14  and  C_15 
REMARK    4  A    between atoms: C_15  and  C_16 
REMARK    5  A    between atoms: C_16  and  C_17 
REMARK    6  A    between atoms: N_27  and  C_28 
REMARK    7  A    between atoms: C_28  and  C_29 
ROOT
HETATM    1  C   UNL     1      42.469 -17.329   3.453  1.00  0.00     0.123 A 
HETATM    2  N   UNL     1      41.742 -17.813   4.617  1.00  0.00    -0.324 N 
HETATM    3  C   UNL     1      41.373 -16.820   5.492  1.00  0.00     0.326 A 
HETATM    4  O   UNL     1      40.761 -17.013   6.525  1.00  0.00    -0.247 OA
HETATM    5  N   UNL     1      41.773 -15.628   4.972  1.00  0.00    -0.268 N 
HETATM    6  C   UNL     1      42.429 -15.823   3.792  1.00  0.00     0.257 A 
HETATM    7  O   UNL     1      42.871 -14.939   3.071  1.00  0.00    -0.270 OA
HETATM    8  H   UNL     1      41.595 -18.788   4.861  1.00  0.00     0.165 HD
ENDROOT
BRANCH   1   9
HETATM    9  C   UNL     1      41.687 -17.713   2.147  1.00  0.00     0.027 C 
HETATM   10  C   UNL     1      42.289 -17.279   0.799  1.00  0.00     0.035 C 
HETATM   11  C   UNL     1      42.042 -15.836   0.381  1.00  0.00     0.235 C 
HETATM   12  N   UNL     1      40.606 -15.416   0.566  1.00  0.00    -0.067 N 
HETATM   13  H   UNL     1      40.074 -15.811  -0.223  1.00  0.00     0.280 HD
HETATM   14  C   UNL     1      39.921 -15.868   1.827  1.00  0.00     0.235 C 
HETATM   15  C   UNL     1      40.193 -17.331   2.125  1.00  0.00     0.035 C 
BRANCH  12  16
HETATM   16  C   UNL     1      40.464 -13.902   0.444  1.00  0.00     0.278 C 
BRANCH  16  17
HETATM   17  C   UNL     1      39.381 -13.465  -0.460  1.00  0.00     0.034 A 
HETATM   18  C   UNL     1      38.226 -12.690  -0.152  1.00  0.00     0.062 A 
HETATM   19  C   UNL     1      37.823 -12.093   1.149  1.00  0.00     0.073 C 
HETATM   20  N   UNL     1      37.454 -12.502  -1.228  1.00  0.00    -0.176 NA
HETATM   21  N   UNL     1      38.062 -13.193  -2.213  1.00  0.00    -0.262 N 
HETATM   22  C   UNL     1      37.434 -13.286  -3.511  1.00  0.00     0.181 C 
HETATM   23  C   UNL     1      39.234 -13.744  -1.796  1.00  0.00     0.131 A 
HETATM   24 CL   UNL     1      40.232 -14.622  -2.858  1.00  0.00    -0.062 Cl
ENDBRANCH  16  17
ENDBRANCH  12  16
ENDBRANCH   1   9
BRANCH   1  25
HETATM   25  C   UNL     1      43.955 -17.768   3.502  1.00  0.00     0.080 C 
BRANCH  25  26
HETATM   26  C   UNL     1      44.179 -19.264   3.531  1.00  0.00    -0.052 A 
HETATM   27  C   UNL     1      44.080 -20.038   2.368  1.00  0.00     0.049 A 
HETATM   28  C   UNL     1      44.276 -21.416   2.428  1.00  0.00     0.116 A 
HETATM   29  F   UNL     1      44.164 -22.140   1.306  1.00  0.00    -0.206 F 
HETATM   30  C   UNL     1      44.581 -22.048   3.626  1.00  0.00     0.042 A 
HETATM   31  C   UNL     1      44.696 -21.289   4.786  1.00  0.00     0.003 A 
HETATM   32  C   UNL     1      44.497 -19.906   4.740  1.00  0.00     0.007 A 
ENDBRANCH  25  26
ENDBRANCH   1  25
BRANCH   5  33
HETATM   33  C   UNL     1      41.496 -14.337   5.572  1.00  0.00     0.140 C 
BRANCH  33  34
HETATM   34  C   UNL     1      40.078 -13.815   5.291  1.00  0.00    -0.004 C 
HETATM   35  C   UNL     1      39.519 -13.007   6.462  1.00  0.00     0.011 C 
HETATM   36  C   UNL     1      40.095 -12.954   4.025  1.00  0.00     0.011 C 
ENDBRANCH  33  34
ENDBRANCH   5  33
TORSDOF 7
ENDMDL
MODEL 4
REMARK VINA RESULT:      -9.1      2.449      3.761
REMARK  7 active torsions:
REMARK  status: ('A' for Active; 'I' for Inactive)
REMARK    1  A    between atoms: C_8  and  C_9 
REMARK    2  A    between atoms: C_9  and  N_10 
REMARK    3  A    between atoms: C_14  and  C_15 
REMARK    4  A    between atoms: C_15  and  C_16 
REMARK    5  A    between atoms: C_16  and  C_17 
REMARK    6  A    between atoms: N_27  and  C_28 
REMARK    7  A    between atoms: C_28  and  C_29 
ROOT
HETATM    1  C   UNL     1      42.511 -17.478   2.651  1.00  0.00     0.123 A 
HETATM    2  N   UNL     1      42.000 -18.231   3.787  1.00  0.00    -0.324 N 
HETATM    3  C   UNL     1      42.089 -17.559   4.982  1.00  0.00     0.326 A 
HETATM    4  O   UNL     1      41.720 -18.011   6.048  1.00  0.00    -0.247 OA
HETATM    5  N   UNL     1      42.608 -16.326   4.735  1.00  0.00    -0.268 N 
HETATM    6  C   UNL     1      42.895 -16.190   3.409  1.00  0.00     0.257 A 
HETATM    7  O   UNL     1      43.336 -15.179   2.878  1.00  0.00    -0.270 OA
HETATM    8  H   UNL     1      41.700 -19.201   3.769  1.00  0.00     0.165 HD
ENDROOT
BRANCH   1   9
HETATM    9  C   UNL     1      41.368 -17.283   1.592  1.00  0.00     0.027 C 
HETATM   10  C   UNL     1      41.738 -16.613   0.257  1.00  0.00     0.035 C 
HETATM   11  C   UNL     1      41.828 -15.093   0.264  1.00  0.00     0.235 C 
HETATM   12  N   UNL     1      40.661 -14.446   0.964  1.00  0.00    -0.067 N 
HETATM   13  H   UNL     1      39.868 -14.467   0.307  1.00  0.00     0.280 HD
HETATM   14  C   UNL     1      40.189 -15.089   2.240  1.00  0.00     0.235 C 
HETATM   15  C   UNL     1      40.087 -16.598   2.109  1.00  0.00     0.035 C 
BRANCH  12  16
HETATM   16  C   UNL     1      40.938 -12.969   1.230  1.00  0.00     0.278 C 
BRANCH  16  17
HETATM   17  C   UNL     1      40.130 -12.386   2.319  1.00  0.00     0.034 A 
HETATM   18  C   UNL     1      38.754 -12.015   2.302  1.00  0.00     0.062 A 
HETATM   19  C   UNL     1      37.766 -12.145   1.199  1.00  0.00     0.073 C 
HETATM   20  N   UNL     1      38.366 -11.502   3.475  1.00  0.00    -0.176 NA
HETATM   21  N   UNL     1      39.483 -11.481   4.229  1.00  0.00    -0.262 N 
HETATM   22  C   UNL     1      39.443 -10.887   5.546  1.00  0.00     0.181 C 
HETATM   23  C   UNL     1      40.542 -12.039   3.582  1.00  0.00     0.131 A 
HETATM   24 CL   UNL     1      42.062 -12.193   4.330  1.00  0.00    -0.062 Cl
ENDBRANCH  16  17
ENDBRANCH  12  16
ENDBRANCH   1   9
BRANCH   1  25
HETATM   25  C   UNL     1      43.826 -18.103   2.116  1.00  0.00     0.080 C 
BRANCH  25  26
HETATM   26  C   UNL     1      44.034 -19.558   2.473  1.00  0.00    -0.052 A 
HETATM   27  C   UNL     1      44.643 -19.932   3.677  1.00  0.00     0.049 A 
HETATM   28  C   UNL     1      44.836 -21.280   3.972  1.00  0.00     0.116 A 
HETATM   29  F   UNL     1      45.432 -21.617   5.123  1.00  0.00    -0.206 F 
HETATM   30  C   UNL     1      44.426 -22.275   3.094  1.00  0.00     0.042 A 
HETATM   31  C   UNL     1      43.808 -21.916   1.900  1.00  0.00     0.003 A 
HETATM   32  C   UNL     1      43.612 -20.567   1.591  1.00  0.00     0.007 A 
ENDBRANCH  25  26
ENDBRANCH   1  25
BRANCH   5  33
HETATM   33  C   UNL     1      42.784 -15.294   5.740  1.00  0.00     0.140 C 
BRANCH  33  34
HETATM   34  C   UNL     1      44.093 -15.423   6.536  1.00  0.00    -0.004 C 
HETATM   35  C   UNL     1      44.722 -14.062   6.833  1.00  0.00     0.011 C 
HETATM   36  C   UNL     1      43.820 -16.168   7.845  1.00  0.00     0.011 C 
ENDBRANCH  33  34
ENDBRANCH   5  33
TORSDOF 7
ENDMDL
MODEL 5
REMARK VINA RESULT:      -9.0      1.778      2.528
REMARK  7 active torsions:
REMARK  status: ('A' for Active; 'I' for Inactive)
REMARK    1  A    between atoms: C_8  and  C_9 
REMARK    2  A    between atoms: C_9  and  N_10 
REMARK    3  A    between atoms: C_14  and  C_15 
REMARK    4  A    between atoms: C_15  and  C_16 
REMARK    5  A    between atoms: C_16  and  C_17 
REMARK    6  A    between atoms: N_27  and  C_28 
REMARK    7  A    between atoms: C_28  and  C_29 
ROOT
HETATM    1  C   UNL     1      42.552 -17.396   3.042  1.00  0.00     0.123 A 
HETATM    2  N   UNL     1      42.075 -18.020   4.267  1.00  0.00    -0.324 N 
HETATM    3  C   UNL     1      42.067 -17.177   5.352  1.00  0.00     0.326 A 
HETATM    4  O   UNL     1      41.706 -17.503   6.466  1.00  0.00    -0.247 OA
HETATM    5  N   UNL     1      42.481 -15.950   4.936  1.00  0.00    -0.268 N 
HETATM    6  C   UNL     1      42.797 -15.981   3.610  1.00  0.00     0.257 A 
HETATM    7  O   UNL     1      43.163 -15.021   2.944  1.00  0.00    -0.270 OA
HETATM    8  H   UNL     1      41.864 -19.006   4.385  1.00  0.00     0.165 HD
ENDROOT
BRANCH   1   9
HETATM    9  C   UNL     1      41.431 -17.462   1.945  1.00  0.00     0.027 C 
HETATM   10  C   UNL     1      41.813 -17.069   0.508  1.00  0.00     0.035 C 
HETATM   11  C   UNL     1      41.857 -15.578   0.203  1.00  0.00     0.235 C 
HETATM   12  N   UNL     1      40.655 -14.840   0.733  1.00  0.00    -0.067 N 
HETATM   13  H   UNL     1      39.879 -15.023   0.080  1.00  0.00     0.280 HD
HETATM   14  C   UNL     1      40.172 -15.222   2.105  1.00  0.00     0.235 C 
HETATM   15  C   UNL     1      40.117 -16.728   2.287  1.00  0.00     0.035 C 
BRANCH  12  16
HETATM   16  C   UNL     1      40.882 -13.332   0.693  1.00  0.00     0.278 C 
BRANCH  16  17
HETATM   17  C   UNL     1      40.597 -12.710  -0.615  1.00  0.00     0.034 A 
HETATM   18  C   UNL     1      41.439 -11.874  -1.404  1.00  0.00     0.062 A 
HETATM   19  C   UNL     1      42.834 -11.435  -1.134  1.00  0.00     0.073 C 
HETATM   20  N   UNL     1      40.834 -11.483  -2.530  1.00  0.00    -0.176 NA
HETATM   21  N   UNL     1      39.593 -12.002  -2.454  1.00  0.00    -0.262 N 
HETATM   22  C   UNL     1      38.624 -11.688  -3.478  1.00  0.00     0.181 C 
HETATM   23  C   UNL     1      39.434 -12.773  -1.343  1.00  0.00     0.131 A 
HETATM   24 CL   UNL     1      37.979 -13.597  -1.031  1.00  0.00    -0.062 Cl
ENDBRANCH  16  17
ENDBRANCH  12  16
ENDBRANCH   1   9
BRANCH   1  25
HETATM   25  C   UNL     1      43.934 -17.966   2.628  1.00  0.00     0.080 C 
BRANCH  25  26
HETATM   26  C   UNL     1      44.083 -19.462   2.792  1.00  0.00    -0.052 A 
HETATM   27  C   UNL     1      44.662 -20.015   3.942  1.00  0.00     0.049 A 
HETATM   28  C   UNL     1      44.800 -21.396   4.059  1.00  0.00     0.116 A 
HETATM   29  F   UNL     1      45.369 -21.903   5.161  1.00  0.00    -0.206 F 
HETATM   30  C   UNL     1      44.364 -22.250   3.055  1.00  0.00     0.042 A 
HETATM   31  C   UNL     1      43.775 -21.715   1.913  1.00  0.00     0.003 A 
HETATM   32  C   UNL     1      43.634 -20.330   1.782  1.00  0.00     0.007 A 
ENDBRANCH  25  26
ENDBRANCH   1  25
BRANCH   5  33
HETATM   33  C   UNL     1      42.534 -14.773   5.782  1.00  0.00     0.140 C 
BRANCH  33  34
HETATM   34  C   UNL     1      43.955 -14.396   6.230  1.00  0.00    -0.004 C 
HETATM   35  C   UNL     1      43.960 -13.195   7.177  1.00  0.00     0.011 C 
HETATM   36  C   UNL     1      44.609 -15.600   6.913  1.00  0.00     0.011 C 
ENDBRANCH  33  34
ENDBRANCH   5  33
TORSDOF 7
ENDMDL
MODEL 6
REMARK VINA RESULT:      -9.0      3.262      7.623
REMARK  7 active torsions:
REMARK  status: ('A' for Active; 'I' for Inactive)
REMARK    1  A    between atoms: C_8  and  C_9 
REMARK    2  A    between atoms: C_9  and  N_10 
REMARK    3  A    between atoms: C_14  and  C_15 
REMARK    4  A    between atoms: C_15  and  C_16 
REMARK    5  A    between atoms: C_16  and  C_17 
REMARK    6  A    between atoms: N_27  and  C_28 
REMARK    7  A    between atoms: C_28  and  C_29 
ROOT
HETATM    1  C   UNL     1      40.997 -14.484   2.298  1.00  0.00     0.123 A 
HETATM    2  N   UNL     1      42.416 -14.223   2.108  1.00  0.00    -0.324 N 
HETATM    3  C   UNL     1      43.088 -13.939   3.272  1.00  0.00     0.326 A 
HETATM    4  O   UNL     1      44.277 -13.691   3.330  1.00  0.00    -0.247 OA
HETATM    5  N   UNL     1      42.206 -14.032   4.303  1.00  0.00    -0.268 N 
HETATM    6  C   UNL     1      40.961 -14.334   3.834  1.00  0.00     0.257 A 
HETATM    7  O   UNL     1      39.968 -14.521   4.525  1.00  0.00    -0.270 OA
HETATM    8  H   UNL     1      42.887 -14.136   1.212  1.00  0.00     0.165 HD
ENDROOT
BRANCH   1   9
HETATM    9  C   UNL     1      40.654 -15.928   1.786  1.00  0.00     0.027 C 
HETATM   10  C   UNL     1      40.610 -17.063   2.824  1.00  0.00     0.035 C 
HETATM   11  C   UNL     1      41.951 -17.656   3.235  1.00  0.00     0.235 C 
HETATM   12  N   UNL     1      42.844 -17.947   2.057  1.00  0.00    -0.067 N 
HETATM   13  H   UNL     1      42.504 -18.824   1.634  1.00  0.00     0.280 HD
HETATM   14  C   UNL     1      42.881 -16.919   0.960  1.00  0.00     0.235 C 
HETATM   15  C   UNL     1      41.491 -16.431   0.592  1.00  0.00     0.035 C 
BRANCH  12  16
HETATM   16  C   UNL     1      44.271 -18.233   2.513  1.00  0.00     0.278 C 
BRANCH  16  17
HETATM   17  C   UNL     1      44.408 -19.437   3.357  1.00  0.00     0.034 A 
HETATM   18  C   UNL     1      44.719 -19.519   4.745  1.00  0.00     0.062 A 
HETATM   19  C   UNL     1      44.956 -18.416   5.714  1.00  0.00     0.073 C 
HETATM   20  N   UNL     1      44.774 -20.787   5.166  1.00  0.00    -0.176 NA
HETATM   21  N   UNL     1      44.563 -21.527   4.060  1.00  0.00    -0.262 N 
HETATM   22  C   UNL     1      44.653 -22.967   4.138  1.00  0.00     0.181 C 
HETATM   23  C   UNL     1      44.301 -20.752   2.973  1.00  0.00     0.131 A 
HETATM   24 CL   UNL     1      43.940 -21.435   1.458  1.00  0.00    -0.062 Cl
ENDBRANCH  16  17
ENDBRANCH  12  16
ENDBRANCH   1   9
BRANCH   1  25
HETATM   25  C   UNL     1      40.135 -13.338   1.708  1.00  0.00     0.080 C 
BRANCH  25  26
HETATM   26  C   UNL     1      39.949 -13.386   0.207  1.00  0.00    -0.052 A 
HETATM   27  C   UNL     1      38.781 -13.904  -0.366  1.00  0.00     0.049 A 
HETATM   28  C   UNL     1      38.644 -13.949  -1.751  1.00  0.00     0.116 A 
HETATM   29  F   UNL     1      37.524 -14.460  -2.279  1.00  0.00    -0.206 F 
HETATM   30  C   UNL     1      39.646 -13.479  -2.589  1.00  0.00     0.042 A 
HETATM   31  C   UNL     1      40.807 -12.949  -2.032  1.00  0.00     0.003 A 
HETATM   32  C   UNL     1      40.958 -12.902  -0.643  1.00  0.00     0.007 A 
ENDBRANCH  25  26
ENDBRANCH   1  25
BRANCH   5  33
HETATM   33  C   UNL     1      42.559 -13.875   5.701  1.00  0.00     0.140 C 
BRANCH  33  34
HETATM   34  C   UNL     1      43.429 -15.016   6.251  1.00  0.00    -0.004 C 
HETATM   35  C   UNL     1      44.399 -14.532   7.330  1.00  0.00     0.011 C 
HETATM   36  C   UNL     1      42.527 -16.115   6.818  1.00  0.00     0.011 C 
ENDBRANCH  33  34
ENDBRANCH   5  33
TORSDOF 7
ENDMDL
MODEL 7
REMARK VINA RESULT:      -8.9      2.324      3.291
REMARK  7 active torsions:
REMARK  status: ('A' for Active; 'I' for Inactive)
REMARK    1  A    between atoms: C_8  and  C_9 
REMARK    2  A    between atoms: C_9  and  N_10 
REMARK    3  A    between atoms: C_14  and  C_15 
REMARK    4  A    between atoms: C_15  and  C_16 
REMARK    5  A    between atoms: C_16  and  C_17 
REMARK    6  A    between atoms: N_27  and  C_28 
REMARK    7  A    between atoms: C_28  and  C_29 
ROOT
HETATM    1  C   UNL     1      42.619 -17.511   2.912  1.00  0.00     0.123 A 
HETATM    2  N   UNL     1      42.060 -18.217   4.055  1.00  0.00    -0.324 N 
HETATM    3  C   UNL     1      42.031 -17.470   5.208  1.00  0.00     0.326 A 
HETATM    4  O   UNL     1      41.604 -17.873   6.272  1.00  0.00    -0.247 OA
HETATM    5  N   UNL     1      42.510 -16.230   4.920  1.00  0.00    -0.268 N 
HETATM    6  C   UNL     1      42.889 -16.162   3.611  1.00  0.00     0.257 A 
HETATM    7  O   UNL     1      43.323 -15.165   3.049  1.00  0.00    -0.270 OA
HETATM    8  H   UNL     1      41.806 -19.200   4.079  1.00  0.00     0.165 HD
ENDROOT
BRANCH   1   9
HETATM    9  C   UNL     1      41.550 -17.437   1.764  1.00  0.00     0.027 C 
HETATM   10  C   UNL     1      41.951 -16.727   0.460  1.00  0.00     0.035 C 
HETATM   11  C   UNL     1      41.874 -15.206   0.467  1.00  0.00     0.235 C 
HETATM   12  N   UNL     1      40.592 -14.691   1.068  1.00  0.00    -0.067 N 
HETATM   13  H   UNL     1      39.861 -14.796   0.349  1.00  0.00     0.280 HD
HETATM   14  C   UNL     1      40.093 -15.386   2.305  1.00  0.00     0.235 C 
HETATM   15  C   UNL     1      40.165 -16.897   2.174  1.00  0.00     0.035 C 
BRANCH  12  16
HETATM   16  C   UNL     1      40.686 -13.194   1.348  1.00  0.00     0.278 C 
BRANCH  16  17
HETATM   17  C   UNL     1      39.393 -12.483   1.289  1.00  0.00     0.034 A 
HETATM   18  C   UNL     1      38.664 -11.877   2.351  1.00  0.00     0.062 A 
HETATM   19  C   UNL     1      39.024 -11.775   3.791  1.00  0.00     0.073 C 
HETATM   20  N   UNL     1      37.519 -11.336   1.920  1.00  0.00    -0.176 NA
HETATM   21  N   UNL     1      37.469 -11.634   0.607  1.00  0.00    -0.262 N 
HETATM   22  C   UNL     1      36.299 -11.277  -0.161  1.00  0.00     0.181 C 
HETATM   23  C   UNL     1      38.592 -12.282   0.192  1.00  0.00     0.131 A 
HETATM   24 CL   UNL     1      38.814 -12.724  -1.436  1.00  0.00    -0.062 Cl
ENDBRANCH  16  17
ENDBRANCH  12  16
ENDBRANCH   1   9
BRANCH   1  25
HETATM   25  C   UNL     1      43.997 -18.102   2.513  1.00  0.00     0.080 C 
BRANCH  25  26
HETATM   26  C   UNL     1      44.145 -19.590   2.743  1.00  0.00    -0.052 A 
HETATM   27  C   UNL     1      44.704 -20.092   3.924  1.00  0.00     0.049 A 
HETATM   28  C   UNL     1      44.842 -21.467   4.101  1.00  0.00     0.116 A 
HETATM   29  F   UNL     1      45.392 -21.927   5.233  1.00  0.00    -0.206 F 
HETATM   30  C   UNL     1      44.426 -22.364   3.126  1.00  0.00     0.042 A 
HETATM   31  C   UNL     1      43.856 -21.878   1.953  1.00  0.00     0.003 A 
HETATM   32  C   UNL     1      43.716 -20.500   1.762  1.00  0.00     0.007 A 
ENDBRANCH  25  26
ENDBRANCH   1  25
BRANCH   5  33
HETATM   33  C   UNL     1      42.566 -15.132   5.866  1.00  0.00     0.140 C 
BRANCH  33  34
HETATM   34  C   UNL     1      43.788 -15.178   6.796  1.00  0.00    -0.004 C 
HETATM   35  C   UNL     1      44.618 -16.446   6.593  1.00  0.00     0.011 C 
HETATM   36  C   UNL     1      44.658 -13.942   6.556  1.00  0.00     0.011 C 
ENDBRANCH  33  34
ENDBRANCH   5  33
TORSDOF 7
ENDMDL
MODEL 8
REMARK VINA RESULT:      -8.7      3.405      7.638
REMARK  7 active torsions:
REMARK  status: ('A' for Active; 'I' for Inactive)
REMARK    1  A    between atoms: C_8  and  C_9 
REMARK    2  A    between atoms: C_9  and  N_10 
REMARK    3  A    between atoms: C_14  and  C_15 
REMARK    4  A    between atoms: C_15  and  C_16 
REMARK    5  A    between atoms: C_16  and  C_17 
REMARK    6  A    between atoms: N_27  and  C_28 
REMARK    7  A    between atoms: C_28  and  C_29 
ROOT
HETATM    1  C   UNL     1      41.632 -14.582   1.098  1.00  0.00     0.123 A 
HETATM    2  N   UNL     1      42.818 -14.293   1.891  1.00  0.00    -0.324 N 
HETATM    3  C   UNL     1      42.565 -13.541   3.013  1.00  0.00     0.326 A 
HETATM    4  O   UNL     1      43.417 -13.191   3.806  1.00  0.00    -0.247 OA
HETATM    5  N   UNL     1      41.225 -13.318   3.078  1.00  0.00    -0.268 N 
HETATM    6  C   UNL     1      40.599 -13.875   2.001  1.00  0.00     0.257 A 
HETATM    7  O   UNL     1      39.392 -13.873   1.802  1.00  0.00    -0.270 OA
HETATM    8  H   UNL     1      43.775 -14.506   1.625  1.00  0.00     0.165 HD
ENDROOT
BRANCH   1   9
HETATM    9  C   UNL     1      41.435 -16.136   0.992  1.00  0.00     0.027 C 
HETATM   10  C   UNL     1      40.706 -16.844   2.147  1.00  0.00     0.035 C 
HETATM   11  C   UNL     1      41.537 -17.153   3.385  1.00  0.00     0.235 C 
HETATM   12  N   UNL     1      42.874 -17.762   3.049  1.00  0.00    -0.067 N 
HETATM   13  H   UNL     1      42.704 -18.754   2.828  1.00  0.00     0.280 HD
HETATM   14  C   UNL     1      43.617 -17.174   1.881  1.00  0.00     0.235 C 
HETATM   15  C   UNL     1      42.708 -16.952   0.685  1.00  0.00     0.035 C 
BRANCH  12  16
HETATM   16  C   UNL     1      43.792 -17.761   4.267  1.00  0.00     0.278 C 
BRANCH  16  17
HETATM   17  C   UNL     1      44.019 -19.095   4.858  1.00  0.00     0.034 A 
HETATM   18  C   UNL     1      43.887 -19.499   6.218  1.00  0.00     0.062 A 
HETATM   19  C   UNL     1      43.459 -18.694   7.392  1.00  0.00     0.073 C 
HETATM   20  N   UNL     1      44.192 -20.791   6.382  1.00  0.00    -0.176 NA
HETATM   21  N   UNL     1      44.575 -21.214   5.162  1.00  0.00    -0.262 N 
HETATM   22  C   UNL     1      45.071 -22.560   4.996  1.00  0.00     0.181 C 
HETATM   23  C   UNL     1      44.444 -20.237   4.223  1.00  0.00     0.131 A 
HETATM   24 CL   UNL     1      44.804 -20.521   2.585  1.00  0.00    -0.062 Cl
ENDBRANCH  16  17
ENDBRANCH  12  16
ENDBRANCH   1   9
BRANCH   1  25
HETATM   25  C   UNL     1      41.662 -13.813  -0.249  1.00  0.00     0.080 C 
BRANCH  25  26
HETATM   26  C   UNL     1      40.760 -14.375  -1.326  1.00  0.00    -0.052 A 
HETATM   27  C   UNL     1      39.465 -13.880  -1.522  1.00  0.00     0.049 A 
HETATM   28  C   UNL     1      38.651 -14.427  -2.511  1.00  0.00     0.116 A 
HETATM   29  F   UNL     1      37.411 -13.949  -2.673  1.00  0.00    -0.206 F 
HETATM   30  C   UNL     1      39.101 -15.459  -3.324  1.00  0.00     0.042 A 
HETATM   31  C   UNL     1      40.392 -15.950  -3.149  1.00  0.00     0.003 A 
HETATM   32  C   UNL     1      41.216 -15.412  -2.157  1.00  0.00     0.007 A 
ENDBRANCH  25  26
ENDBRANCH   1  25
BRANCH   5  33
HETATM   33  C   UNL     1      40.561 -12.622   4.165  1.00  0.00     0.140 C 
BRANCH  33  34
HETATM   34  C   UNL     1      39.772 -13.550   5.102  1.00  0.00    -0.004 C 
HETATM   35  C   UNL     1      40.676 -14.568   5.798  1.00  0.00     0.011 C 
HETATM   36  C   UNL     1      39.034 -12.709   6.146  1.00  0.00     0.011 C 
ENDBRANCH  33  34
ENDBRANCH   5  33
TORSDOF 7
ENDMDL
MODEL 9
REMARK VINA RESULT:      -8.7      3.408      7.586
REMARK  7 active torsions:
REMARK  status: ('A' for Active; 'I' for Inactive)
REMARK    1  A    between atoms: C_8  and  C_9 
REMARK    2  A    between atoms: C_9  and  N_10 
REMARK    3  A    between atoms: C_14  and  C_15 
REMARK    4  A    between atoms: C_15  and  C_16 
REMARK    5  A    between atoms: C_16  and  C_17 
REMARK    6  A    between atoms: N_27  and  C_28 
REMARK    7  A    between atoms: C_28  and  C_29 
ROOT
HETATM    1  C   UNL     1      40.918 -14.493   1.691  1.00  0.00     0.123 A 
HETATM    2  N   UNL     1      42.356 -14.305   1.817  1.00  0.00    -0.324 N 
HETATM    3  C   UNL     1      42.745 -13.802   3.035  1.00  0.00     0.326 A 
HETATM    4  O   UNL     1      43.899 -13.571   3.340  1.00  0.00    -0.247 OA
HETATM    5  N   UNL     1      41.635 -13.664   3.809  1.00  0.00    -0.268 N 
HETATM    6  C   UNL     1      40.522 -14.030   3.110  1.00  0.00     0.257 A 
HETATM    7  O   UNL     1      39.381 -14.051   3.552  1.00  0.00    -0.270 OA
HETATM    8  H   UNL     1      43.035 -14.413   1.069  1.00  0.00     0.165 HD
ENDROOT
BRANCH   1   9
HETATM    9  C   UNL     1      40.608 -16.004   1.399  1.00  0.00     0.027 C 
HETATM   10  C   UNL     1      40.525 -16.962   2.600  1.00  0.00     0.035 C 
HETATM   11  C   UNL     1      41.850 -17.464   3.159  1.00  0.00     0.235 C 
HETATM   12  N   UNL     1      42.797 -17.926   2.081  1.00  0.00    -0.067 N 
HETATM   13  H   UNL     1      42.483 -18.862   1.787  1.00  0.00     0.280 HD
HETATM   14  C   UNL     1      42.878 -17.082   0.838  1.00  0.00     0.235 C 
HETATM   15  C   UNL     1      41.503 -16.677   0.338  1.00  0.00     0.035 C 
BRANCH  12  16
HETATM   16  C   UNL     1      44.203 -18.117   2.639  1.00  0.00     0.278 C 
BRANCH  16  17
HETATM   17  C   UNL     1      44.344 -19.271   3.549  1.00  0.00     0.034 A 
HETATM   18  C   UNL     1      44.538 -19.271   4.960  1.00  0.00     0.062 A 
HETATM   19  C   UNL     1      44.619 -18.114   5.891  1.00  0.00     0.073 C 
HETATM   20  N   UNL     1      44.636 -20.514   5.446  1.00  0.00    -0.176 NA
HETATM   21  N   UNL     1      44.569 -21.314   4.364  1.00  0.00    -0.262 N 
HETATM   22  C   UNL     1      44.744 -22.740   4.519  1.00  0.00     0.181 C 
HETATM   23  C   UNL     1      44.353 -20.605   3.222  1.00  0.00     0.131 A 
HETATM   24 CL   UNL     1      44.169 -21.375   1.717  1.00  0.00    -0.062 Cl
ENDBRANCH  16  17
ENDBRANCH  12  16
ENDBRANCH   1   9
BRANCH   1  25
HETATM   25  C   UNL     1      40.309 -13.475   0.693  1.00  0.00     0.080 C 
BRANCH  25  26
HETATM   26  C   UNL     1      41.195 -13.120  -0.481  1.00  0.00    -0.052 A 
HETATM   27  C   UNL     1      42.102 -12.055  -0.413  1.00  0.00     0.049 A 
HETATM   28  C   UNL     1      42.895 -11.742  -1.515  1.00  0.00     0.116 A 
HETATM   29  F   UNL     1      43.746 -10.711  -1.434  1.00  0.00    -0.206 F 
HETATM   30  C   UNL     1      42.814 -12.477  -2.691  1.00  0.00     0.042 A 
HETATM   31  C   UNL     1      41.927 -13.546  -2.766  1.00  0.00     0.003 A 
HETATM   32  C   UNL     1      41.123 -13.867  -1.669  1.00  0.00     0.007 A 
ENDBRANCH  25  26
ENDBRANCH   1  25
BRANCH   5  33
HETATM   33  C   UNL     1      41.649 -13.230   5.193  1.00  0.00     0.140 C 
BRANCH  33  34
HETATM   34  C   UNL     1      41.744 -11.706   5.363  1.00  0.00    -0.004 C 
HETATM   35  C   UNL     1      40.622 -10.974   4.625  1.00  0.00     0.011 C 
HETATM   36  C   UNL     1      41.702 -11.356   6.852  1.00  0.00     0.011 C 
ENDBRANCH  33  34
ENDBRANCH   5  33
TORSDOF 7
ENDMDL
MODEL 10
REMARK VINA RESULT:      -8.4      3.130      7.923
REMARK  7 active torsions:
REMARK  status: ('A' for Active; 'I' for Inactive)
REMARK    1  A    between atoms: C_8  and  C_9 
REMARK    2  A    between atoms: C_9  and  N_10 
REMARK    3  A    between atoms: C_14  and  C_15 
REMARK    4  A    between atoms: C_15  and  C_16 
REMARK    5  A    between atoms: C_16  and  C_17 
REMARK    6  A    between atoms: N_27  and  C_28 
REMARK    7  A    between atoms: C_28  and  C_29 
ROOT
HETATM    1  C   UNL     1      40.789 -15.056   1.055  1.00  0.00     0.123 A 
HETATM    2  N   UNL     1      39.398 -15.119   1.476  1.00  0.00    -0.324 N 
HETATM    3  C   UNL     1      38.549 -14.370   0.698  1.00  0.00     0.326 A 
HETATM    4  O   UNL     1      37.350 -14.287   0.882  1.00  0.00    -0.247 OA
HETATM    5  N   UNL     1      39.279 -13.804  -0.300  1.00  0.00    -0.268 N 
HETATM    6  C   UNL     1      40.596 -14.136  -0.170  1.00  0.00     0.257 A 
HETATM    7  O   UNL     1      41.490 -13.809  -0.939  1.00  0.00    -0.270 OA
HETATM    8  H   UNL     1      39.054 -15.567   2.320  1.00  0.00     0.165 HD
ENDROOT
BRANCH   1   9
HETATM    9  C   UNL     1      41.298 -16.499   0.700  1.00  0.00     0.027 C 
HETATM   10  C   UNL     1      40.831 -17.661   1.593  1.00  0.00     0.035 C 
HETATM   11  C   UNL     1      41.580 -17.849   2.905  1.00  0.00     0.235 C 
HETATM   12  N   UNL     1      43.076 -17.778   2.736  1.00  0.00    -0.067 N 
HETATM   13  H   UNL     1      43.377 -18.685   2.352  1.00  0.00     0.280 HD
HETATM   14  C   UNL     1      43.607 -16.714   1.816  1.00  0.00     0.235 C 
HETATM   15  C   UNL     1      42.823 -16.644   0.518  1.00  0.00     0.035 C 
BRANCH  12  16
HETATM   16  C   UNL     1      43.769 -17.651   4.089  1.00  0.00     0.278 C 
BRANCH  16  17
HETATM   17  C   UNL     1      43.987 -18.936   4.783  1.00  0.00     0.034 A 
HETATM   18  C   UNL     1      43.783 -19.249   6.158  1.00  0.00     0.062 A 
HETATM   19  C   UNL     1      43.270 -18.375   7.247  1.00  0.00     0.073 C 
HETATM   20  N   UNL     1      44.102 -20.519   6.429  1.00  0.00    -0.176 NA
HETATM   21  N   UNL     1      44.565 -21.015   5.265  1.00  0.00    -0.262 N 
HETATM   22  C   UNL     1      45.097 -22.357   5.223  1.00  0.00     0.181 C 
HETATM   23  C   UNL     1      44.471 -20.108   4.255  1.00  0.00     0.131 A 
HETATM   24 CL   UNL     1      44.933 -20.495   2.664  1.00  0.00    -0.062 Cl
ENDBRANCH  16  17
ENDBRANCH  12  16
ENDBRANCH   1   9
BRANCH   1  25
HETATM   25  C   UNL     1      41.647 -14.273   2.082  1.00  0.00     0.080 C 
BRANCH  25  26
HETATM   26  C   UNL     1      40.987 -14.043   3.424  1.00  0.00    -0.052 A 
HETATM   27  C   UNL     1      41.053 -15.002   4.442  1.00  0.00     0.049 A 
HETATM   28  C   UNL     1      40.422 -14.769   5.662  1.00  0.00     0.116 A 
HETATM   29  F   UNL     1      40.486 -15.705   6.618  1.00  0.00    -0.206 F 
HETATM   30  C   UNL     1      39.727 -13.591   5.899  1.00  0.00     0.042 A 
HETATM   31  C   UNL     1      39.665 -12.624   4.900  1.00  0.00     0.003 A 
HETATM   32  C   UNL     1      40.291 -12.847   3.670  1.00  0.00     0.007 A 
ENDBRANCH  25  26
ENDBRANCH   1  25
BRANCH   5  33
HETATM   33  C   UNL     1      38.720 -13.000  -1.371  1.00  0.00     0.140 C 
BRANCH  33  34
HETATM   34  C   UNL     1      38.870 -13.633  -2.763  1.00  0.00    -0.004 C 
HETATM   35  C   UNL     1      37.524 -14.060  -3.348  1.00  0.00     0.011 C 
HETATM   36  C   UNL     1      39.555 -12.638  -3.703  1.00  0.00     0.011 C 
ENDBRANCH  33  34
ENDBRANCH   5  33
TORSDOF 7
ENDMDL
