MODEL 1
REMARK VINA RESULT:      -8.9      0.000      0.000
REMARK  6 active torsions:
REMARK  status: ('A' for Active; 'I' for Inactive)
REMARK    1  A    between atoms: O_2  and  C_3 
REMARK    2  A    between atoms: C_4  and  C_5 
REMARK       I    between atoms: C_5  and  N_6 
REMARK    3  A    between atoms: N_6  and  C_7 
REMARK    4  A    between atoms: C_9  and  C_10 
REMARK    5  A    between atoms: C_10  and  C_11 
REMARK    6  A    between atoms: C_11  and  C_12 
ROOT
HETATM    1  C   UNL     1      43.153 -13.919   5.850  1.00  0.00     0.725 A 
HETATM    2  N   UNL     1      42.650 -15.117   5.682  1.00  0.00    -0.046 NA
HETATM    3  C   UNL     1      42.777 -15.352   4.339  1.00  0.00     0.166 A 
HETATM    4  N   UNL     1      43.354 -14.355   3.655  1.00  0.00    -0.144 NA
HETATM    5  N   UNL     1      43.571 -13.458   4.631  1.00  0.00    -0.106 N 
HETATM    6  H   UNL     1      44.006 -12.576   4.399  1.00  0.00     0.208 HD
ENDROOT
BRANCH   1   7
HETATM    7  N   UNL     1      43.272 -13.173   6.999  1.00  0.00    -0.152 N 
HETATM    8  C   UNL     1      44.503 -12.954   7.595  1.00  0.00     0.272 C 
HETATM    9  O   UNL     1      45.598 -13.324   7.203  1.00  0.00    -0.267 OA
HETATM   10  H   UNL     1      42.437 -12.815   7.438  1.00  0.00     0.187 HD
BRANCH   8  11
HETATM   11  C   UNL     1      44.419 -12.180   8.861  1.00  0.00     0.066 A 
HETATM   12  C   UNL     1      43.535 -11.102   9.005  1.00  0.00     0.084 A 
HETATM   13  C   UNL     1      43.439 -10.441  10.234  1.00  0.00     0.038 A 
HETATM   14  C   UNL     1      44.245 -10.825  11.307  1.00  0.00     0.003 A 
HETATM   15  C   UNL     1      45.133 -11.889  11.166  1.00  0.00     0.001 A 
HETATM   16  C   UNL     1      45.217 -12.573   9.950  1.00  0.00     0.020 A 
BRANCH  12  17
HETATM   17  O   UNL     1      42.675 -10.673   8.030  1.00  0.00    -0.355 OA
HETATM   18  C   UNL     1      41.707  -9.755   8.533  1.00  0.00     0.210 C 
ENDBRANCH  12  17
ENDBRANCH   8  11
ENDBRANCH   1   7
BRANCH   3  19
HETATM   19  C   UNL     1      42.320 -16.629   3.732  1.00  0.00     0.087 C 
BRANCH  19  20
HETATM   20  C   UNL     1      43.427 -17.397   3.009  1.00  0.00     0.048 C 
BRANCH  20  21
HETATM   21  C   UNL     1      43.928 -18.558   3.814  1.00  0.00    -0.030 A 
HETATM   22  C   UNL     1      44.087 -19.912   3.373  1.00  0.00    -0.002 A 
HETATM   23  C   UNL     1      44.612 -20.641   4.440  1.00  0.00     0.042 A 
HETATM   24  C   UNL     1      43.845 -20.584   2.157  1.00  0.00     0.014 A 
HETATM   25  C   UNL     1      44.913 -22.005   4.354  1.00  0.00     0.030 A 
HETATM   26  N   UNL     1      44.752 -19.769   5.495  1.00  0.00    -0.365 N 
HETATM   27  C   UNL     1      44.668 -22.646   3.136  1.00  0.00     0.002 A 
HETATM   28  C   UNL     1      44.141 -21.948   2.051  1.00  0.00     0.001 A 
HETATM   29  H   UNL     1      45.113 -20.023   6.404  1.00  0.00     0.165 HD
HETATM   30  C   UNL     1      44.344 -18.515   5.131  1.00  0.00     0.096 A 
ENDBRANCH  20  21
ENDBRANCH  19  20
ENDBRANCH   3  19
TORSDOF 6
ENDMDL
MODEL 2
REMARK VINA RESULT:      -8.8      2.835      9.783
REMARK  6 active torsions:
REMARK  status: ('A' for Active; 'I' for Inactive)
REMARK    1  A    between atoms: O_2  and  C_3 
REMARK    2  A    between atoms: C_4  and  C_5 
REMARK       I    between atoms: C_5  and  N_6 
REMARK    3  A    between atoms: N_6  and  C_7 
REMARK    4  A    between atoms: C_9  and  C_10 
REMARK    5  A    between atoms: C_10  and  C_11 
REMARK    6  A    between atoms: C_11  and  C_12 
ROOT
HETATM    1  C   UNL     1      45.215 -13.632   7.570  1.00  0.00     0.725 A 
HETATM    2  N   UNL     1      44.843 -13.206   8.751  1.00  0.00    -0.046 NA
HETATM    3  C   UNL     1      45.726 -12.201   9.043  1.00  0.00     0.166 A 
HETATM    4  N   UNL     1      46.632 -11.964   8.084  1.00  0.00    -0.144 NA
HETATM    5  N   UNL     1      46.294 -12.890   7.171  1.00  0.00    -0.106 N 
HETATM    6  H   UNL     1      46.827 -12.951   6.314  1.00  0.00     0.208 HD
ENDROOT
BRANCH   1   7
HETATM    7  N   UNL     1      44.689 -14.640   6.798  1.00  0.00    -0.152 N 
HETATM    8  C   UNL     1      43.574 -14.436   6.002  1.00  0.00     0.272 C 
HETATM    9  O   UNL     1      42.954 -13.396   5.840  1.00  0.00    -0.267 OA
HETATM   10  H   UNL     1      45.102 -15.559   6.847  1.00  0.00     0.187 HD
BRANCH   8  11
HETATM   11  C   UNL     1      43.119 -15.660   5.293  1.00  0.00     0.066 A 
HETATM   12  C   UNL     1      42.606 -16.763   5.989  1.00  0.00     0.084 A 
HETATM   13  C   UNL     1      42.127 -17.870   5.281  1.00  0.00     0.038 A 
HETATM   14  C   UNL     1      42.190 -17.897   3.887  1.00  0.00     0.003 A 
HETATM   15  C   UNL     1      42.709 -16.808   3.190  1.00  0.00     0.001 A 
HETATM   16  C   UNL     1      43.165 -15.686   3.888  1.00  0.00     0.020 A 
BRANCH  12  17
HETATM   17  O   UNL     1      42.463 -16.819   7.349  1.00  0.00    -0.355 OA
HETATM   18  C   UNL     1      43.369 -17.745   7.946  1.00  0.00     0.210 C 
ENDBRANCH  12  17
ENDBRANCH   8  11
ENDBRANCH   1   7
BRANCH   3  19
HETATM   19  C   UNL     1      45.640 -11.442  10.317  1.00  0.00     0.087 C 
BRANCH  19  20
HETATM   20  C   UNL     1      44.655 -10.274  10.273  1.00  0.00     0.048 C 
BRANCH  20  21
HETATM   21  C   UNL     1      43.351 -10.608  10.933  1.00  0.00    -0.030 A 
HETATM   22  C   UNL     1      42.950 -10.283  12.270  1.00  0.00    -0.002 A 
HETATM   23  C   UNL     1      41.651 -10.759  12.444  1.00  0.00     0.042 A 
HETATM   24  C   UNL     1      43.569  -9.614  13.346  1.00  0.00     0.014 A 
HETATM   25  C   UNL     1      40.935 -10.596  13.636  1.00  0.00     0.030 A 
HETATM   26  N   UNL     1      41.281 -11.365  11.266  1.00  0.00    -0.365 N 
HETATM   27  C   UNL     1      41.570  -9.925  14.686  1.00  0.00     0.002 A 
HETATM   28  C   UNL     1      42.868  -9.441  14.546  1.00  0.00     0.001 A 
HETATM   29  H   UNL     1      40.383 -11.800  11.103  1.00  0.00     0.165 HD
HETATM   30  C   UNL     1      42.294 -11.281  10.351  1.00  0.00     0.096 A 
ENDBRANCH  20  21
ENDBRANCH  19  20
ENDBRANCH   3  19
TORSDOF 6
ENDMDL
MODEL 3
REMARK VINA RESULT:      -8.6      5.322      8.931
REMARK  6 active torsions:
REMARK  status: ('A' for Active; 'I' for Inactive)
REMARK    1  A    between atoms: O_2  and  C_3 
REMARK    2  A    between atoms: C_4  and  C_5 
REMARK       I    between atoms: C_5  and  N_6 
REMARK    3  A    between atoms: N_6  and  C_7 
REMARK    4  A    between atoms: C_9  and  C_10 
REMARK    5  A    between atoms: C_10  and  C_11 
REMARK    6  A    between atoms: C_11  and  C_12 
ROOT
HETATM    1  C   UNL     1      41.650 -16.689   3.200  1.00  0.00     0.725 A 
HETATM    2  N   UNL     1      40.600 -16.316   2.512  1.00  0.00    -0.046 NA
HETATM    3  C   UNL     1      40.470 -14.981   2.790  1.00  0.00     0.166 A 
HETATM    4  N   UNL     1      41.406 -14.493   3.614  1.00  0.00    -0.144 NA
HETATM    5  N   UNL     1      42.132 -15.595   3.867  1.00  0.00    -0.106 N 
HETATM    6  H   UNL     1      42.929 -15.526   4.485  1.00  0.00     0.208 HD
ENDROOT
BRANCH   1   7
HETATM    7  N   UNL     1      42.231 -17.930   3.306  1.00  0.00    -0.152 N 
HETATM    8  C   UNL     1      43.449 -18.213   2.708  1.00  0.00     0.272 C 
HETATM    9  O   UNL     1      44.164 -17.450   2.077  1.00  0.00    -0.267 OA
HETATM   10  H   UNL     1      41.738 -18.662   3.794  1.00  0.00     0.187 HD
BRANCH   8  11
HETATM   11  C   UNL     1      43.881 -19.624   2.881  1.00  0.00     0.066 A 
HETATM   12  C   UNL     1      44.471 -20.071   4.071  1.00  0.00     0.084 A 
HETATM   13  C   UNL     1      44.803 -21.421   4.218  1.00  0.00     0.038 A 
HETATM   14  C   UNL     1      44.585 -22.319   3.173  1.00  0.00     0.003 A 
HETATM   15  C   UNL     1      44.009 -21.879   1.983  1.00  0.00     0.001 A 
HETATM   16  C   UNL     1      43.648 -20.537   1.837  1.00  0.00     0.020 A 
BRANCH  12  17
HETATM   17  O   UNL     1      44.690 -19.281   5.168  1.00  0.00    -0.355 OA
HETATM   18  C   UNL     1      43.911 -19.692   6.290  1.00  0.00     0.210 C 
ENDBRANCH  12  17
ENDBRANCH   8  11
ENDBRANCH   1   7
BRANCH   3  19
HETATM   19  C   UNL     1      39.380 -14.170   2.189  1.00  0.00     0.087 C 
BRANCH  19  20
HETATM   20  C   UNL     1      39.868 -13.144   1.166  1.00  0.00     0.048 C 
BRANCH  20  21
HETATM   21  C   UNL     1      40.354 -13.791  -0.096  1.00  0.00    -0.030 A 
HETATM   22  C   UNL     1      39.572 -14.140  -1.245  1.00  0.00    -0.002 A 
HETATM   23  C   UNL     1      40.440 -14.685  -2.191  1.00  0.00     0.042 A 
HETATM   24  C   UNL     1      38.205 -14.029  -1.575  1.00  0.00     0.014 A 
HETATM   25  C   UNL     1      40.014 -15.121  -3.452  1.00  0.00     0.030 A 
HETATM   26  N   UNL     1      41.697 -14.684  -1.634  1.00  0.00    -0.365 N 
HETATM   27  C   UNL     1      38.655 -14.995  -3.754  1.00  0.00     0.002 A 
HETATM   28  C   UNL     1      37.761 -14.458  -2.831  1.00  0.00     0.001 A 
HETATM   29  H   UNL     1      42.529 -15.023  -2.098  1.00  0.00     0.165 HD
HETATM   30  C   UNL     1      41.658 -14.150  -0.376  1.00  0.00     0.096 A 
ENDBRANCH  20  21
ENDBRANCH  19  20
ENDBRANCH   3  19
TORSDOF 6
ENDMDL
MODEL 4
REMARK VINA RESULT:      -8.5      2.482      9.900
REMARK  6 active torsions:
REMARK  status: ('A' for Active; 'I' for Inactive)
REMARK    1  A    between atoms: O_2  and  C_3 
REMARK    2  A    between atoms: C_4  and  C_5 
REMARK       I    between atoms: C_5  and  N_6 
REMARK    3  A    between atoms: N_6  and  C_7 
REMARK    4  A    between atoms: C_9  and  C_10 
REMARK    5  A    between atoms: C_10  and  C_11 
REMARK    6  A    between atoms: C_11  and  C_12 
ROOT
HETATM    1  C   UNL     1      44.310 -14.093   7.024  1.00  0.00     0.725 A 
HETATM    2  N   UNL     1      45.273 -13.722   7.832  1.00  0.00    -0.046 NA
HETATM    3  C   UNL     1      44.823 -12.551   8.380  1.00  0.00     0.166 A 
HETATM    4  N   UNL     1      43.606 -12.176   7.963  1.00  0.00    -0.144 NA
HETATM    5  N   UNL     1      43.311 -13.161   7.098  1.00  0.00    -0.106 N 
HETATM    6  H   UNL     1      42.425 -13.137   6.611  1.00  0.00     0.208 HD
ENDROOT
BRANCH   1   7
HETATM    7  N   UNL     1      44.232 -15.193   6.203  1.00  0.00    -0.152 N 
HETATM    8  C   UNL     1      43.896 -16.442   6.698  1.00  0.00     0.272 C 
HETATM    9  O   UNL     1      43.598 -16.735   7.846  1.00  0.00    -0.267 OA
HETATM   10  H   UNL     1      44.466 -15.093   5.227  1.00  0.00     0.187 HD
BRANCH   8  11
HETATM   11  C   UNL     1      43.926 -17.515   5.670  1.00  0.00     0.066 A 
HETATM   12  C   UNL     1      43.244 -17.384   4.452  1.00  0.00     0.084 A 
HETATM   13  C   UNL     1      43.351 -18.387   3.485  1.00  0.00     0.038 A 
HETATM   14  C   UNL     1      44.103 -19.535   3.738  1.00  0.00     0.003 A 
HETATM   15  C   UNL     1      44.774 -19.676   4.951  1.00  0.00     0.001 A 
HETATM   16  C   UNL     1      44.695 -18.666   5.914  1.00  0.00     0.020 A 
BRANCH  12  17
HETATM   17  O   UNL     1      42.515 -16.283   4.091  1.00  0.00    -0.355 OA
HETATM   18  C   UNL     1      41.216 -16.631   3.616  1.00  0.00     0.210 C 
ENDBRANCH  12  17
ENDBRANCH   8  11
ENDBRANCH   1   7
BRANCH   3  19
HETATM   19  C   UNL     1      45.635 -11.800   9.372  1.00  0.00     0.087 C 
BRANCH  19  20
HETATM   20  C   UNL     1      44.901 -10.615   9.998  1.00  0.00     0.048 C 
BRANCH  20  21
HETATM   21  C   UNL     1      44.106 -11.015  11.204  1.00  0.00    -0.030 A 
HETATM   22  C   UNL     1      43.439 -10.146  12.128  1.00  0.00    -0.002 A 
HETATM   23  C   UNL     1      42.800 -10.950  13.072  1.00  0.00     0.042 A 
HETATM   24  C   UNL     1      43.308  -8.746  12.241  1.00  0.00     0.014 A 
HETATM   25  C   UNL     1      42.032 -10.428  14.120  1.00  0.00     0.030 A 
HETATM   26  N   UNL     1      43.080 -12.256  12.746  1.00  0.00    -0.365 N 
HETATM   27  C   UNL     1      41.915  -9.037  14.206  1.00  0.00     0.002 A 
HETATM   28  C   UNL     1      42.543  -8.206  13.282  1.00  0.00     0.001 A 
HETATM   29  H   UNL     1      42.743 -13.059  13.259  1.00  0.00     0.165 HD
HETATM   30  C   UNL     1      43.864 -12.308  11.626  1.00  0.00     0.096 A 
ENDBRANCH  20  21
ENDBRANCH  19  20
ENDBRANCH   3  19
TORSDOF 6
ENDMDL
MODEL 5
REMARK VINA RESULT:      -8.5      5.193      9.068
REMARK  6 active torsions:
REMARK  status: ('A' for Active; 'I' for Inactive)
REMARK    1  A    between atoms: O_2  and  C_3 
REMARK    2  A    between atoms: C_4  and  C_5 
REMARK       I    between atoms: C_5  and  N_6 
REMARK    3  A    between atoms: N_6  and  C_7 
REMARK    4  A    between atoms: C_9  and  C_10 
REMARK    5  A    between atoms: C_10  and  C_11 
REMARK    6  A    between atoms: C_11  and  C_12 
ROOT
HETATM    1  C   UNL     1      40.873 -16.388   2.463  1.00  0.00     0.725 A 
HETATM    2  N   UNL     1      41.146 -15.113   2.336  1.00  0.00    -0.046 NA
HETATM    3  C   UNL     1      39.964 -14.552   1.934  1.00  0.00     0.166 A 
HETATM    4  N   UNL     1      38.950 -15.420   1.817  1.00  0.00    -0.144 NA
HETATM    5  N   UNL     1      39.555 -16.574   2.145  1.00  0.00    -0.106 N 
HETATM    6  H   UNL     1      39.016 -17.429   2.138  1.00  0.00     0.208 HD
ENDROOT
BRANCH   1   7
HETATM    7  N   UNL     1      41.696 -17.427   2.830  1.00  0.00    -0.152 N 
HETATM    8  C   UNL     1      42.672 -17.913   1.976  1.00  0.00     0.272 C 
HETATM    9  O   UNL     1      42.963 -17.502   0.863  1.00  0.00    -0.267 OA
HETATM   10  H   UNL     1      41.555 -17.870   3.725  1.00  0.00     0.187 HD
BRANCH   8  11
HETATM   11  C   UNL     1      43.415 -19.077   2.526  1.00  0.00     0.066 A 
HETATM   12  C   UNL     1      44.048 -19.019   3.775  1.00  0.00     0.084 A 
HETATM   13  C   UNL     1      44.681 -20.157   4.287  1.00  0.00     0.038 A 
HETATM   14  C   UNL     1      44.717 -21.338   3.545  1.00  0.00     0.003 A 
HETATM   15  C   UNL     1      44.098 -21.398   2.298  1.00  0.00     0.001 A 
HETATM   16  C   UNL     1      43.440 -20.275   1.790  1.00  0.00     0.020 A 
BRANCH  12  17
HETATM   17  O   UNL     1      44.036 -17.924   4.597  1.00  0.00    -0.355 OA
HETATM   18  C   UNL     1      44.644 -18.193   5.859  1.00  0.00     0.210 C 
ENDBRANCH  12  17
ENDBRANCH   8  11
ENDBRANCH   1   7
BRANCH   3  19
HETATM   19  C   UNL     1      39.848 -13.092   1.681  1.00  0.00     0.087 C 
BRANCH  19  20
HETATM   20  C   UNL     1      40.378 -12.660   0.314  1.00  0.00     0.048 C 
BRANCH  20  21
HETATM   21  C   UNL     1      39.451 -13.046  -0.799  1.00  0.00    -0.030 A 
HETATM   22  C   UNL     1      39.642 -14.091  -1.761  1.00  0.00    -0.002 A 
HETATM   23  C   UNL     1      38.515 -14.114  -2.584  1.00  0.00     0.042 A 
HETATM   24  C   UNL     1      40.665 -15.032  -1.999  1.00  0.00     0.014 A 
HETATM   25  C   UNL     1      38.356 -15.031  -3.629  1.00  0.00     0.030 A 
HETATM   26  N   UNL     1      37.679 -13.112  -2.151  1.00  0.00    -0.365 N 
HETATM   27  C   UNL     1      39.383 -15.955  -3.841  1.00  0.00     0.002 A 
HETATM   28  C   UNL     1      40.523 -15.958  -3.040  1.00  0.00     0.001 A 
HETATM   29  H   UNL     1      36.782 -12.896  -2.564  1.00  0.00     0.165 HD
HETATM   30  C   UNL     1      38.230 -12.463  -1.080  1.00  0.00     0.096 A 
ENDBRANCH  20  21
ENDBRANCH  19  20
ENDBRANCH   3  19
TORSDOF 6
ENDMDL
MODEL 6
REMARK VINA RESULT:      -8.4      3.918      8.431
REMARK  6 active torsions:
REMARK  status: ('A' for Active; 'I' for Inactive)
REMARK    1  A    between atoms: O_2  and  C_3 
REMARK    2  A    between atoms: C_4  and  C_5 
REMARK       I    between atoms: C_5  and  N_6 
REMARK    3  A    between atoms: N_6  and  C_7 
REMARK    4  A    between atoms: C_9  and  C_10 
REMARK    5  A    between atoms: C_10  and  C_11 
REMARK    6  A    between atoms: C_11  and  C_12 
ROOT
HETATM    1  C   UNL     1      41.695 -17.198   1.328  1.00  0.00     0.725 A 
HETATM    2  N   UNL     1      40.602 -16.565   1.675  1.00  0.00    -0.046 NA
HETATM    3  C   UNL     1      40.556 -15.484   0.836  1.00  0.00     0.166 A 
HETATM    4  N   UNL     1      41.570 -15.418  -0.038  1.00  0.00    -0.144 NA
HETATM    5  N   UNL     1      42.280 -16.506   0.303  1.00  0.00    -0.106 N 
HETATM    6  H   UNL     1      43.131 -16.714  -0.201  1.00  0.00     0.208 HD
ENDROOT
BRANCH   1   7
HETATM    7  N   UNL     1      42.242 -18.347   1.848  1.00  0.00    -0.152 N 
HETATM    8  C   UNL     1      43.610 -18.482   2.024  1.00  0.00     0.272 C 
HETATM    9  O   UNL     1      44.476 -17.650   1.802  1.00  0.00    -0.267 OA
HETATM   10  H   UNL     1      41.636 -19.123   2.065  1.00  0.00     0.187 HD
BRANCH   8  11
HETATM   11  C   UNL     1      44.013 -19.817   2.537  1.00  0.00     0.066 A 
HETATM   12  C   UNL     1      44.493 -19.987   3.843  1.00  0.00     0.084 A 
HETATM   13  C   UNL     1      44.799 -21.270   4.309  1.00  0.00     0.038 A 
HETATM   14  C   UNL     1      44.665 -22.377   3.470  1.00  0.00     0.003 A 
HETATM   15  C   UNL     1      44.198 -22.212   2.168  1.00  0.00     0.001 A 
HETATM   16  C   UNL     1      43.864 -20.938   1.702  1.00  0.00     0.020 A 
BRANCH  12  17
HETATM   17  O   UNL     1      44.623 -18.975   4.756  1.00  0.00    -0.355 OA
HETATM   18  C   UNL     1      44.113 -19.339   6.037  1.00  0.00     0.210 C 
ENDBRANCH  12  17
ENDBRANCH   8  11
ENDBRANCH   1   7
BRANCH   3  19
HETATM   19  C   UNL     1      39.445 -14.500   0.903  1.00  0.00     0.087 C 
BRANCH  19  20
HETATM   20  C   UNL     1      39.214 -13.927   2.301  1.00  0.00     0.048 C 
BRANCH  20  21
HETATM   21  C   UNL     1      40.490 -13.472   2.944  1.00  0.00    -0.030 A 
HETATM   22  C   UNL     1      41.167 -14.082   4.050  1.00  0.00    -0.002 A 
HETATM   23  C   UNL     1      42.327 -13.344   4.289  1.00  0.00     0.042 A 
HETATM   24  C   UNL     1      40.907 -15.205   4.863  1.00  0.00     0.014 A 
HETATM   25  C   UNL     1      43.243 -13.673   5.295  1.00  0.00     0.030 A 
HETATM   26  N   UNL     1      42.347 -12.316   3.376  1.00  0.00    -0.365 N 
HETATM   27  C   UNL     1      42.964 -14.793   6.083  1.00  0.00     0.002 A 
HETATM   28  C   UNL     1      41.813 -15.550   5.874  1.00  0.00     0.001 A 
HETATM   29  H   UNL     1      43.076 -11.620   3.314  1.00  0.00     0.165 HD
HETATM   30  C   UNL     1      41.249 -12.382   2.563  1.00  0.00     0.096 A 
ENDBRANCH  20  21
ENDBRANCH  19  20
ENDBRANCH   3  19
TORSDOF 6
ENDMDL
MODEL 7
REMARK VINA RESULT:      -8.4      4.943      7.633
REMARK  6 active torsions:
REMARK  status: ('A' for Active; 'I' for Inactive)
REMARK    1  A    between atoms: O_2  and  C_3 
REMARK    2  A    between atoms: C_4  and  C_5 
REMARK       I    between atoms: C_5  and  N_6 
REMARK    3  A    between atoms: N_6  and  C_7 
REMARK    4  A    between atoms: C_9  and  C_10 
REMARK    5  A    between atoms: C_10  and  C_11 
REMARK    6  A    between atoms: C_11  and  C_12 
ROOT
HETATM    1  C   UNL     1      40.392 -15.709   2.580  1.00  0.00     0.725 A 
HETATM    2  N   UNL     1      41.233 -16.582   3.079  1.00  0.00    -0.046 NA
HETATM    3  C   UNL     1      41.242 -16.314   4.421  1.00  0.00     0.166 A 
HETATM    4  N   UNL     1      40.427 -15.318   4.794  1.00  0.00    -0.144 NA
HETATM    5  N   UNL     1      39.911 -14.946   3.610  1.00  0.00    -0.106 N 
HETATM    6  H   UNL     1      39.246 -14.185   3.582  1.00  0.00     0.208 HD
ENDROOT
BRANCH   1   7
HETATM    7  N   UNL     1      40.006 -15.512   1.276  1.00  0.00    -0.152 N 
HETATM    8  C   UNL     1      40.921 -15.162   0.296  1.00  0.00     0.272 C 
HETATM    9  O   UNL     1      42.128 -15.024   0.418  1.00  0.00    -0.267 OA
HETATM   10  H   UNL     1      39.029 -15.584   1.038  1.00  0.00     0.187 HD
BRANCH   8  11
HETATM   11  C   UNL     1      40.304 -14.931  -1.036  1.00  0.00     0.066 A 
HETATM   12  C   UNL     1      39.220 -14.059  -1.202  1.00  0.00     0.084 A 
HETATM   13  C   UNL     1      38.710 -13.819  -2.482  1.00  0.00     0.038 A 
HETATM   14  C   UNL     1      39.251 -14.471  -3.591  1.00  0.00     0.003 A 
HETATM   15  C   UNL     1      40.322 -15.347  -3.431  1.00  0.00     0.001 A 
HETATM   16  C   UNL     1      40.856 -15.573  -2.159  1.00  0.00     0.020 A 
BRANCH  12  17
HETATM   17  O   UNL     1      38.645 -13.341  -0.187  1.00  0.00    -0.355 OA
HETATM   18  C   UNL     1      39.075 -11.982  -0.180  1.00  0.00     0.210 C 
ENDBRANCH  12  17
ENDBRANCH   8  11
ENDBRANCH   1   7
BRANCH   3  19
HETATM   19  C   UNL     1      42.082 -17.102   5.360  1.00  0.00     0.087 C 
BRANCH  19  20
HETATM   20  C   UNL     1      43.530 -17.265   4.902  1.00  0.00     0.048 C 
BRANCH  20  21
HETATM   21  C   UNL     1      43.956 -18.702   4.870  1.00  0.00    -0.030 A 
HETATM   22  C   UNL     1      43.919 -19.590   3.746  1.00  0.00    -0.002 A 
HETATM   23  C   UNL     1      44.440 -20.815   4.164  1.00  0.00     0.042 A 
HETATM   24  C   UNL     1      43.503 -19.461   2.405  1.00  0.00     0.014 A 
HETATM   25  C   UNL     1      44.571 -21.917   3.309  1.00  0.00     0.030 A 
HETATM   26  N   UNL     1      44.765 -20.684   5.494  1.00  0.00    -0.365 N 
HETATM   27  C   UNL     1      44.155 -21.760   1.984  1.00  0.00     0.002 A 
HETATM   28  C   UNL     1      43.628 -20.551   1.535  1.00  0.00     0.001 A 
HETATM   29  H   UNL     1      45.166 -21.418   6.060  1.00  0.00     0.165 HD
HETATM   30  C   UNL     1      44.479 -19.419   5.929  1.00  0.00     0.096 A 
ENDBRANCH  20  21
ENDBRANCH  19  20
ENDBRANCH   3  19
TORSDOF 6
ENDMDL
MODEL 8
REMARK VINA RESULT:      -8.4      5.774      8.366
REMARK  6 active torsions:
REMARK  status: ('A' for Active; 'I' for Inactive)
REMARK    1  A    between atoms: O_2  and  C_3 
REMARK    2  A    between atoms: C_4  and  C_5 
REMARK       I    between atoms: C_5  and  N_6 
REMARK    3  A    between atoms: N_6  and  C_7 
REMARK    4  A    between atoms: C_9  and  C_10 
REMARK    5  A    between atoms: C_10  and  C_11 
REMARK    6  A    between atoms: C_11  and  C_12 
ROOT
HETATM    1  C   UNL     1      41.099 -15.393   0.559  1.00  0.00     0.725 A 
HETATM    2  N   UNL     1      41.603 -15.308   1.765  1.00  0.00    -0.046 NA
HETATM    3  C   UNL     1      41.460 -16.569   2.282  1.00  0.00     0.166 A 
HETATM    4  N   UNL     1      40.901 -17.451   1.443  1.00  0.00    -0.144 NA
HETATM    5  N   UNL     1      40.672 -16.679   0.367  1.00  0.00    -0.106 N 
HETATM    6  H   UNL     1      40.237 -17.090  -0.448  1.00  0.00     0.208 HD
ENDROOT
BRANCH   1   7
HETATM    7  N   UNL     1      40.969 -14.422  -0.405  1.00  0.00    -0.152 N 
HETATM    8  C   UNL     1      41.044 -14.727  -1.754  1.00  0.00     0.272 C 
HETATM    9  O   UNL     1      41.185 -15.828  -2.263  1.00  0.00    -0.267 OA
HETATM   10  H   UNL     1      40.859 -13.461  -0.119  1.00  0.00     0.187 HD
BRANCH   8  11
HETATM   11  C   UNL     1      40.944 -13.536  -2.638  1.00  0.00     0.066 A 
HETATM   12  C   UNL     1      39.712 -12.925  -2.910  1.00  0.00     0.084 A 
HETATM   13  C   UNL     1      39.668 -11.768  -3.693  1.00  0.00     0.038 A 
HETATM   14  C   UNL     1      40.839 -11.237  -4.235  1.00  0.00     0.003 A 
HETATM   15  C   UNL     1      42.066 -11.846  -3.977  1.00  0.00     0.001 A 
HETATM   16  C   UNL     1      42.123 -12.988  -3.173  1.00  0.00     0.020 A 
BRANCH  12  17
HETATM   17  O   UNL     1      38.514 -13.342  -2.395  1.00  0.00    -0.355 OA
HETATM   18  C   UNL     1      37.414 -12.960  -3.218  1.00  0.00     0.210 C 
ENDBRANCH  12  17
ENDBRANCH   8  11
ENDBRANCH   1   7
BRANCH   3  19
HETATM   19  C   UNL     1      41.922 -16.898   3.655  1.00  0.00     0.087 C 
BRANCH  19  20
HETATM   20  C   UNL     1      43.443 -16.933   3.801  1.00  0.00     0.048 C 
BRANCH  20  21
HETATM   21  C   UNL     1      43.938 -18.275   4.250  1.00  0.00    -0.030 A 
HETATM   22  C   UNL     1      43.978 -19.484   3.481  1.00  0.00    -0.002 A 
HETATM   23  C   UNL     1      44.543 -20.473   4.285  1.00  0.00     0.042 A 
HETATM   24  C   UNL     1      43.598 -19.825   2.166  1.00  0.00     0.014 A 
HETATM   25  C   UNL     1      44.753 -21.785   3.843  1.00  0.00     0.030 A 
HETATM   26  N   UNL     1      44.821 -19.895   5.502  1.00  0.00    -0.365 N 
HETATM   27  C   UNL     1      44.371 -22.095   2.535  1.00  0.00     0.002 A 
HETATM   28  C   UNL     1      43.801 -21.132   1.706  1.00  0.00     0.001 A 
HETATM   29  H   UNL     1      45.239 -20.379   6.284  1.00  0.00     0.165 HD
HETATM   30  C   UNL     1      44.461 -18.575   5.492  1.00  0.00     0.096 A 
ENDBRANCH  20  21
ENDBRANCH  19  20
ENDBRANCH   3  19
TORSDOF 6
ENDMDL
MODEL 9
REMARK VINA RESULT:      -8.4      5.202      7.931
REMARK  6 active torsions:
REMARK  status: ('A' for Active; 'I' for Inactive)
REMARK    1  A    between atoms: O_2  and  C_3 
REMARK    2  A    between atoms: C_4  and  C_5 
REMARK       I    between atoms: C_5  and  N_6 
REMARK    3  A    between atoms: N_6  and  C_7 
REMARK    4  A    between atoms: C_9  and  C_10 
REMARK    5  A    between atoms: C_10  and  C_11 
REMARK    6  A    between atoms: C_11  and  C_12 
ROOT
HETATM    1  C   UNL     1      41.875 -15.834   0.424  1.00  0.00     0.725 A 
HETATM    2  N   UNL     1      42.686 -16.829   0.688  1.00  0.00    -0.046 NA
HETATM    3  C   UNL     1      41.926 -17.699   1.424  1.00  0.00     0.166 A 
HETATM    4  N   UNL     1      40.663 -17.301   1.621  1.00  0.00    -0.144 NA
HETATM    5  N   UNL     1      40.661 -16.115   0.990  1.00  0.00    -0.106 N 
HETATM    6  H   UNL     1      39.812 -15.566   0.979  1.00  0.00     0.208 HD
ENDROOT
BRANCH   1   7
HETATM    7  N   UNL     1      42.112 -14.675  -0.274  1.00  0.00    -0.152 N 
HETATM    8  C   UNL     1      41.273 -14.262  -1.297  1.00  0.00     0.272 C 
HETATM    9  O   UNL     1      40.247 -14.799  -1.683  1.00  0.00    -0.267 OA
HETATM   10  H   UNL     1      42.938 -14.136  -0.063  1.00  0.00     0.187 HD
BRANCH   8  11
HETATM   11  C   UNL     1      41.730 -13.019  -1.973  1.00  0.00     0.066 A 
HETATM   12  C   UNL     1      42.316 -11.967  -1.257  1.00  0.00     0.084 A 
HETATM   13  C   UNL     1      42.792 -10.843  -1.939  1.00  0.00     0.038 A 
HETATM   14  C   UNL     1      42.654 -10.747  -3.324  1.00  0.00     0.003 A 
HETATM   15  C   UNL     1      42.063 -11.785  -4.040  1.00  0.00     0.001 A 
HETATM   16  C   UNL     1      41.608 -12.924  -3.371  1.00  0.00     0.020 A 
BRANCH  12  17
HETATM   17  O   UNL     1      42.534 -11.981   0.095  1.00  0.00    -0.355 OA
HETATM   18  C   UNL     1      41.599 -11.165   0.798  1.00  0.00     0.210 C 
ENDBRANCH  12  17
ENDBRANCH   8  11
ENDBRANCH   1   7
BRANCH   3  19
HETATM   19  C   UNL     1      42.487 -18.981   1.924  1.00  0.00     0.087 C 
BRANCH  19  20
HETATM   20  C   UNL     1      43.939 -18.879   2.389  1.00  0.00     0.048 C 
BRANCH  20  21
HETATM   21  C   UNL     1      44.111 -19.328   3.808  1.00  0.00    -0.030 A 
HETATM   22  C   UNL     1      43.704 -18.630   4.992  1.00  0.00    -0.002 A 
HETATM   23  C   UNL     1      44.032 -19.433   6.085  1.00  0.00     0.042 A 
HETATM   24  C   UNL     1      43.072 -17.393   5.235  1.00  0.00     0.014 A 
HETATM   25  C   UNL     1      43.757 -19.066   7.407  1.00  0.00     0.030 A 
HETATM   26  N   UNL     1      44.631 -20.567   5.588  1.00  0.00    -0.365 N 
HETATM   27  C   UNL     1      43.127 -17.837   7.620  1.00  0.00     0.002 A 
HETATM   28  C   UNL     1      42.789 -17.010   6.552  1.00  0.00     0.001 A 
HETATM   29  H   UNL     1      44.972 -21.331   6.155  1.00  0.00     0.165 HD
HETATM   30  C   UNL     1      44.684 -20.515   4.222  1.00  0.00     0.096 A 
ENDBRANCH  20  21
ENDBRANCH  19  20
ENDBRANCH   3  19
TORSDOF 6
ENDMDL
MODEL 10
REMARK VINA RESULT:      -8.3      2.436      4.166
REMARK  6 active torsions:
REMARK  status: ('A' for Active; 'I' for Inactive)
REMARK    1  A    between atoms: O_2  and  C_3 
REMARK    2  A    between atoms: C_4  and  C_5 
REMARK       I    between atoms: C_5  and  N_6 
REMARK    3  A    between atoms: N_6  and  C_7 
REMARK    4  A    between atoms: C_9  and  C_10 
REMARK    5  A    between atoms: C_10  and  C_11 
REMARK    6  A    between atoms: C_11  and  C_12 
ROOT
HETATM    1  C   UNL     1      44.734 -11.638   9.117  1.00  0.00     0.725 A 
HETATM    2  N   UNL     1      44.252 -12.623   8.401  1.00  0.00    -0.046 NA
HETATM    3  C   UNL     1      45.334 -13.102   7.712  1.00  0.00     0.166 A 
HETATM    4  N   UNL     1      46.484 -12.469   7.977  1.00  0.00    -0.144 NA
HETATM    5  N   UNL     1      46.075 -11.541   8.859  1.00  0.00    -0.106 N 
HETATM    6  H   UNL     1      46.752 -10.895   9.241  1.00  0.00     0.208 HD
ENDROOT
BRANCH   1   7
HETATM    7  N   UNL     1      44.089 -10.793   9.989  1.00  0.00    -0.152 N 
HETATM    8  C   UNL     1      43.738 -11.200  11.266  1.00  0.00     0.272 C 
HETATM    9  O   UNL     1      43.965 -12.277  11.794  1.00  0.00    -0.267 OA
HETATM   10  H   UNL     1      43.830  -9.870   9.674  1.00  0.00     0.187 HD
BRANCH   8  11
HETATM   11  C   UNL     1      42.994 -10.168  12.033  1.00  0.00     0.066 A 
HETATM   12  C   UNL     1      41.810  -9.600  11.542  1.00  0.00     0.084 A 
HETATM   13  C   UNL     1      41.104  -8.681  12.324  1.00  0.00     0.038 A 
HETATM   14  C   UNL     1      41.590  -8.298  13.576  1.00  0.00     0.003 A 
HETATM   15  C   UNL     1      42.771  -8.852  14.064  1.00  0.00     0.001 A 
HETATM   16  C   UNL     1      43.469  -9.792  13.302  1.00  0.00     0.020 A 
BRANCH  12  17
HETATM   17  O   UNL     1      41.230  -9.936  10.349  1.00  0.00    -0.355 OA
HETATM   18  C   UNL     1      40.121 -10.817  10.520  1.00  0.00     0.210 C 
ENDBRANCH  12  17
ENDBRANCH   8  11
ENDBRANCH   1   7
BRANCH   3  19
HETATM   19  C   UNL     1      45.207 -14.247   6.773  1.00  0.00     0.087 C 
BRANCH  19  20
HETATM   20  C   UNL     1      44.050 -15.189   7.104  1.00  0.00     0.048 C 
BRANCH  20  21
HETATM   21  C   UNL     1      43.545 -15.913   5.893  1.00  0.00    -0.030 A 
HETATM   22  C   UNL     1      43.913 -17.227   5.455  1.00  0.00    -0.002 A 
HETATM   23  C   UNL     1      43.174 -17.507   4.305  1.00  0.00     0.042 A 
HETATM   24  C   UNL     1      44.798 -18.213   5.940  1.00  0.00     0.014 A 
HETATM   25  C   UNL     1      43.270 -18.722   3.617  1.00  0.00     0.030 A 
HETATM   26  N   UNL     1      42.400 -16.401   4.043  1.00  0.00    -0.365 N 
HETATM   27  C   UNL     1      44.151 -19.683   4.121  1.00  0.00     0.002 A 
HETATM   28  C   UNL     1      44.906 -19.435   5.265  1.00  0.00     0.001 A 
HETATM   29  H   UNL     1      41.759 -16.322   3.266  1.00  0.00     0.165 HD
HETATM   30  C   UNL     1      42.614 -15.437   4.990  1.00  0.00     0.096 A 
ENDBRANCH  20  21
ENDBRANCH  19  20
ENDBRANCH   3  19
TORSDOF 6
ENDMDL
