MODEL 1
REMARK VINA RESULT:     -10.5      0.000      0.000
REMARK  7 active torsions:
REMARK  status: ('A' for Active; 'I' for Inactive)
REMARK    1  A    between atoms: C_2  and  C_3 
REMARK    2  A    between atoms: N_16  and  C_17 
REMARK    3  A    between atoms: C_17  and  C_18 
REMARK       I    between atoms: C_18  and  N_19 
REMARK    4  A    between atoms: N_19  and  C_20 
REMARK    5  A    between atoms: C_21  and  C_22 
REMARK       I    between atoms: C_22  and  N_23 
REMARK    6  A    between atoms: N_23  and  C_24 
REMARK    7  A    between atoms: C_24  and  C_25 
ROOT
HETATM    1  C   UNL     1      41.510 -13.980   5.221  1.00  0.00     0.240 C 
ENDROOT
BRANCH   1   2
HETATM    2  N   UNL     1      42.389 -14.853   5.958  1.00  0.00    -0.259 N 
HETATM    3  C   UNL     1      43.719 -14.639   6.050  1.00  0.00     0.326 C 
HETATM    4  N   UNL     1      44.332 -15.778   6.494  1.00  0.00    -0.321 N 
HETATM    5  O   UNL     1      44.331 -13.635   5.721  1.00  0.00    -0.247 OA
HETATM    6  C   UNL     1      43.452 -16.939   6.503  1.00  0.00     0.140 C 
HETATM    7  H   UNL     1      45.337 -15.804   6.407  1.00  0.00     0.165 HD
HETATM    8  C   UNL     1      43.353 -17.554   7.897  1.00  0.00     0.055 C 
HETATM    9  C   UNL     1      42.124 -16.175   6.178  1.00  0.00     0.261 C 
HETATM   10  O   UNL     1      41.011 -16.675   6.072  1.00  0.00    -0.270 OA
BRANCH   6  11
HETATM   11  C   UNL     1      43.843 -17.985   5.432  1.00  0.00    -0.010 C 
HETATM   12  C   UNL     1      43.708 -17.772   4.015  1.00  0.00    -0.017 A 
HETATM   13  C   UNL     1      43.955 -18.862   3.132  1.00  0.00    -0.025 A 
HETATM   14  C   UNL     1      43.360 -16.544   3.394  1.00  0.00     0.013 A 
HETATM   15  C   UNL     1      43.756 -18.733   1.748  1.00  0.00     0.012 A 
HETATM   16  C   UNL     1      44.417 -20.087   3.621  1.00  0.00     0.012 C 
HETATM   17  C   UNL     1      43.348 -17.526   1.190  1.00  0.00     0.001 A 
HETATM   18  C   UNL     1      43.168 -16.426   2.012  1.00  0.00     0.001 A 
HETATM   19  C   UNL     1      44.659 -20.258   4.973  1.00  0.00     0.002 C 
HETATM   20  C   UNL     1      44.379 -19.223   5.858  1.00  0.00     0.011 C 
ENDBRANCH   6  11
ENDBRANCH   1   2
BRANCH   1  21
HETATM   21  C   UNL     1      40.745 -12.920   6.017  1.00  0.00     0.240 C 
HETATM   22  N   UNL     1      41.559 -11.815   6.252  1.00  0.00    -0.325 N 
HETATM   23  H   UNL     1      42.550 -12.016   6.310  1.00  0.00     0.169 HD
HETATM   24  O   UNL     1      39.613 -13.066   6.465  1.00  0.00    -0.271 OA
BRANCH  22  25
HETATM   25  C   UNL     1      41.154 -10.584   6.809  1.00  0.00     0.050 A 
HETATM   26  C   UNL     1      41.652 -10.009   7.988  1.00  0.00     0.058 A 
HETATM   27  C   UNL     1      41.104  -8.808   8.472  1.00  0.00     0.019 A 
HETATM   28  C   UNL     1      40.070  -8.172   7.788  1.00  0.00     0.001 A 
HETATM   29  C   UNL     1      39.557  -8.746   6.632  1.00  0.00     0.002 A 
HETATM   30  C   UNL     1      40.086  -9.948   6.154  1.00  0.00     0.030 A 
BRANCH  26  31
HETATM   31  C   UNL     1      42.547 -10.695   8.943  1.00  0.00     0.254 C 
HETATM   32  N   UNL     1      42.026 -10.905  10.195  1.00  0.00    -0.351 N 
HETATM   33  H   UNL     1      41.410 -10.166  10.532  1.00  0.00     0.163 HD
HETATM   34  O   UNL     1      43.626 -11.123   8.550  1.00  0.00    -0.268 OA
BRANCH  32  35
HETATM   35  C   UNL     1      42.829 -11.562  11.200  1.00  0.00     0.187 C 
BRANCH  35  36
HETATM   36  C   UNL     1      42.826 -10.742  12.436  1.00  0.00     0.070 A 
HETATM   37  O   UNL     1      41.920 -11.082  13.399  1.00  0.00    -0.325 OA
HETATM   38  C   UNL     1      42.085 -10.210  14.427  1.00  0.00     0.142 A 
HETATM   39  C   UNL     1      43.084  -9.310  14.139  1.00  0.00     0.027 A 
HETATM   40  C   UNL     1      43.561  -9.650  12.851  1.00  0.00     0.036 A 
ENDBRANCH  35  36
ENDBRANCH  32  35
ENDBRANCH  26  31
ENDBRANCH  22  25
ENDBRANCH   1  21
TORSDOF 7
ENDMDL
MODEL 2
REMARK VINA RESULT:     -10.4      1.390      2.751
REMARK  7 active torsions:
REMARK  status: ('A' for Active; 'I' for Inactive)
REMARK    1  A    between atoms: C_2  and  C_3 
REMARK    2  A    between atoms: N_16  and  C_17 
REMARK    3  A    between atoms: C_17  and  C_18 
REMARK       I    between atoms: C_18  and  N_19 
REMARK    4  A    between atoms: N_19  and  C_20 
REMARK    5  A    between atoms: C_21  and  C_22 
REMARK       I    between atoms: C_22  and  N_23 
REMARK    6  A    between atoms: N_23  and  C_24 
REMARK    7  A    between atoms: C_24  and  C_25 
ROOT
HETATM    1  C   UNL     1      42.469 -13.561   5.106  1.00  0.00     0.240 C 
ENDROOT
BRANCH   1   2
HETATM    2  N   UNL     1      41.783 -14.527   4.285  1.00  0.00    -0.259 N 
HETATM    3  C   UNL     1      40.794 -15.315   4.760  1.00  0.00     0.326 C 
HETATM    4  N   UNL     1      40.578 -16.346   3.887  1.00  0.00    -0.321 N 
HETATM    5  O   UNL     1      40.216 -15.213   5.830  1.00  0.00    -0.247 OA
HETATM    6  C   UNL     1      41.601 -16.450   2.855  1.00  0.00     0.140 C 
HETATM    7  H   UNL     1      40.011 -17.107   4.230  1.00  0.00     0.165 HD
HETATM    8  C   UNL     1      40.996 -16.360   1.456  1.00  0.00     0.055 C 
HETATM    9  C   UNL     1      42.344 -15.111   3.185  1.00  0.00     0.261 C 
HETATM   10  O   UNL     1      43.321 -14.664   2.598  1.00  0.00    -0.270 OA
BRANCH   6  11
HETATM   11  C   UNL     1      42.486 -17.708   3.025  1.00  0.00    -0.010 C 
HETATM   12  C   UNL     1      43.314 -17.957   4.176  1.00  0.00    -0.017 A 
HETATM   13  C   UNL     1      44.202 -19.071   4.153  1.00  0.00    -0.025 A 
HETATM   14  C   UNL     1      43.321 -17.190   5.370  1.00  0.00     0.013 A 
HETATM   15  C   UNL     1      45.092 -19.310   5.213  1.00  0.00     0.012 A 
HETATM   16  C   UNL     1      44.198 -19.964   3.079  1.00  0.00     0.012 C 
HETATM   17  C   UNL     1      45.110 -18.490   6.335  1.00  0.00     0.001 A 
HETATM   18  C   UNL     1      44.211 -17.440   6.422  1.00  0.00     0.001 A 
HETATM   19  C   UNL     1      43.320 -19.792   2.023  1.00  0.00     0.002 C 
HETATM   20  C   UNL     1      42.479 -18.685   2.002  1.00  0.00     0.011 C 
ENDBRANCH   6  11
ENDBRANCH   1   2
BRANCH   1  21
HETATM   21  C   UNL     1      41.821 -12.183   5.258  1.00  0.00     0.240 C 
HETATM   22  N   UNL     1      41.293 -12.038   6.538  1.00  0.00    -0.325 N 
HETATM   23  H   UNL     1      40.992 -12.899   6.979  1.00  0.00     0.169 HD
HETATM   24  O   UNL     1      41.701 -11.366   4.352  1.00  0.00    -0.271 OA
BRANCH  22  25
HETATM   25  C   UNL     1      40.766 -10.854   7.094  1.00  0.00     0.050 A 
HETATM   26  C   UNL     1      41.279 -10.164   8.203  1.00  0.00     0.058 A 
HETATM   27  C   UNL     1      40.608  -9.033   8.700  1.00  0.00     0.019 A 
HETATM   28  C   UNL     1      39.435  -8.580   8.100  1.00  0.00     0.001 A 
HETATM   29  C   UNL     1      38.909  -9.270   7.015  1.00  0.00     0.002 A 
HETATM   30  C   UNL     1      39.562 -10.404   6.525  1.00  0.00     0.030 A 
BRANCH  26  31
HETATM   31  C   UNL     1      42.345 -10.675   9.089  1.00  0.00     0.254 C 
HETATM   32  N   UNL     1      41.963 -10.947  10.378  1.00  0.00    -0.351 N 
HETATM   33  H   UNL     1      41.259 -10.315  10.758  1.00  0.00     0.163 HD
HETATM   34  O   UNL     1      43.448 -10.924   8.615  1.00  0.00    -0.268 OA
BRANCH  32  35
HETATM   35  C   UNL     1      42.938 -11.444  11.321  1.00  0.00     0.187 C 
BRANCH  35  36
HETATM   36  C   UNL     1      42.798 -10.704  12.599  1.00  0.00     0.070 A 
HETATM   37  O   UNL     1      41.760 -11.065  13.409  1.00  0.00    -0.325 OA
HETATM   38  C   UNL     1      41.816 -10.268  14.507  1.00  0.00     0.142 A 
HETATM   39  C   UNL     1      42.874  -9.396  14.416  1.00  0.00     0.027 A 
HETATM   40  C   UNL     1      43.508  -9.674  13.181  1.00  0.00     0.036 A 
ENDBRANCH  35  36
ENDBRANCH  32  35
ENDBRANCH  26  31
ENDBRANCH  22  25
ENDBRANCH   1  21
TORSDOF 7
ENDMDL
MODEL 3
REMARK VINA RESULT:     -10.3      5.714      8.886
REMARK  7 active torsions:
REMARK  status: ('A' for Active; 'I' for Inactive)
REMARK    1  A    between atoms: C_2  and  C_3 
REMARK    2  A    between atoms: N_16  and  C_17 
REMARK    3  A    between atoms: C_17  and  C_18 
REMARK       I    between atoms: C_18  and  N_19 
REMARK    4  A    between atoms: N_19  and  C_20 
REMARK    5  A    between atoms: C_21  and  C_22 
REMARK       I    between atoms: C_22  and  N_23 
REMARK    6  A    between atoms: N_23  and  C_24 
REMARK    7  A    between atoms: C_24  and  C_25 
ROOT
HETATM    1  C   UNL     1      40.766 -14.829   3.396  1.00  0.00     0.240 C 
ENDROOT
BRANCH   1   2
HETATM    2  N   UNL     1      41.525 -15.825   2.683  1.00  0.00    -0.259 N 
HETATM    3  C   UNL     1      40.971 -16.964   2.213  1.00  0.00     0.326 C 
HETATM    4  N   UNL     1      41.961 -17.855   1.903  1.00  0.00    -0.321 N 
HETATM    5  O   UNL     1      39.782 -17.232   2.137  1.00  0.00    -0.247 OA
HETATM    6  C   UNL     1      43.274 -17.446   2.383  1.00  0.00     0.140 C 
HETATM    7  H   UNL     1      41.667 -18.806   1.737  1.00  0.00     0.165 HD
HETATM    8  C   UNL     1      44.281 -17.343   1.240  1.00  0.00     0.055 C 
HETATM    9  C   UNL     1      42.869 -16.006   2.848  1.00  0.00     0.261 C 
HETATM   10  O   UNL     1      43.615 -15.170   3.343  1.00  0.00    -0.270 OA
BRANCH   6  11
HETATM   11  C   UNL     1      43.790 -18.345   3.532  1.00  0.00    -0.010 C 
HETATM   12  C   UNL     1      44.107 -19.741   3.379  1.00  0.00    -0.017 A 
HETATM   13  C   UNL     1      44.425 -20.503   4.540  1.00  0.00    -0.025 A 
HETATM   14  C   UNL     1      44.150 -20.448   2.149  1.00  0.00     0.013 A 
HETATM   15  C   UNL     1      44.659 -21.885   4.458  1.00  0.00     0.012 A 
HETATM   16  C   UNL     1      44.529 -19.888   5.791  1.00  0.00     0.012 C 
HETATM   17  C   UNL     1      44.623 -22.548   3.237  1.00  0.00     0.001 A 
HETATM   18  C   UNL     1      44.387 -21.826   2.080  1.00  0.00     0.001 A 
HETATM   19  C   UNL     1      44.339 -18.523   5.921  1.00  0.00     0.002 C 
HETATM   20  C   UNL     1      43.979 -17.769   4.810  1.00  0.00     0.011 C 
ENDBRANCH   6  11
ENDBRANCH   1   2
BRANCH   1  21
HETATM   21  C   UNL     1      40.136 -13.704   2.572  1.00  0.00     0.240 C 
HETATM   22  N   UNL     1      41.082 -12.719   2.302  1.00  0.00    -0.325 N 
HETATM   23  H   UNL     1      41.813 -12.622   2.996  1.00  0.00     0.169 HD
HETATM   24  O   UNL     1      38.948 -13.637   2.277  1.00  0.00    -0.271 OA
BRANCH  22  25
HETATM   25  C   UNL     1      40.915 -11.616   1.438  1.00  0.00     0.050 A 
HETATM   26  C   UNL     1      40.929 -11.657   0.036  1.00  0.00     0.058 A 
HETATM   27  C   UNL     1      40.825 -10.466  -0.704  1.00  0.00     0.019 A 
HETATM   28  C   UNL     1      40.701  -9.236  -0.061  1.00  0.00     0.001 A 
HETATM   29  C   UNL     1      40.706  -9.185   1.328  1.00  0.00     0.002 A 
HETATM   30  C   UNL     1      40.825 -10.363   2.070  1.00  0.00     0.030 A 
BRANCH  26  31
HETATM   31  C   UNL     1      41.316 -12.837  -0.765  1.00  0.00     0.254 C 
HETATM   32  N   UNL     1      40.937 -12.807  -2.083  1.00  0.00    -0.351 N 
HETATM   33  H   UNL     1      40.038 -12.357  -2.260  1.00  0.00     0.163 HD
HETATM   34  O   UNL     1      42.025 -13.698  -0.256  1.00  0.00    -0.268 OA
BRANCH  32  35
HETATM   35  C   UNL     1      41.263 -13.920  -2.944  1.00  0.00     0.187 C 
BRANCH  35  36
HETATM   36  C   UNL     1      40.009 -14.573  -3.391  1.00  0.00     0.070 A 
HETATM   37  O   UNL     1      40.130 -15.791  -3.995  1.00  0.00    -0.325 OA
HETATM   38  C   UNL     1      38.877 -16.199  -4.324  1.00  0.00     0.142 A 
HETATM   39  C   UNL     1      37.949 -15.259  -3.943  1.00  0.00     0.027 A 
HETATM   40  C   UNL     1      38.679 -14.206  -3.343  1.00  0.00     0.036 A 
ENDBRANCH  35  36
ENDBRANCH  32  35
ENDBRANCH  26  31
ENDBRANCH  22  25
ENDBRANCH   1  21
TORSDOF 7
ENDMDL
MODEL 4
REMARK VINA RESULT:     -10.2      4.736      8.828
REMARK  7 active torsions:
REMARK  status: ('A' for Active; 'I' for Inactive)
REMARK    1  A    between atoms: C_2  and  C_3 
REMARK    2  A    between atoms: N_16  and  C_17 
REMARK    3  A    between atoms: C_17  and  C_18 
REMARK       I    between atoms: C_18  and  N_19 
REMARK    4  A    between atoms: N_19  and  C_20 
REMARK    5  A    between atoms: C_21  and  C_22 
REMARK       I    between atoms: C_22  and  N_23 
REMARK    6  A    between atoms: N_23  and  C_24 
REMARK    7  A    between atoms: C_24  and  C_25 
ROOT
HETATM    1  C   UNL     1      43.225 -16.266   2.400  1.00  0.00     0.240 C 
ENDROOT
BRANCH   1   2
HETATM    2  N   UNL     1      42.078 -15.594   1.843  1.00  0.00    -0.259 N 
HETATM    3  C   UNL     1      41.177 -16.222   1.056  1.00  0.00     0.326 C 
HETATM    4  N   UNL     1      40.418 -15.291   0.404  1.00  0.00    -0.321 N 
HETATM    5  O   UNL     1      41.076 -17.423   0.861  1.00  0.00    -0.247 OA
HETATM    6  C   UNL     1      40.932 -13.934   0.535  1.00  0.00     0.140 C 
HETATM    7  H   UNL     1      39.854 -15.633  -0.360  1.00  0.00     0.165 HD
HETATM    8  C   UNL     1      39.894 -12.999   1.150  1.00  0.00     0.055 C 
HETATM    9  C   UNL     1      42.039 -14.251   1.598  1.00  0.00     0.261 C 
HETATM   10  O   UNL     1      42.806 -13.442   2.105  1.00  0.00    -0.270 OA
BRANCH   6  11
HETATM   11  C   UNL     1      41.494 -13.383  -0.797  1.00  0.00    -0.010 C 
HETATM   12  C   UNL     1      42.043 -12.062  -0.951  1.00  0.00    -0.017 A 
HETATM   13  C   UNL     1      42.388 -11.610  -2.257  1.00  0.00    -0.025 A 
HETATM   14  C   UNL     1      42.297 -11.145   0.103  1.00  0.00     0.013 A 
HETATM   15  C   UNL     1      42.847 -10.301  -2.475  1.00  0.00     0.012 A 
HETATM   16  C   UNL     1      42.291 -12.467  -3.357  1.00  0.00     0.012 C 
HETATM   17  C   UNL     1      43.016  -9.415  -1.417  1.00  0.00     0.001 A 
HETATM   18  C   UNL     1      42.759  -9.843  -0.126  1.00  0.00     0.001 A 
HETATM   19  C   UNL     1      41.873 -13.777  -3.193  1.00  0.00     0.002 C 
HETATM   20  C   UNL     1      41.486 -14.223  -1.935  1.00  0.00     0.011 C 
ENDBRANCH   6  11
ENDBRANCH   1   2
BRANCH   1  21
HETATM   21  C   UNL     1      42.971 -17.553   3.187  1.00  0.00     0.240 C 
HETATM   22  N   UNL     1      43.992 -18.470   2.953  1.00  0.00    -0.325 N 
HETATM   23  H   UNL     1      44.438 -18.394   2.046  1.00  0.00     0.169 HD
HETATM   24  O   UNL     1      41.965 -17.777   3.851  1.00  0.00    -0.271 OA
BRANCH  22  25
HETATM   25  C   UNL     1      44.183 -19.696   3.623  1.00  0.00     0.050 A 
HETATM   26  C   UNL     1      44.330 -19.864   5.009  1.00  0.00     0.058 A 
HETATM   27  C   UNL     1      44.591 -21.140   5.539  1.00  0.00     0.019 A 
HETATM   28  C   UNL     1      44.701 -22.249   4.704  1.00  0.00     0.001 A 
HETATM   29  C   UNL     1      44.577 -22.088   3.329  1.00  0.00     0.002 A 
HETATM   30  C   UNL     1      44.333 -20.820   2.794  1.00  0.00     0.030 A 
BRANCH  26  31
HETATM   31  C   UNL     1      44.502 -18.758   5.974  1.00  0.00     0.254 C 
HETATM   32  N   UNL     1      43.372 -18.390   6.659  1.00  0.00    -0.351 N 
HETATM   33  H   UNL     1      42.506 -18.454   6.122  1.00  0.00     0.163 HD
HETATM   34  O   UNL     1      45.627 -18.319   6.185  1.00  0.00    -0.268 OA
BRANCH  32  35
HETATM   35  C   UNL     1      43.439 -17.314   7.619  1.00  0.00     0.187 C 
BRANCH  35  36
HETATM   36  C   UNL     1      43.402 -16.017   6.899  1.00  0.00     0.070 A 
HETATM   37  O   UNL     1      42.235 -15.696   6.269  1.00  0.00    -0.325 OA
HETATM   38  C   UNL     1      42.422 -14.487   5.677  1.00  0.00     0.142 A 
HETATM   39  C   UNL     1      43.695 -14.026   5.916  1.00  0.00     0.027 A 
HETATM   40  C   UNL     1      44.331 -15.015   6.703  1.00  0.00     0.036 A 
ENDBRANCH  35  36
ENDBRANCH  32  35
ENDBRANCH  26  31
ENDBRANCH  22  25
ENDBRANCH   1  21
TORSDOF 7
ENDMDL
MODEL 5
REMARK VINA RESULT:     -10.0      1.633      2.150
REMARK  7 active torsions:
REMARK  status: ('A' for Active; 'I' for Inactive)
REMARK    1  A    between atoms: C_2  and  C_3 
REMARK    2  A    between atoms: N_16  and  C_17 
REMARK    3  A    between atoms: C_17  and  C_18 
REMARK       I    between atoms: C_18  and  N_19 
REMARK    4  A    between atoms: N_19  and  C_20 
REMARK    5  A    between atoms: C_21  and  C_22 
REMARK       I    between atoms: C_22  and  N_23 
REMARK    6  A    between atoms: N_23  and  C_24 
REMARK    7  A    between atoms: C_24  and  C_25 
ROOT
HETATM    1  C   UNL     1      41.645 -13.818   4.980  1.00  0.00     0.240 C 
ENDROOT
BRANCH   1   2
HETATM    2  N   UNL     1      42.416 -14.687   5.834  1.00  0.00    -0.259 N 
HETATM    3  C   UNL     1      43.741 -14.519   6.038  1.00  0.00     0.326 C 
HETATM    4  N   UNL     1      44.262 -15.658   6.588  1.00  0.00    -0.321 N 
HETATM    5  O   UNL     1      44.422 -13.557   5.721  1.00  0.00    -0.247 OA
HETATM    6  C   UNL     1      43.336 -16.782   6.569  1.00  0.00     0.140 C 
HETATM    7  H   UNL     1      45.269 -15.727   6.596  1.00  0.00     0.165 HD
HETATM    8  C   UNL     1      43.085 -17.324   7.975  1.00  0.00     0.055 C 
HETATM    9  C   UNL     1      42.076 -15.985   6.088  1.00  0.00     0.261 C 
HETATM   10  O   UNL     1      40.957 -16.447   5.903  1.00  0.00    -0.270 OA
BRANCH   6  11
HETATM   11  C   UNL     1      43.777 -17.895   5.588  1.00  0.00    -0.010 C 
HETATM   12  C   UNL     1      43.748 -17.758   4.155  1.00  0.00    -0.017 A 
HETATM   13  C   UNL     1      44.030 -18.901   3.352  1.00  0.00    -0.025 A 
HETATM   14  C   UNL     1      43.474 -16.560   3.445  1.00  0.00     0.013 A 
HETATM   15  C   UNL     1      43.933 -18.845   1.953  1.00  0.00     0.012 A 
HETATM   16  C   UNL     1      44.427 -20.105   3.940  1.00  0.00     0.012 C 
HETATM   17  C   UNL     1      43.594 -17.664   1.302  1.00  0.00     0.001 A 
HETATM   18  C   UNL     1      43.383 -16.516   2.048  1.00  0.00     0.001 A 
HETATM   19  C   UNL     1      44.569 -20.205   5.313  1.00  0.00     0.002 C 
HETATM   20  C   UNL     1      44.252 -19.117   6.118  1.00  0.00     0.011 C 
ENDBRANCH   6  11
ENDBRANCH   1   2
BRANCH   1  21
HETATM   21  C   UNL     1      40.587 -12.938   5.648  1.00  0.00     0.240 C 
HETATM   22  N   UNL     1      40.925 -11.594   5.515  1.00  0.00    -0.325 N 
HETATM   23  H   UNL     1      41.919 -11.405   5.455  1.00  0.00     0.169 HD
HETATM   24  O   UNL     1      39.631 -13.361   6.289  1.00  0.00    -0.271 OA
BRANCH  22  25
HETATM   25  C   UNL     1      40.116 -10.492   5.859  1.00  0.00     0.050 A 
HETATM   26  C   UNL     1      39.938  -9.970   7.150  1.00  0.00     0.058 A 
HETATM   27  C   UNL     1      39.040  -8.909   7.363  1.00  0.00     0.019 A 
HETATM   28  C   UNL     1      38.322  -8.360   6.302  1.00  0.00     0.001 A 
HETATM   29  C   UNL     1      38.476  -8.885   5.025  1.00  0.00     0.002 A 
HETATM   30  C   UNL     1      39.356  -9.949   4.809  1.00  0.00     0.030 A 
BRANCH  26  31
HETATM   31  C   UNL     1      40.421 -10.614   8.389  1.00  0.00     0.254 C 
HETATM   32  N   UNL     1      41.693 -10.274   8.775  1.00  0.00    -0.351 N 
HETATM   33  H   UNL     1      42.346 -10.116   8.007  1.00  0.00     0.163 HD
HETATM   34  O   UNL     1      39.650 -11.307   9.041  1.00  0.00    -0.268 OA
BRANCH  32  35
HETATM   35  C   UNL     1      42.256 -10.858   9.970  1.00  0.00     0.187 C 
BRANCH  35  36
HETATM   36  C   UNL     1      43.710 -11.073   9.768  1.00  0.00     0.070 A 
HETATM   37  O   UNL     1      44.071 -11.979   8.813  1.00  0.00    -0.325 OA
HETATM   38  C   UNL     1      45.429 -12.022   8.799  1.00  0.00     0.142 A 
HETATM   39  C   UNL     1      45.947 -11.158   9.734  1.00  0.00     0.027 A 
HETATM   40  C   UNL     1      44.838 -10.546  10.363  1.00  0.00     0.036 A 
ENDBRANCH  35  36
ENDBRANCH  32  35
ENDBRANCH  26  31
ENDBRANCH  22  25
ENDBRANCH   1  21
TORSDOF 7
ENDMDL
MODEL 6
REMARK VINA RESULT:     -10.0      5.391      9.229
REMARK  7 active torsions:
REMARK  status: ('A' for Active; 'I' for Inactive)
REMARK    1  A    between atoms: C_2  and  C_3 
REMARK    2  A    between atoms: N_16  and  C_17 
REMARK    3  A    between atoms: C_17  and  C_18 
REMARK       I    between atoms: C_18  and  N_19 
REMARK    4  A    between atoms: N_19  and  C_20 
REMARK    5  A    between atoms: C_21  and  C_22 
REMARK       I    between atoms: C_22  and  N_23 
REMARK    6  A    between atoms: N_23  and  C_24 
REMARK    7  A    between atoms: C_24  and  C_25 
ROOT
HETATM    1  C   UNL     1      42.021 -12.771   2.439  1.00  0.00     0.240 C 
ENDROOT
BRANCH   1   2
HETATM    2  N   UNL     1      41.386 -14.036   2.712  1.00  0.00    -0.259 N 
HETATM    3  C   UNL     1      40.630 -14.250   3.811  1.00  0.00     0.326 C 
HETATM    4  N   UNL     1      40.456 -15.595   3.986  1.00  0.00    -0.321 N 
HETATM    5  O   UNL     1      40.218 -13.414   4.599  1.00  0.00    -0.247 OA
HETATM    6  C   UNL     1      41.307 -16.403   3.124  1.00  0.00     0.140 C 
HETATM    7  H   UNL     1      40.085 -15.882   4.880  1.00  0.00     0.165 HD
HETATM    8  C   UNL     1      40.483 -17.346   2.250  1.00  0.00     0.055 C 
HETATM    9  C   UNL     1      41.858 -15.230   2.244  1.00  0.00     0.261 C 
HETATM   10  O   UNL     1      42.642 -15.335   1.309  1.00  0.00    -0.270 OA
BRANCH   6  11
HETATM   11  C   UNL     1      42.406 -17.154   3.913  1.00  0.00    -0.010 C 
HETATM   12  C   UNL     1      43.070 -18.338   3.435  1.00  0.00    -0.017 A 
HETATM   13  C   UNL     1      43.954 -19.030   4.313  1.00  0.00    -0.025 A 
HETATM   14  C   UNL     1      42.939 -18.891   2.134  1.00  0.00     0.013 A 
HETATM   15  C   UNL     1      44.561 -20.236   3.928  1.00  0.00     0.012 A 
HETATM   16  C   UNL     1      44.251 -18.515   5.578  1.00  0.00     0.012 C 
HETATM   17  C   UNL     1      44.350 -20.775   2.664  1.00  0.00     0.001 A 
HETATM   18  C   UNL     1      43.553 -20.092   1.760  1.00  0.00     0.001 A 
HETATM   19  C   UNL     1      43.703 -17.314   5.994  1.00  0.00     0.002 C 
HETATM   20  C   UNL     1      42.801 -16.648   5.173  1.00  0.00     0.011 C 
ENDBRANCH   6  11
ENDBRANCH   1   2
BRANCH   1  21
HETATM   21  C   UNL     1      41.512 -11.977   1.234  1.00  0.00     0.240 C 
HETATM   22  N   UNL     1      42.567 -11.311   0.617  1.00  0.00    -0.325 N 
HETATM   23  H   UNL     1      43.332 -11.055   1.230  1.00  0.00     0.169 HD
HETATM   24  O   UNL     1      40.332 -11.868   0.919  1.00  0.00    -0.271 OA
BRANCH  22  25
HETATM   25  C   UNL     1      42.512 -10.615  -0.609  1.00  0.00     0.050 A 
HETATM   26  C   UNL     1      42.310 -11.187  -1.874  1.00  0.00     0.058 A 
HETATM   27  C   UNL     1      42.353 -10.382  -3.026  1.00  0.00     0.019 A 
HETATM   28  C   UNL     1      42.588  -9.012  -2.928  1.00  0.00     0.001 A 
HETATM   29  C   UNL     1      42.810  -8.441  -1.681  1.00  0.00     0.002 A 
HETATM   30  C   UNL     1      42.784  -9.238  -0.533  1.00  0.00     0.030 A 
BRANCH  26  31
HETATM   31  C   UNL     1      42.316 -12.639  -2.148  1.00  0.00     0.254 C 
HETATM   32  N   UNL     1      41.169 -13.310  -1.805  1.00  0.00    -0.351 N 
HETATM   33  H   UNL     1      40.705 -12.962  -0.966  1.00  0.00     0.163 HD
HETATM   34  O   UNL     1      43.266 -13.130  -2.747  1.00  0.00    -0.268 OA
BRANCH  32  35
HETATM   35  C   UNL     1      41.083 -14.734  -2.029  1.00  0.00     0.187 C 
BRANCH  35  36
HETATM   36  C   UNL     1      39.874 -15.026  -2.838  1.00  0.00     0.070 A 
HETATM   37  O   UNL     1      39.998 -15.976  -3.810  1.00  0.00    -0.325 OA
HETATM   38  C   UNL     1      38.791 -16.079  -4.423  1.00  0.00     0.142 A 
HETATM   39  C   UNL     1      37.890 -15.206  -3.862  1.00  0.00     0.027 A 
HETATM   40  C   UNL     1      38.589 -14.521  -2.839  1.00  0.00     0.036 A 
ENDBRANCH  35  36
ENDBRANCH  32  35
ENDBRANCH  26  31
ENDBRANCH  22  25
ENDBRANCH   1  21
TORSDOF 7
ENDMDL
MODEL 7
REMARK VINA RESULT:      -9.9      5.960      8.912
REMARK  7 active torsions:
REMARK  status: ('A' for Active; 'I' for Inactive)
REMARK    1  A    between atoms: C_2  and  C_3 
REMARK    2  A    between atoms: N_16  and  C_17 
REMARK    3  A    between atoms: C_17  and  C_18 
REMARK       I    between atoms: C_18  and  N_19 
REMARK    4  A    between atoms: N_19  and  C_20 
REMARK    5  A    between atoms: C_21  and  C_22 
REMARK       I    between atoms: C_22  and  N_23 
REMARK    6  A    between atoms: N_23  and  C_24 
REMARK    7  A    between atoms: C_24  and  C_25 
ROOT
HETATM    1  C   UNL     1      40.896 -14.611   3.250  1.00  0.00     0.240 C 
ENDROOT
BRANCH   1   2
HETATM    2  N   UNL     1      41.558 -15.695   2.569  1.00  0.00    -0.259 N 
HETATM    3  C   UNL     1      40.919 -16.832   2.217  1.00  0.00     0.326 C 
HETATM    4  N   UNL     1      41.842 -17.796   1.917  1.00  0.00    -0.321 N 
HETATM    5  O   UNL     1      39.716 -17.039   2.230  1.00  0.00    -0.247 OA
HETATM    6  C   UNL     1      43.201 -17.427   2.288  1.00  0.00     0.140 C 
HETATM    7  H   UNL     1      41.490 -18.739   1.839  1.00  0.00     0.165 HD
HETATM    8  C   UNL     1      44.139 -17.461   1.083  1.00  0.00     0.055 C 
HETATM    9  C   UNL     1      42.899 -15.938   2.668  1.00  0.00     0.261 C 
HETATM   10  O   UNL     1      43.715 -15.111   3.056  1.00  0.00    -0.270 OA
BRANCH   6  11
HETATM   11  C   UNL     1      43.741 -18.270   3.468  1.00  0.00    -0.010 C 
HETATM   12  C   UNL     1      44.066 -19.669   3.373  1.00  0.00    -0.017 A 
HETATM   13  C   UNL     1      44.408 -20.376   4.562  1.00  0.00    -0.025 A 
HETATM   14  C   UNL     1      44.096 -20.430   2.175  1.00  0.00     0.013 A 
HETATM   15  C   UNL     1      44.651 -21.758   4.539  1.00  0.00     0.012 A 
HETATM   16  C   UNL     1      44.525 -19.705   5.782  1.00  0.00     0.012 C 
HETATM   17  C   UNL     1      44.602 -22.476   3.349  1.00  0.00     0.001 A 
HETATM   18  C   UNL     1      44.343 -21.809   2.164  1.00  0.00     0.001 A 
HETATM   19  C   UNL     1      44.326 -18.336   5.854  1.00  0.00     0.002 C 
HETATM   20  C   UNL     1      43.945 -17.636   4.716  1.00  0.00     0.011 C 
ENDBRANCH   6  11
ENDBRANCH   1   2
BRANCH   1  21
HETATM   21  C   UNL     1      40.357 -13.467   2.389  1.00  0.00     0.240 C 
HETATM   22  N   UNL     1      39.480 -13.961   1.427  1.00  0.00    -0.325 N 
HETATM   23  H   UNL     1      39.663 -14.911   1.125  1.00  0.00     0.169 HD
HETATM   24  O   UNL     1      40.721 -12.299   2.472  1.00  0.00    -0.271 OA
BRANCH  22  25
HETATM   25  C   UNL     1      38.669 -13.194   0.564  1.00  0.00     0.050 A 
HETATM   26  C   UNL     1      39.041 -12.702  -0.696  1.00  0.00     0.058 A 
HETATM   27  C   UNL     1      38.157 -11.884  -1.422  1.00  0.00     0.019 A 
HETATM   28  C   UNL     1      36.904 -11.557  -0.906  1.00  0.00     0.001 A 
HETATM   29  C   UNL     1      36.537 -12.023   0.350  1.00  0.00     0.002 A 
HETATM   30  C   UNL     1      37.417 -12.824   1.084  1.00  0.00     0.030 A 
BRANCH  26  31
HETATM   31  C   UNL     1      40.414 -12.745  -1.242  1.00  0.00     0.254 C 
HETATM   32  N   UNL     1      41.107 -11.563  -1.191  1.00  0.00    -0.351 N 
HETATM   33  H   UNL     1      40.539 -10.727  -1.333  1.00  0.00     0.163 HD
HETATM   34  O   UNL     1      40.882 -13.821  -1.597  1.00  0.00    -0.268 OA
BRANCH  32  35
HETATM   35  C   UNL     1      42.455 -11.504  -1.707  1.00  0.00     0.187 C 
BRANCH  35  36
HETATM   36  C   UNL     1      42.429 -10.909  -3.066  1.00  0.00     0.070 A 
HETATM   37  O   UNL     1      42.484  -9.547  -3.144  1.00  0.00    -0.325 OA
HETATM   38  C   UNL     1      42.442  -9.222  -4.462  1.00  0.00     0.142 A 
HETATM   39  C   UNL     1      42.358 -10.355  -5.235  1.00  0.00     0.027 A 
HETATM   40  C   UNL     1      42.346 -11.446  -4.335  1.00  0.00     0.036 A 
ENDBRANCH  35  36
ENDBRANCH  32  35
ENDBRANCH  26  31
ENDBRANCH  22  25
ENDBRANCH   1  21
TORSDOF 7
ENDMDL
MODEL 8
REMARK VINA RESULT:      -9.8      1.179      2.136
REMARK  7 active torsions:
REMARK  status: ('A' for Active; 'I' for Inactive)
REMARK    1  A    between atoms: C_2  and  C_3 
REMARK    2  A    between atoms: N_16  and  C_17 
REMARK    3  A    between atoms: C_17  and  C_18 
REMARK       I    between atoms: C_18  and  N_19 
REMARK    4  A    between atoms: N_19  and  C_20 
REMARK    5  A    between atoms: C_21  and  C_22 
REMARK       I    between atoms: C_22  and  N_23 
REMARK    6  A    between atoms: N_23  and  C_24 
REMARK    7  A    between atoms: C_24  and  C_25 
ROOT
HETATM    1  C   UNL     1      40.024 -13.338   5.425  1.00  0.00     0.240 C 
ENDROOT
BRANCH   1   2
HETATM    2  N   UNL     1      41.236 -14.104   5.579  1.00  0.00    -0.259 N 
HETATM    3  C   UNL     1      42.414 -13.719   5.041  1.00  0.00     0.326 C 
HETATM    4  N   UNL     1      43.280 -14.777   5.044  1.00  0.00    -0.321 N 
HETATM    5  O   UNL     1      42.680 -12.637   4.541  1.00  0.00    -0.247 OA
HETATM    6  C   UNL     1      42.642 -16.043   5.378  1.00  0.00     0.140 C 
HETATM    7  H   UNL     1      44.114 -14.670   4.486  1.00  0.00     0.165 HD
HETATM    8  C   UNL     1      43.294 -16.694   6.596  1.00  0.00     0.055 C 
HETATM    9  C   UNL     1      41.250 -15.453   5.790  1.00  0.00     0.261 C 
HETATM   10  O   UNL     1      40.284 -16.092   6.189  1.00  0.00    -0.270 OA
BRANCH   6  11
HETATM   11  C   UNL     1      42.572 -17.008   4.170  1.00  0.00    -0.010 C 
HETATM   12  C   UNL     1      43.347 -18.216   4.063  1.00  0.00    -0.017 A 
HETATM   13  C   UNL     1      43.315 -18.944   2.838  1.00  0.00    -0.025 A 
HETATM   14  C   UNL     1      44.149 -18.777   5.090  1.00  0.00     0.013 A 
HETATM   15  C   UNL     1      44.116 -20.081   2.650  1.00  0.00     0.012 A 
HETATM   16  C   UNL     1      42.470 -18.551   1.797  1.00  0.00     0.012 C 
HETATM   17  C   UNL     1      44.940 -20.556   3.664  1.00  0.00     0.001 A 
HETATM   18  C   UNL     1      44.942 -19.914   4.892  1.00  0.00     0.001 A 
HETATM   19  C   UNL     1      41.637 -17.455   1.942  1.00  0.00     0.002 C 
HETATM   20  C   UNL     1      41.688 -16.702   3.110  1.00  0.00     0.011 C 
ENDBRANCH   6  11
ENDBRANCH   1   2
BRANCH   1  21
HETATM   21  C   UNL     1      39.734 -12.266   6.477  1.00  0.00     0.240 C 
HETATM   22  N   UNL     1      40.436 -11.101   6.183  1.00  0.00    -0.325 N 
HETATM   23  H   UNL     1      41.308 -11.238   5.685  1.00  0.00     0.169 HD
HETATM   24  O   UNL     1      39.056 -12.442   7.483  1.00  0.00    -0.271 OA
BRANCH  22  25
HETATM   25  C   UNL     1      40.297  -9.856   6.831  1.00  0.00     0.050 A 
HETATM   26  C   UNL     1      41.102  -9.373   7.873  1.00  0.00     0.058 A 
HETATM   27  C   UNL     1      40.803  -8.141   8.482  1.00  0.00     0.019 A 
HETATM   28  C   UNL     1      39.714  -7.383   8.057  1.00  0.00     0.001 A 
HETATM   29  C   UNL     1      38.899  -7.864   7.039  1.00  0.00     0.002 A 
HETATM   30  C   UNL     1      39.181  -9.095   6.441  1.00  0.00     0.030 A 
BRANCH  26  31
HETATM   31  C   UNL     1      42.111 -10.177   8.594  1.00  0.00     0.254 C 
HETATM   32  N   UNL     1      42.152  -9.995   9.953  1.00  0.00    -0.351 N 
HETATM   33  H   UNL     1      41.957  -9.042  10.263  1.00  0.00     0.163 HD
HETATM   34  O   UNL     1      42.761 -11.013   7.977  1.00  0.00    -0.268 OA
BRANCH  32  35
HETATM   35  C   UNL     1      43.110 -10.731  10.743  1.00  0.00     0.187 C 
BRANCH  35  36
HETATM   36  C   UNL     1      42.878 -10.444  12.180  1.00  0.00     0.070 A 
HETATM   37  O   UNL     1      43.584  -9.409  12.724  1.00  0.00    -0.325 OA
HETATM   38  C   UNL     1      43.227  -9.327  14.031  1.00  0.00     0.142 A 
HETATM   39  C   UNL     1      42.302 -10.296  14.340  1.00  0.00     0.027 A 
HETATM   40  C   UNL     1      42.078 -11.021  13.146  1.00  0.00     0.036 A 
ENDBRANCH  35  36
ENDBRANCH  32  35
ENDBRANCH  26  31
ENDBRANCH  22  25
ENDBRANCH   1  21
TORSDOF 7
ENDMDL
MODEL 9
REMARK VINA RESULT:      -9.8      1.933      3.078
REMARK  7 active torsions:
REMARK  status: ('A' for Active; 'I' for Inactive)
REMARK    1  A    between atoms: C_2  and  C_3 
REMARK    2  A    between atoms: N_16  and  C_17 
REMARK    3  A    between atoms: C_17  and  C_18 
REMARK       I    between atoms: C_18  and  N_19 
REMARK    4  A    between atoms: N_19  and  C_20 
REMARK    5  A    between atoms: C_21  and  C_22 
REMARK       I    between atoms: C_22  and  N_23 
REMARK    6  A    between atoms: N_23  and  C_24 
REMARK    7  A    between atoms: C_24  and  C_25 
ROOT
HETATM    1  C   UNL     1      42.233 -14.005   5.735  1.00  0.00     0.240 C 
ENDROOT
BRANCH   1   2
HETATM    2  N   UNL     1      41.873 -15.136   4.918  1.00  0.00    -0.259 N 
HETATM    3  C   UNL     1      40.987 -16.073   5.322  1.00  0.00     0.326 C 
HETATM    4  N   UNL     1      41.102 -17.178   4.525  1.00  0.00    -0.321 N 
HETATM    5  O   UNL     1      40.242 -16.019   6.288  1.00  0.00    -0.247 OA
HETATM    6  C   UNL     1      42.273 -17.144   3.659  1.00  0.00     0.140 C 
HETATM    7  H   UNL     1      40.640 -18.013   4.854  1.00  0.00     0.165 HD
HETATM    8  C   UNL     1      41.883 -17.263   2.187  1.00  0.00     0.055 C 
HETATM    9  C   UNL     1      42.695 -15.667   3.965  1.00  0.00     0.261 C 
HETATM   10  O   UNL     1      43.650 -15.073   3.480  1.00  0.00    -0.270 OA
BRANCH   6  11
HETATM   11  C   UNL     1      43.340 -18.189   4.064  1.00  0.00    -0.010 C 
HETATM   12  C   UNL     1      43.594 -19.401   3.331  1.00  0.00    -0.017 A 
HETATM   13  C   UNL     1      44.492 -20.360   3.883  1.00  0.00    -0.025 A 
HETATM   14  C   UNL     1      43.036 -19.737   2.069  1.00  0.00     0.013 A 
HETATM   15  C   UNL     1      44.711 -21.596   3.252  1.00  0.00     0.012 A 
HETATM   16  C   UNL     1      45.190 -20.088   5.062  1.00  0.00     0.012 C 
HETATM   17  C   UNL     1      44.088 -21.909   2.049  1.00  0.00     0.001 A 
HETATM   18  C   UNL     1      43.265 -20.971   1.448  1.00  0.00     0.001 A 
HETATM   19  C   UNL     1      45.034 -18.873   5.708  1.00  0.00     0.002 C 
HETATM   20  C   UNL     1      44.127 -17.943   5.213  1.00  0.00     0.011 C 
ENDBRANCH   6  11
ENDBRANCH   1   2
BRANCH   1  21
HETATM   21  C   UNL     1      41.650 -12.645   5.345  1.00  0.00     0.240 C 
HETATM   22  N   UNL     1      40.687 -12.251   6.270  1.00  0.00    -0.325 N 
HETATM   23  H   UNL     1      40.197 -13.010   6.729  1.00  0.00     0.169 HD
HETATM   24  O   UNL     1      41.924 -12.038   4.316  1.00  0.00    -0.271 OA
BRANCH  22  25
HETATM   25  C   UNL     1      40.053 -10.993   6.331  1.00  0.00     0.050 A 
HETATM   26  C   UNL     1      39.965 -10.167   7.462  1.00  0.00     0.058 A 
HETATM   27  C   UNL     1      39.235  -8.967   7.402  1.00  0.00     0.019 A 
HETATM   28  C   UNL     1      38.598  -8.579   6.225  1.00  0.00     0.001 A 
HETATM   29  C   UNL     1      38.662  -9.401   5.107  1.00  0.00     0.002 A 
HETATM   30  C   UNL     1      39.373 -10.603   5.164  1.00  0.00     0.030 A 
BRANCH  26  31
HETATM   31  C   UNL     1      40.358 -10.571   8.828  1.00  0.00     0.254 C 
HETATM   32  N   UNL     1      41.551 -10.063   9.274  1.00  0.00    -0.351 N 
HETATM   33  H   UNL     1      42.270  -9.965   8.557  1.00  0.00     0.163 HD
HETATM   34  O   UNL     1      39.574 -11.225   9.506  1.00  0.00    -0.268 OA
BRANCH  32  35
HETATM   35  C   UNL     1      42.023 -10.407  10.595  1.00  0.00     0.187 C 
BRANCH  35  36
HETATM   36  C   UNL     1      43.395 -10.963  10.491  1.00  0.00     0.070 A 
HETATM   37  O   UNL     1      44.135 -10.579   9.410  1.00  0.00    -0.325 OA
HETATM   38  C   UNL     1      45.338 -11.201   9.510  1.00  0.00     0.142 A 
HETATM   39  C   UNL     1      45.384 -11.982  10.640  1.00  0.00     0.027 A 
HETATM   40  C   UNL     1      44.128 -11.832  11.274  1.00  0.00     0.036 A 
ENDBRANCH  35  36
ENDBRANCH  32  35
ENDBRANCH  26  31
ENDBRANCH  22  25
ENDBRANCH   1  21
TORSDOF 7
ENDMDL
MODEL 10
REMARK VINA RESULT:      -9.8      4.666      6.571
REMARK  7 active torsions:
REMARK  status: ('A' for Active; 'I' for Inactive)
REMARK    1  A    between atoms: C_2  and  C_3 
REMARK    2  A    between atoms: N_16  and  C_17 
REMARK    3  A    between atoms: C_17  and  C_18 
REMARK       I    between atoms: C_18  and  N_19 
REMARK    4  A    between atoms: N_19  and  C_20 
REMARK    5  A    between atoms: C_21  and  C_22 
REMARK       I    between atoms: C_22  and  N_23 
REMARK    6  A    between atoms: N_23  and  C_24 
REMARK    7  A    between atoms: C_24  and  C_25 
ROOT
HETATM    1  C   UNL     1      40.800 -17.100   2.096  1.00  0.00     0.240 C 
ENDROOT
BRANCH   1   2
HETATM    2  N   UNL     1      41.900 -16.960   3.018  1.00  0.00    -0.259 N 
HETATM    3  C   UNL     1      43.174 -16.773   2.609  1.00  0.00     0.326 C 
HETATM    4  N   UNL     1      44.024 -17.023   3.650  1.00  0.00    -0.321 N 
HETATM    5  O   UNL     1      43.557 -16.507   1.481  1.00  0.00    -0.247 OA
HETATM    6  C   UNL     1      43.368 -17.642   4.794  1.00  0.00     0.140 C 
HETATM    7  H   UNL     1      45.001 -17.115   3.414  1.00  0.00     0.165 HD
HETATM    8  C   UNL     1      43.544 -16.807   6.060  1.00  0.00     0.055 C 
HETATM    9  C   UNL     1      41.898 -17.494   4.275  1.00  0.00     0.261 C 
HETATM   10  O   UNL     1      40.885 -17.849   4.865  1.00  0.00    -0.270 OA
BRANCH   6  11
HETATM   11  C   UNL     1      43.806 -19.112   5.002  1.00  0.00    -0.010 C 
HETATM   12  C   UNL     1      44.055 -20.035   3.926  1.00  0.00    -0.017 A 
HETATM   13  C   UNL     1      44.302 -21.403   4.240  1.00  0.00    -0.025 A 
HETATM   14  C   UNL     1      44.095 -19.705   2.547  1.00  0.00     0.013 A 
HETATM   15  C   UNL     1      44.466 -22.361   3.227  1.00  0.00     0.012 A 
HETATM   16  C   UNL     1      44.402 -21.823   5.570  1.00  0.00     0.012 C 
HETATM   17  C   UNL     1      44.430 -22.000   1.885  1.00  0.00     0.001 A 
HETATM   18  C   UNL     1      44.264 -20.668   1.545  1.00  0.00     0.001 A 
HETATM   19  C   UNL     1      44.279 -20.913   6.606  1.00  0.00     0.002 C 
HETATM   20  C   UNL     1      43.989 -19.583   6.323  1.00  0.00     0.011 C 
ENDBRANCH   6  11
ENDBRANCH   1   2
BRANCH   1  21
HETATM   21  C   UNL     1      40.257 -15.822   1.454  1.00  0.00     0.240 C 
HETATM   22  N   UNL     1      41.041 -15.461   0.362  1.00  0.00    -0.325 N 
HETATM   23  H   UNL     1      42.012 -15.743   0.418  1.00  0.00     0.169 HD
HETATM   24  O   UNL     1      39.324 -15.161   1.898  1.00  0.00    -0.271 OA
BRANCH  22  25
HETATM   25  C   UNL     1      40.758 -14.438  -0.567  1.00  0.00     0.050 A 
HETATM   26  C   UNL     1      40.992 -13.067  -0.382  1.00  0.00     0.058 A 
HETATM   27  C   UNL     1      40.590 -12.145  -1.365  1.00  0.00     0.019 A 
HETATM   28  C   UNL     1      39.963 -12.577  -2.532  1.00  0.00     0.001 A 
HETATM   29  C   UNL     1      39.709 -13.930  -2.713  1.00  0.00     0.002 A 
HETATM   30  C   UNL     1      40.091 -14.851  -1.734  1.00  0.00     0.030 A 
BRANCH  26  31
HETATM   31  C   UNL     1      41.397 -12.451   0.898  1.00  0.00     0.254 C 
HETATM   32  N   UNL     1      40.373 -12.156   1.763  1.00  0.00    -0.351 N 
HETATM   33  H   UNL     1      39.508 -11.854   1.315  1.00  0.00     0.163 HD
HETATM   34  O   UNL     1      42.590 -12.339   1.157  1.00  0.00    -0.268 OA
BRANCH  32  35
HETATM   35  C   UNL     1      40.670 -11.545   3.037  1.00  0.00     0.187 C 
BRANCH  35  36
HETATM   36  C   UNL     1      40.525 -12.561   4.109  1.00  0.00     0.070 A 
HETATM   37  O   UNL     1      39.498 -12.383   4.991  1.00  0.00    -0.325 OA
HETATM   38  C   UNL     1      39.554 -13.410   5.878  1.00  0.00     0.142 A 
HETATM   39  C   UNL     1      40.604 -14.246   5.582  1.00  0.00     0.027 A 
HETATM   40  C   UNL     1      41.235 -13.697   4.441  1.00  0.00     0.036 A 
ENDBRANCH  35  36
ENDBRANCH  32  35
ENDBRANCH  26  31
ENDBRANCH  22  25
ENDBRANCH   1  21
TORSDOF 7
ENDMDL
