MODEL 1
REMARK VINA RESULT:      -9.7      0.000      0.000
REMARK  8 active torsions:
REMARK  status: ('A' for Active; 'I' for Inactive)
REMARK    1  A    between atoms: C_6  and  S_7 
REMARK    2  A    between atoms: S_7  and  C_8 
REMARK    3  A    between atoms: C_8  and  C_9 
REMARK       I    between atoms: C_9  and  N_10 
REMARK    4  A    between atoms: N_10  and  C_11 
REMARK    5  A    between atoms: C_24  and  C_25 
REMARK    6  A    between atoms: C_25  and  C_26 
REMARK       I    between atoms: C_26  and  N_27 
REMARK    7  A    between atoms: N_27  and  C_28 
REMARK    8  A    between atoms: C_28  and  C_29 
ROOT
HETATM    1  C   UNL     1      42.138  -8.994  15.518  1.00  0.00     0.001 A 
HETATM    2  C   UNL     1      42.838  -9.511  14.428  1.00  0.00     0.018 A 
HETATM    3  C   UNL     1      42.285  -9.404  13.150  1.00  0.00     0.039 A 
HETATM    4  C   UNL     1      41.049  -8.789  12.940  1.00  0.00     0.073 A 
HETATM    5  N   UNL     1      40.489  -8.658  11.661  1.00  0.00    -0.223 NA
HETATM    6  C   UNL     1      41.138  -9.134  10.649  1.00  0.00     0.178 A 
HETATM    7  N   UNL     1      42.370  -9.766  10.759  1.00  0.00    -0.241 N 
HETATM    8  C   UNL     1      42.973  -9.917  11.966  1.00  0.00     0.147 A 
HETATM    9  N   UNL     1      44.120 -10.517  11.993  1.00  0.00    -0.256 NA
HETATM   10  C   UNL     1      43.184 -10.357   9.816  1.00  0.00     0.257 A 
HETATM   11  O   UNL     1      42.975 -10.564   8.631  1.00  0.00    -0.270 OA
HETATM   12  C   UNL     1      44.429 -10.801  10.565  1.00  0.00     0.211 A 
HETATM   13  C   UNL     1      40.358  -8.277  14.038  1.00  0.00     0.032 A 
HETATM   14  C   UNL     1      40.900  -8.378  15.323  1.00  0.00     0.002 A 
ENDROOT
BRANCH  12  15
HETATM   15  C   UNL     1      44.691 -12.285  10.361  1.00  0.00     0.140 C 
BRANCH  15  16
HETATM   16  C   UNL     1      45.133 -12.579   8.945  1.00  0.00     0.220 C 
HETATM   17  N   UNL     1      44.287 -13.448   8.289  1.00  0.00    -0.357 N 
HETATM   18  H   UNL     1      43.336 -13.530   8.622  1.00  0.00     0.162 HD
HETATM   19  O   UNL     1      46.119 -12.076   8.418  1.00  0.00    -0.274 OA
BRANCH  17  20
HETATM   20  C   UNL     1      44.565 -13.850   6.928  1.00  0.00     0.161 C 
BRANCH  20  21
HETATM   21  C   UNL     1      43.958 -15.180   6.542  1.00  0.00    -0.038 A 
HETATM   22  C   UNL     1      43.889 -15.504   5.174  1.00  0.00     0.048 A 
HETATM   23  C   UNL     1      43.380 -16.734   4.811  1.00  0.00     0.105 A 
HETATM   24  C   UNL     1      42.939 -17.639   5.746  1.00  0.00     0.105 A 
HETATM   25  O   UNL     1      43.261 -17.201   3.540  1.00  0.00    -0.323 OA
HETATM   26  O   UNL     1      42.481 -18.788   5.181  1.00  0.00    -0.323 OA
HETATM   27  C   UNL     1      42.993 -17.369   7.095  1.00  0.00     0.040 A 
HETATM   28  C   UNL     1      42.714 -18.514   3.785  1.00  0.00     0.352 A 
HETATM   29  C   UNL     1      43.520 -16.133   7.493  1.00  0.00     0.012 A 
ENDBRANCH  20  21
ENDBRANCH  17  20
ENDBRANCH  15  16
ENDBRANCH  12  15
BRANCH   6  30
HETATM   30  S   UNL     1      40.436  -8.907   9.066  1.00  0.00    -0.082 SA
BRANCH  30  31
HETATM   31  C   UNL     1      39.690 -10.545   8.808  1.00  0.00     0.185 C 
BRANCH  31  32
HETATM   32  C   UNL     1      39.673 -11.048   7.365  1.00  0.00     0.231 C 
HETATM   33  N   UNL     1      40.515 -12.110   7.099  1.00  0.00    -0.327 N 
HETATM   34  H   UNL     1      41.135 -12.363   7.861  1.00  0.00     0.169 HD
HETATM   35  O   UNL     1      38.898 -10.532   6.560  1.00  0.00    -0.272 OA
BRANCH  33  36
HETATM   36  C   UNL     1      40.749 -12.747   5.867  1.00  0.00     0.034 A 
HETATM   37  C   UNL     1      41.575 -12.233   4.864  1.00  0.00     0.032 A 
HETATM   38  C   UNL     1      41.768 -12.943   3.674  1.00  0.00     0.044 A 
HETATM   39  C   UNL     1      41.133 -14.164   3.490  1.00  0.00     0.116 A 
HETATM   40  F   UNL     1      41.324 -14.844   2.353  1.00  0.00    -0.206 F 
HETATM   41  C   UNL     1      40.305 -14.689   4.471  1.00  0.00     0.044 A 
HETATM   42  C   UNL     1      40.110 -13.979   5.658  1.00  0.00     0.032 A 
ENDBRANCH  33  36
ENDBRANCH  31  32
ENDBRANCH  30  31
ENDBRANCH   6  30
TORSDOF 8
ENDMDL
MODEL 2
REMARK VINA RESULT:      -9.6      4.568     10.050
REMARK  8 active torsions:
REMARK  status: ('A' for Active; 'I' for Inactive)
REMARK    1  A    between atoms: C_6  and  S_7 
REMARK    2  A    between atoms: S_7  and  C_8 
REMARK    3  A    between atoms: C_8  and  C_9 
REMARK       I    between atoms: C_9  and  N_10 
REMARK    4  A    between atoms: N_10  and  C_11 
REMARK    5  A    between atoms: C_24  and  C_25 
REMARK    6  A    between atoms: C_25  and  C_26 
REMARK       I    between atoms: C_26  and  N_27 
REMARK    7  A    between atoms: N_27  and  C_28 
REMARK    8  A    between atoms: C_28  and  C_29 
ROOT
HETATM    1  C   UNL     1      44.760 -20.921   3.517  1.00  0.00     0.001 A 
HETATM    2  C   UNL     1      44.483 -19.716   4.161  1.00  0.00     0.018 A 
HETATM    3  C   UNL     1      43.584 -18.822   3.574  1.00  0.00     0.039 A 
HETATM    4  C   UNL     1      42.956 -19.110   2.361  1.00  0.00     0.073 A 
HETATM    5  N   UNL     1      42.038 -18.231   1.769  1.00  0.00    -0.223 NA
HETATM    6  C   UNL     1      41.777 -17.113   2.365  1.00  0.00     0.178 A 
HETATM    7  N   UNL     1      42.354 -16.738   3.572  1.00  0.00    -0.241 N 
HETATM    8  C   UNL     1      43.243 -17.546   4.203  1.00  0.00     0.147 A 
HETATM    9  N   UNL     1      43.742 -17.130   5.323  1.00  0.00    -0.256 NA
HETATM   10  C   UNL     1      42.228 -15.593   4.330  1.00  0.00     0.257 A 
HETATM   11  O   UNL     1      41.636 -14.556   4.076  1.00  0.00    -0.270 OA
HETATM   12  C   UNL     1      43.063 -15.829   5.577  1.00  0.00     0.211 A 
HETATM   13  C   UNL     1      43.244 -20.318   1.727  1.00  0.00     0.032 A 
HETATM   14  C   UNL     1      44.142 -21.222   2.302  1.00  0.00     0.002 A 
ENDROOT
BRANCH  12  15
HETATM   15  C   UNL     1      44.088 -14.722   5.767  1.00  0.00     0.140 C 
BRANCH  15  16
HETATM   16  C   UNL     1      44.369 -14.475   7.232  1.00  0.00     0.220 C 
HETATM   17  N   UNL     1      44.936 -13.240   7.469  1.00  0.00    -0.357 N 
HETATM   18  H   UNL     1      44.799 -12.513   6.780  1.00  0.00     0.162 HD
HETATM   19  O   UNL     1      44.094 -15.269   8.124  1.00  0.00    -0.274 OA
BRANCH  17  20
HETATM   20  C   UNL     1      45.284 -12.842   8.814  1.00  0.00     0.161 C 
BRANCH  20  21
HETATM   21  C   UNL     1      44.332 -11.840   9.426  1.00  0.00    -0.038 A 
HETATM   22  C   UNL     1      44.587 -11.400  10.739  1.00  0.00     0.048 A 
HETATM   23  C   UNL     1      43.754 -10.450  11.291  1.00  0.00     0.105 A 
HETATM   24  C   UNL     1      42.688  -9.931  10.598  1.00  0.00     0.105 A 
HETATM   25  O   UNL     1      43.874  -9.914  12.535  1.00  0.00    -0.323 OA
HETATM   26  O   UNL     1      41.998  -9.008  11.319  1.00  0.00    -0.323 OA
HETATM   27  C   UNL     1      42.402 -10.326   9.310  1.00  0.00     0.040 A 
HETATM   28  C   UNL     1      42.772  -8.982  12.535  1.00  0.00     0.352 A 
HETATM   29  C   UNL     1      43.243 -11.278   8.718  1.00  0.00     0.012 A 
ENDBRANCH  20  21
ENDBRANCH  17  20
ENDBRANCH  15  16
ENDBRANCH  12  15
BRANCH   6  30
HETATM   30  S   UNL     1      40.590 -16.067   1.626  1.00  0.00    -0.082 SA
BRANCH  30  31
HETATM   31  C   UNL     1      41.263 -15.960  -0.060  1.00  0.00     0.185 C 
BRANCH  31  32
HETATM   32  C   UNL     1      41.078 -14.618  -0.766  1.00  0.00     0.231 C 
HETATM   33  N   UNL     1      42.230 -14.058  -1.282  1.00  0.00    -0.327 N 
HETATM   34  H   UNL     1      43.086 -14.541  -1.035  1.00  0.00     0.169 HD
HETATM   35  O   UNL     1      39.944 -14.152  -0.879  1.00  0.00    -0.272 OA
BRANCH  33  36
HETATM   36  C   UNL     1      42.378 -12.820  -1.933  1.00  0.00     0.034 A 
HETATM   37  C   UNL     1      42.801 -11.647  -1.300  1.00  0.00     0.032 A 
HETATM   38  C   UNL     1      42.940 -10.461  -2.029  1.00  0.00     0.044 A 
HETATM   39  C   UNL     1      42.656 -10.451  -3.388  1.00  0.00     0.116 A 
HETATM   40  F   UNL     1      42.796  -9.316  -4.084  1.00  0.00    -0.206 F 
HETATM   41  C   UNL     1      42.230 -11.602  -4.034  1.00  0.00     0.044 A 
HETATM   42  C   UNL     1      42.088 -12.785  -3.306  1.00  0.00     0.032 A 
ENDBRANCH  33  36
ENDBRANCH  31  32
ENDBRANCH  30  31
ENDBRANCH   6  30
TORSDOF 8
ENDMDL
MODEL 3
REMARK VINA RESULT:      -9.6      5.038     10.170
REMARK  8 active torsions:
REMARK  status: ('A' for Active; 'I' for Inactive)
REMARK    1  A    between atoms: C_6  and  S_7 
REMARK    2  A    between atoms: S_7  and  C_8 
REMARK    3  A    between atoms: C_8  and  C_9 
REMARK       I    between atoms: C_9  and  N_10 
REMARK    4  A    between atoms: N_10  and  C_11 
REMARK    5  A    between atoms: C_24  and  C_25 
REMARK    6  A    between atoms: C_25  and  C_26 
REMARK       I    between atoms: C_26  and  N_27 
REMARK    7  A    between atoms: N_27  and  C_28 
REMARK    8  A    between atoms: C_28  and  C_29 
ROOT
HETATM    1  C   UNL     1      44.276 -20.012   2.248  1.00  0.00     0.001 A 
HETATM    2  C   UNL     1      43.767 -18.715   2.204  1.00  0.00     0.018 A 
HETATM    3  C   UNL     1      43.718 -17.963   3.380  1.00  0.00     0.039 A 
HETATM    4  C   UNL     1      44.168 -18.480   4.596  1.00  0.00     0.073 A 
HETATM    5  N   UNL     1      44.141 -17.731   5.780  1.00  0.00    -0.223 NA
HETATM    6  C   UNL     1      43.673 -16.526   5.742  1.00  0.00     0.178 A 
HETATM    7  N   UNL     1      43.198 -15.928   4.581  1.00  0.00    -0.241 N 
HETATM    8  C   UNL     1      43.205 -16.593   3.398  1.00  0.00     0.147 A 
HETATM    9  N   UNL     1      42.745 -15.973   2.359  1.00  0.00    -0.256 NA
HETATM   10  C   UNL     1      42.639 -14.688   4.353  1.00  0.00     0.257 A 
HETATM   11  O   UNL     1      42.326 -13.819   5.151  1.00  0.00    -0.270 OA
HETATM   12  C   UNL     1      42.398 -14.613   2.855  1.00  0.00     0.211 A 
HETATM   13  C   UNL     1      44.673 -19.780   4.626  1.00  0.00     0.032 A 
HETATM   14  C   UNL     1      44.728 -20.544   3.457  1.00  0.00     0.002 A 
ENDROOT
BRANCH  12  15
HETATM   15  C   UNL     1      40.944 -14.290   2.550  1.00  0.00     0.140 C 
BRANCH  15  16
HETATM   16  C   UNL     1      40.799 -13.601   1.212  1.00  0.00     0.220 C 
HETATM   17  N   UNL     1      41.595 -14.157   0.233  1.00  0.00    -0.357 N 
HETATM   18  H   UNL     1      41.906 -15.111   0.357  1.00  0.00     0.162 HD
HETATM   19  O   UNL     1      40.032 -12.668   1.003  1.00  0.00    -0.274 OA
BRANCH  17  20
HETATM   20  C   UNL     1      41.593 -13.613  -1.106  1.00  0.00     0.161 C 
BRANCH  20  21
HETATM   21  C   UNL     1      40.552 -14.224  -2.017  1.00  0.00    -0.038 A 
HETATM   22  C   UNL     1      39.355 -13.512  -2.226  1.00  0.00     0.048 A 
HETATM   23  C   UNL     1      38.418 -14.036  -3.092  1.00  0.00     0.105 A 
HETATM   24  C   UNL     1      38.622 -15.226  -3.746  1.00  0.00     0.105 A 
HETATM   25  O   UNL     1      37.225 -13.466  -3.411  1.00  0.00    -0.323 OA
HETATM   26  O   UNL     1      37.581 -15.561  -4.554  1.00  0.00    -0.323 OA
HETATM   27  C   UNL     1      39.779 -15.954  -3.578  1.00  0.00     0.040 A 
HETATM   28  C   UNL     1      36.712 -14.427  -4.358  1.00  0.00     0.352 A 
HETATM   29  C   UNL     1      40.755 -15.438  -2.717  1.00  0.00     0.012 A 
ENDBRANCH  20  21
ENDBRANCH  17  20
ENDBRANCH  15  16
ENDBRANCH  12  15
BRANCH   6  30
HETATM   30  S   UNL     1      43.704 -15.605   7.225  1.00  0.00    -0.082 SA
BRANCH  30  31
HETATM   31  C   UNL     1      45.085 -14.475   6.871  1.00  0.00     0.185 C 
BRANCH  31  32
HETATM   32  C   UNL     1      45.193 -13.252   7.780  1.00  0.00     0.231 C 
HETATM   33  N   UNL     1      44.084 -12.997   8.563  1.00  0.00    -0.327 N 
HETATM   34  H   UNL     1      43.280 -13.581   8.364  1.00  0.00     0.169 HD
HETATM   35  O   UNL     1      46.246 -12.614   7.802  1.00  0.00    -0.272 OA
BRANCH  33  36
HETATM   36  C   UNL     1      43.874 -11.926   9.450  1.00  0.00     0.034 A 
HETATM   37  C   UNL     1      42.971 -10.885   9.220  1.00  0.00     0.032 A 
HETATM   38  C   UNL     1      42.810  -9.867  10.167  1.00  0.00     0.044 A 
HETATM   39  C   UNL     1      43.553  -9.894  11.340  1.00  0.00     0.116 A 
HETATM   40  F   UNL     1      43.393  -8.922  12.247  1.00  0.00    -0.206 F 
HETATM   41  C   UNL     1      44.459 -10.915  11.585  1.00  0.00     0.044 A 
HETATM   42  C   UNL     1      44.621 -11.930  10.638  1.00  0.00     0.032 A 
ENDBRANCH  33  36
ENDBRANCH  31  32
ENDBRANCH  30  31
ENDBRANCH   6  30
TORSDOF 8
ENDMDL
MODEL 4
REMARK VINA RESULT:      -9.5      5.507     10.631
REMARK  8 active torsions:
REMARK  status: ('A' for Active; 'I' for Inactive)
REMARK    1  A    between atoms: C_6  and  S_7 
REMARK    2  A    between atoms: S_7  and  C_8 
REMARK    3  A    between atoms: C_8  and  C_9 
REMARK       I    between atoms: C_9  and  N_10 
REMARK    4  A    between atoms: N_10  and  C_11 
REMARK    5  A    between atoms: C_24  and  C_25 
REMARK    6  A    between atoms: C_25  and  C_26 
REMARK       I    between atoms: C_26  and  N_27 
REMARK    7  A    between atoms: N_27  and  C_28 
REMARK    8  A    between atoms: C_28  and  C_29 
ROOT
HETATM    1  C   UNL     1      44.392 -22.267   2.497  1.00  0.00     0.001 A 
HETATM    2  C   UNL     1      44.033 -20.988   2.075  1.00  0.00     0.018 A 
HETATM    3  C   UNL     1      44.029 -19.942   3.001  1.00  0.00     0.039 A 
HETATM    4  C   UNL     1      44.377 -20.149   4.337  1.00  0.00     0.073 A 
HETATM    5  N   UNL     1      44.394 -19.106   5.274  1.00  0.00    -0.223 NA
HETATM    6  C   UNL     1      44.065 -17.918   4.884  1.00  0.00     0.178 A 
HETATM    7  N   UNL     1      43.700 -17.615   3.578  1.00  0.00    -0.241 N 
HETATM    8  C   UNL     1      43.672 -18.576   2.620  1.00  0.00     0.147 A 
HETATM    9  N   UNL     1      43.320 -18.221   1.425  1.00  0.00    -0.256 NA
HETATM   10  C   UNL     1      43.291 -16.436   2.991  1.00  0.00     0.257 A 
HETATM   11  O   UNL     1      43.050 -15.356   3.507  1.00  0.00    -0.270 OA
HETATM   12  C   UNL     1      43.110 -16.750   1.516  1.00  0.00     0.211 A 
HETATM   13  C   UNL     1      44.732 -21.434   4.746  1.00  0.00     0.032 A 
HETATM   14  C   UNL     1      44.741 -22.490   3.831  1.00  0.00     0.002 A 
ENDROOT
BRANCH  12  15
HETATM   15  C   UNL     1      41.713 -16.381   1.045  1.00  0.00     0.140 C 
BRANCH  15  16
HETATM   16  C   UNL     1      41.733 -15.157   0.157  1.00  0.00     0.220 C 
HETATM   17  N   UNL     1      41.555 -15.459  -1.177  1.00  0.00    -0.357 N 
HETATM   18  H   UNL     1      41.100 -16.330  -1.411  1.00  0.00     0.162 HD
HETATM   19  O   UNL     1      41.860 -14.011   0.575  1.00  0.00    -0.274 OA
BRANCH  17  20
HETATM   20  C   UNL     1      41.561 -14.408  -2.170  1.00  0.00     0.161 C 
BRANCH  20  21
HETATM   21  C   UNL     1      40.183 -13.967  -2.609  1.00  0.00    -0.038 A 
HETATM   22  C   UNL     1      39.440 -14.836  -3.430  1.00  0.00     0.048 A 
HETATM   23  C   UNL     1      38.163 -14.467  -3.797  1.00  0.00     0.105 A 
HETATM   24  C   UNL     1      37.606 -13.279  -3.388  1.00  0.00     0.105 A 
HETATM   25  O   UNL     1      37.315 -15.198  -4.570  1.00  0.00    -0.323 OA
HETATM   26  O   UNL     1      36.342 -13.109  -3.856  1.00  0.00    -0.323 OA
HETATM   27  C   UNL     1      38.293 -12.401  -2.580  1.00  0.00     0.040 A 
HETATM   28  C   UNL     1      36.154 -14.341  -4.581  1.00  0.00     0.352 A 
HETATM   29  C   UNL     1      39.586 -12.758  -2.177  1.00  0.00     0.012 A 
ENDBRANCH  20  21
ENDBRANCH  17  20
ENDBRANCH  15  16
ENDBRANCH  12  15
BRANCH   6  30
HETATM   30  S   UNL     1      44.148 -16.633   6.065  1.00  0.00    -0.082 SA
BRANCH  30  31
HETATM   31  C   UNL     1      42.561 -16.879   6.918  1.00  0.00     0.185 C 
BRANCH  31  32
HETATM   32  C   UNL     1      41.373 -16.104   6.348  1.00  0.00     0.231 C 
HETATM   33  N   UNL     1      41.638 -14.798   5.987  1.00  0.00    -0.327 N 
HETATM   34  H   UNL     1      42.560 -14.463   6.246  1.00  0.00     0.169 HD
HETATM   35  O   UNL     1      40.297 -16.683   6.199  1.00  0.00    -0.272 OA
BRANCH  33  36
HETATM   36  C   UNL     1      40.743 -13.836   5.487  1.00  0.00     0.034 A 
HETATM   37  C   UNL     1      40.282 -13.806   4.168  1.00  0.00     0.032 A 
HETATM   38  C   UNL     1      39.375 -12.822   3.758  1.00  0.00     0.044 A 
HETATM   39  C   UNL     1      38.931 -11.872   4.669  1.00  0.00     0.116 A 
HETATM   40  F   UNL     1      38.058 -10.936   4.276  1.00  0.00    -0.206 F 
HETATM   41  C   UNL     1      39.380 -11.882   5.981  1.00  0.00     0.044 A 
HETATM   42  C   UNL     1      40.288 -12.861   6.389  1.00  0.00     0.032 A 
ENDBRANCH  33  36
ENDBRANCH  31  32
ENDBRANCH  30  31
ENDBRANCH   6  30
TORSDOF 8
ENDMDL
MODEL 5
REMARK VINA RESULT:      -9.5      4.656     10.313
REMARK  8 active torsions:
REMARK  status: ('A' for Active; 'I' for Inactive)
REMARK    1  A    between atoms: C_6  and  S_7 
REMARK    2  A    between atoms: S_7  and  C_8 
REMARK    3  A    between atoms: C_8  and  C_9 
REMARK       I    between atoms: C_9  and  N_10 
REMARK    4  A    between atoms: N_10  and  C_11 
REMARK    5  A    between atoms: C_24  and  C_25 
REMARK    6  A    between atoms: C_25  and  C_26 
REMARK       I    between atoms: C_26  and  N_27 
REMARK    7  A    between atoms: N_27  and  C_28 
REMARK    8  A    between atoms: C_28  and  C_29 
ROOT
HETATM    1  C   UNL     1      44.128 -20.738   2.250  1.00  0.00     0.001 A 
HETATM    2  C   UNL     1      43.443 -19.530   2.129  1.00  0.00     0.018 A 
HETATM    3  C   UNL     1      43.397 -18.661   3.222  1.00  0.00     0.039 A 
HETATM    4  C   UNL     1      44.024 -18.973   4.429  1.00  0.00     0.073 A 
HETATM    5  N   UNL     1      44.001 -18.103   5.529  1.00  0.00    -0.223 NA
HETATM    6  C   UNL     1      43.368 -16.981   5.418  1.00  0.00     0.178 A 
HETATM    7  N   UNL     1      42.712 -16.585   4.259  1.00  0.00    -0.241 N 
HETATM    8  C   UNL     1      42.702 -17.375   3.156  1.00  0.00     0.147 A 
HETATM    9  N   UNL     1      42.069 -16.942   2.113  1.00  0.00    -0.256 NA
HETATM   10  C   UNL     1      41.968 -15.461   3.967  1.00  0.00     0.257 A 
HETATM   11  O   UNL     1      41.611 -14.554   4.702  1.00  0.00    -0.270 OA
HETATM   12  C   UNL     1      41.583 -15.590   2.503  1.00  0.00     0.211 A 
HETATM   13  C   UNL     1      44.705 -20.186   4.538  1.00  0.00     0.032 A 
HETATM   14  C   UNL     1      44.758 -21.066   3.453  1.00  0.00     0.002 A 
ENDROOT
BRANCH  12  15
HETATM   15  C   UNL     1      40.077 -15.492   2.323  1.00  0.00     0.140 C 
BRANCH  15  16
HETATM   16  C   UNL     1      39.717 -14.925   0.968  1.00  0.00     0.220 C 
HETATM   17  N   UNL     1      40.623 -15.265  -0.014  1.00  0.00    -0.357 N 
HETATM   18  H   UNL     1      41.198 -16.084   0.131  1.00  0.00     0.162 HD
HETATM   19  O   UNL     1      38.710 -14.260   0.751  1.00  0.00    -0.274 OA
BRANCH  17  20
HETATM   20  C   UNL     1      40.442 -14.795  -1.369  1.00  0.00     0.161 C 
BRANCH  20  21
HETATM   21  C   UNL     1      41.219 -13.540  -1.695  1.00  0.00    -0.038 A 
HETATM   22  C   UNL     1      41.653 -12.734  -0.626  1.00  0.00     0.048 A 
HETATM   23  C   UNL     1      42.404 -11.611  -0.908  1.00  0.00     0.105 A 
HETATM   24  C   UNL     1      42.730 -11.263  -2.196  1.00  0.00     0.105 A 
HETATM   25  O   UNL     1      42.909 -10.742   0.008  1.00  0.00    -0.323 OA
HETATM   26  O   UNL     1      43.476 -10.128  -2.255  1.00  0.00    -0.323 OA
HETATM   27  C   UNL     1      42.333 -12.024  -3.273  1.00  0.00     0.040 A 
HETATM   28  C   UNL     1      43.609  -9.819  -0.852  1.00  0.00     0.352 A 
HETATM   29  C   UNL     1      41.584 -13.179  -3.015  1.00  0.00     0.012 A 
ENDBRANCH  20  21
ENDBRANCH  17  20
ENDBRANCH  15  16
ENDBRANCH  12  15
BRANCH   6  30
HETATM   30  S   UNL     1      43.406 -15.899   6.789  1.00  0.00    -0.082 SA
BRANCH  30  31
HETATM   31  C   UNL     1      44.805 -14.836   6.318  1.00  0.00     0.185 C 
BRANCH  31  32
HETATM   32  C   UNL     1      45.100 -13.670   7.261  1.00  0.00     0.231 C 
HETATM   33  N   UNL     1      44.091 -13.360   8.151  1.00  0.00    -0.327 N 
HETATM   34  H   UNL     1      43.224 -13.864   8.004  1.00  0.00     0.169 HD
HETATM   35  O   UNL     1      46.203 -13.125   7.212  1.00  0.00    -0.272 OA
BRANCH  33  36
HETATM   36  C   UNL     1      44.055 -12.318   9.095  1.00  0.00     0.034 A 
HETATM   37  C   UNL     1      44.898 -12.238  10.206  1.00  0.00     0.032 A 
HETATM   38  C   UNL     1      44.808 -11.154  11.086  1.00  0.00     0.044 A 
HETATM   39  C   UNL     1      43.874 -10.153  10.852  1.00  0.00     0.116 A 
HETATM   40  F   UNL     1      43.794  -9.113  11.693  1.00  0.00    -0.206 F 
HETATM   41  C   UNL     1      43.024 -10.215   9.758  1.00  0.00     0.044 A 
HETATM   42  C   UNL     1      43.113 -11.299   8.881  1.00  0.00     0.032 A 
ENDBRANCH  33  36
ENDBRANCH  31  32
ENDBRANCH  30  31
ENDBRANCH   6  30
TORSDOF 8
ENDMDL
MODEL 6
REMARK VINA RESULT:      -9.5      5.500      8.912
REMARK  8 active torsions:
REMARK  status: ('A' for Active; 'I' for Inactive)
REMARK    1  A    between atoms: C_6  and  S_7 
REMARK    2  A    between atoms: S_7  and  C_8 
REMARK    3  A    between atoms: C_8  and  C_9 
REMARK       I    between atoms: C_9  and  N_10 
REMARK    4  A    between atoms: N_10  and  C_11 
REMARK    5  A    between atoms: C_24  and  C_25 
REMARK    6  A    between atoms: C_25  and  C_26 
REMARK       I    between atoms: C_26  and  N_27 
REMARK    7  A    between atoms: N_27  and  C_28 
REMARK    8  A    between atoms: C_28  and  C_29 
ROOT
HETATM    1  C   UNL     1      42.823 -12.707  -2.309  1.00  0.00     0.001 A 
HETATM    2  C   UNL     1      41.992 -13.468  -1.489  1.00  0.00     0.018 A 
HETATM    3  C   UNL     1      41.530 -12.919  -0.290  1.00  0.00     0.039 A 
HETATM    4  C   UNL     1      41.881 -11.625   0.103  1.00  0.00     0.073 A 
HETATM    5  N   UNL     1      41.413 -11.054   1.294  1.00  0.00    -0.223 NA
HETATM    6  C   UNL     1      40.639 -11.757   2.056  1.00  0.00     0.178 A 
HETATM    7  N   UNL     1      40.239 -13.052   1.752  1.00  0.00    -0.241 N 
HETATM    8  C   UNL     1      40.648 -13.661   0.610  1.00  0.00     0.147 A 
HETATM    9  N   UNL     1      40.237 -14.870   0.394  1.00  0.00    -0.256 NA
HETATM   10  C   UNL     1      39.459 -13.956   2.443  1.00  0.00     0.257 A 
HETATM   11  O   UNL     1      38.991 -13.876   3.568  1.00  0.00    -0.270 OA
HETATM   12  C   UNL     1      39.336 -15.171   1.540  1.00  0.00     0.211 A 
HETATM   13  C   UNL     1      42.715 -10.876  -0.727  1.00  0.00     0.032 A 
HETATM   14  C   UNL     1      43.184 -11.413  -1.929  1.00  0.00     0.002 A 
ENDROOT
BRANCH  12  15
HETATM   15  C   UNL     1      39.788 -16.433   2.256  1.00  0.00     0.140 C 
BRANCH  15  16
HETATM   16  C   UNL     1      41.293 -16.578   2.227  1.00  0.00     0.220 C 
HETATM   17  N   UNL     1      41.715 -17.641   1.457  1.00  0.00    -0.357 N 
HETATM   18  H   UNL     1      41.091 -17.988   0.742  1.00  0.00     0.162 HD
HETATM   19  O   UNL     1      42.064 -15.813   2.797  1.00  0.00    -0.274 OA
BRANCH  17  20
HETATM   20  C   UNL     1      43.125 -17.935   1.328  1.00  0.00     0.161 C 
BRANCH  20  21
HETATM   21  C   UNL     1      43.643 -18.926   2.346  1.00  0.00    -0.038 A 
HETATM   22  C   UNL     1      43.718 -20.281   1.971  1.00  0.00     0.048 A 
HETATM   23  C   UNL     1      44.233 -21.188   2.873  1.00  0.00     0.105 A 
HETATM   24  C   UNL     1      44.667 -20.804   4.118  1.00  0.00     0.105 A 
HETATM   25  O   UNL     1      44.386 -22.522   2.658  1.00  0.00    -0.323 OA
HETATM   26  O   UNL     1      45.141 -21.848   4.848  1.00  0.00    -0.323 OA
HETATM   27  C   UNL     1      44.618 -19.490   4.527  1.00  0.00     0.040 A 
HETATM   28  C   UNL     1      44.986 -22.929   3.907  1.00  0.00     0.352 A 
HETATM   29  C   UNL     1      44.115 -18.544   3.624  1.00  0.00     0.012 A 
ENDBRANCH  20  21
ENDBRANCH  17  20
ENDBRANCH  15  16
ENDBRANCH  12  15
BRANCH   6  30
HETATM   30  S   UNL     1      40.031 -10.995   3.505  1.00  0.00    -0.082 SA
BRANCH  30  31
HETATM   31  C   UNL     1      41.496 -11.128   4.574  1.00  0.00     0.185 C 
BRANCH  31  32
HETATM   32  C   UNL     1      42.108 -12.523   4.694  1.00  0.00     0.231 C 
HETATM   33  N   UNL     1      41.511 -13.352   5.623  1.00  0.00    -0.327 N 
HETATM   34  H   UNL     1      40.809 -12.907   6.203  1.00  0.00     0.169 HD
HETATM   35  O   UNL     1      43.032 -12.838   3.944  1.00  0.00    -0.272 OA
BRANCH  33  36
HETATM   36  C   UNL     1      41.883 -14.659   5.986  1.00  0.00     0.034 A 
HETATM   37  C   UNL     1      43.182 -15.036   6.337  1.00  0.00     0.032 A 
HETATM   38  C   UNL     1      43.460 -16.357   6.705  1.00  0.00     0.044 A 
HETATM   39  C   UNL     1      42.439 -17.297   6.721  1.00  0.00     0.116 A 
HETATM   40  F   UNL     1      42.707 -18.559   7.079  1.00  0.00    -0.206 F 
HETATM   41  C   UNL     1      41.144 -16.946   6.371  1.00  0.00     0.044 A 
HETATM   42  C   UNL     1      40.866 -15.627   6.001  1.00  0.00     0.032 A 
ENDBRANCH  33  36
ENDBRANCH  31  32
ENDBRANCH  30  31
ENDBRANCH   6  30
TORSDOF 8
ENDMDL
MODEL 7
REMARK VINA RESULT:      -9.4      3.468      7.912
REMARK  8 active torsions:
REMARK  status: ('A' for Active; 'I' for Inactive)
REMARK    1  A    between atoms: C_6  and  S_7 
REMARK    2  A    between atoms: S_7  and  C_8 
REMARK    3  A    between atoms: C_8  and  C_9 
REMARK       I    between atoms: C_9  and  N_10 
REMARK    4  A    between atoms: N_10  and  C_11 
REMARK    5  A    between atoms: C_24  and  C_25 
REMARK    6  A    between atoms: C_25  and  C_26 
REMARK       I    between atoms: C_26  and  N_27 
REMARK    7  A    between atoms: N_27  and  C_28 
REMARK    8  A    between atoms: C_28  and  C_29 
ROOT
HETATM    1  C   UNL     1      38.158 -14.269   1.076  1.00  0.00     0.001 A 
HETATM    2  C   UNL     1      39.066 -14.520   2.104  1.00  0.00     0.018 A 
HETATM    3  C   UNL     1      39.451 -13.471   2.943  1.00  0.00     0.039 A 
HETATM    4  C   UNL     1      38.946 -12.180   2.776  1.00  0.00     0.073 A 
HETATM    5  N   UNL     1      39.310 -11.122   3.620  1.00  0.00    -0.223 NA
HETATM    6  C   UNL     1      40.150 -11.353   4.577  1.00  0.00     0.178 A 
HETATM    7  N   UNL     1      40.709 -12.601   4.818  1.00  0.00    -0.241 N 
HETATM    8  C   UNL     1      40.392 -13.671   4.044  1.00  0.00     0.147 A 
HETATM    9  N   UNL     1      40.954 -14.803   4.327  1.00  0.00    -0.256 NA
HETATM   10  C   UNL     1      41.631 -13.027   5.751  1.00  0.00     0.257 A 
HETATM   11  O   UNL     1      42.275 -12.376   6.558  1.00  0.00    -0.270 OA
HETATM   12  C   UNL     1      41.771 -14.525   5.540  1.00  0.00     0.211 A 
HETATM   13  C   UNL     1      38.040 -11.943   1.743  1.00  0.00     0.032 A 
HETATM   14  C   UNL     1      37.645 -12.983   0.895  1.00  0.00     0.002 A 
ENDROOT
BRANCH  12  15
HETATM   15  C   UNL     1      43.222 -14.911   5.304  1.00  0.00     0.140 C 
BRANCH  15  16
HETATM   16  C   UNL     1      43.432 -15.449   3.906  1.00  0.00     0.220 C 
HETATM   17  N   UNL     1      43.265 -16.815   3.827  1.00  0.00    -0.357 N 
HETATM   18  H   UNL     1      42.712 -17.270   4.539  1.00  0.00     0.162 HD
HETATM   19  O   UNL     1      43.689 -14.746   2.936  1.00  0.00    -0.274 OA
BRANCH  17  20
HETATM   20  C   UNL     1      43.442 -17.500   2.565  1.00  0.00     0.161 C 
BRANCH  20  21
HETATM   21  C   UNL     1      43.777 -18.967   2.702  1.00  0.00    -0.038 A 
HETATM   22  C   UNL     1      44.294 -19.416   3.932  1.00  0.00     0.048 A 
HETATM   23  C   UNL     1      44.559 -20.761   4.086  1.00  0.00     0.105 A 
HETATM   24  C   UNL     1      44.337 -21.663   3.074  1.00  0.00     0.105 A 
HETATM   25  O   UNL     1      45.044 -21.352   5.211  1.00  0.00    -0.323 OA
HETATM   26  O   UNL     1      44.659 -22.935   3.431  1.00  0.00    -0.323 OA
HETATM   27  C   UNL     1      43.827 -21.272   1.857  1.00  0.00     0.040 A 
HETATM   28  C   UNL     1      45.080 -22.734   4.796  1.00  0.00     0.352 A 
HETATM   29  C   UNL     1      43.532 -19.914   1.679  1.00  0.00     0.012 A 
ENDBRANCH  20  21
ENDBRANCH  17  20
ENDBRANCH  15  16
ENDBRANCH  12  15
BRANCH   6  30
HETATM   30  S   UNL     1      40.539 -10.024   5.641  1.00  0.00    -0.082 SA
BRANCH  30  31
HETATM   31  C   UNL     1      39.511 -10.454   7.078  1.00  0.00     0.185 C 
BRANCH  31  32
HETATM   32  C   UNL     1      40.058 -10.026   8.439  1.00  0.00     0.231 C 
HETATM   33  N   UNL     1      40.859 -10.955   9.073  1.00  0.00    -0.327 N 
HETATM   34  H   UNL     1      40.903 -11.860   8.619  1.00  0.00     0.169 HD
HETATM   35  O   UNL     1      39.806  -8.895   8.857  1.00  0.00    -0.272 OA
BRANCH  33  36
HETATM   36  C   UNL     1      41.457 -10.864  10.342  1.00  0.00     0.034 A 
HETATM   37  C   UNL     1      42.778 -10.461  10.559  1.00  0.00     0.032 A 
HETATM   38  C   UNL     1      43.288 -10.380  11.860  1.00  0.00     0.044 A 
HETATM   39  C   UNL     1      42.477 -10.703  12.939  1.00  0.00     0.116 A 
HETATM   40  F   UNL     1      42.965 -10.620  14.183  1.00  0.00    -0.206 F 
HETATM   41  C   UNL     1      41.165 -11.111  12.745  1.00  0.00     0.044 A 
HETATM   42  C   UNL     1      40.657 -11.195  11.447  1.00  0.00     0.032 A 
ENDBRANCH  33  36
ENDBRANCH  31  32
ENDBRANCH  30  31
ENDBRANCH   6  30
TORSDOF 8
ENDMDL
MODEL 8
REMARK VINA RESULT:      -9.2      3.508      8.717
REMARK  8 active torsions:
REMARK  status: ('A' for Active; 'I' for Inactive)
REMARK    1  A    between atoms: C_6  and  S_7 
REMARK    2  A    between atoms: S_7  and  C_8 
REMARK    3  A    between atoms: C_8  and  C_9 
REMARK       I    between atoms: C_9  and  N_10 
REMARK    4  A    between atoms: N_10  and  C_11 
REMARK    5  A    between atoms: C_24  and  C_25 
REMARK    6  A    between atoms: C_25  and  C_26 
REMARK       I    between atoms: C_26  and  N_27 
REMARK    7  A    between atoms: N_27  and  C_28 
REMARK    8  A    between atoms: C_28  and  C_29 
ROOT
HETATM    1  C   UNL     1      39.758  -9.992   4.142  1.00  0.00     0.001 A 
HETATM    2  C   UNL     1      40.781 -10.869   4.500  1.00  0.00     0.018 A 
HETATM    3  C   UNL     1      40.724 -12.196   4.066  1.00  0.00     0.039 A 
HETATM    4  C   UNL     1      39.667 -12.661   3.281  1.00  0.00     0.073 A 
HETATM    5  N   UNL     1      39.605 -13.985   2.823  1.00  0.00    -0.223 NA
HETATM    6  C   UNL     1      40.554 -14.800   3.152  1.00  0.00     0.178 A 
HETATM    7  N   UNL     1      41.642 -14.430   3.933  1.00  0.00    -0.241 N 
HETATM    8  C   UNL     1      41.769 -13.162   4.400  1.00  0.00     0.147 A 
HETATM    9  N   UNL     1      42.808 -12.891   5.123  1.00  0.00    -0.256 NA
HETATM   10  C   UNL     1      42.717 -15.153   4.407  1.00  0.00     0.257 A 
HETATM   11  O   UNL     1      42.936 -16.352   4.338  1.00  0.00    -0.270 OA
HETATM   12  C   UNL     1      43.596 -14.154   5.139  1.00  0.00     0.211 A 
HETATM   13  C   UNL     1      38.650 -11.774   2.930  1.00  0.00     0.032 A 
HETATM   14  C   UNL     1      38.694 -10.443   3.358  1.00  0.00     0.002 A 
ENDROOT
BRANCH  12  15
HETATM   15  C   UNL     1      43.859 -14.600   6.569  1.00  0.00     0.140 C 
BRANCH  15  16
HETATM   16  C   UNL     1      44.619 -13.549   7.346  1.00  0.00     0.220 C 
HETATM   17  N   UNL     1      43.801 -12.773   8.140  1.00  0.00    -0.357 N 
HETATM   18  H   UNL     1      42.904 -13.151   8.412  1.00  0.00     0.162 HD
HETATM   19  O   UNL     1      45.837 -13.416   7.304  1.00  0.00    -0.274 OA
BRANCH  17  20
HETATM   20  C   UNL     1      44.360 -11.709   8.943  1.00  0.00     0.161 C 
BRANCH  20  21
HETATM   21  C   UNL     1      43.522 -11.339  10.146  1.00  0.00    -0.038 A 
HETATM   22  C   UNL     1      42.297 -10.684   9.923  1.00  0.00     0.048 A 
HETATM   23  C   UNL     1      41.501 -10.384  11.009  1.00  0.00     0.105 A 
HETATM   24  C   UNL     1      41.876 -10.703  12.291  1.00  0.00     0.105 A 
HETATM   25  O   UNL     1      40.288  -9.770  10.960  1.00  0.00    -0.323 OA
HETATM   26  O   UNL     1      40.951 -10.325  13.213  1.00  0.00    -0.323 OA
HETATM   27  C   UNL     1      43.062 -11.348  12.557  1.00  0.00     0.040 A 
HETATM   28  C   UNL     1      39.935  -9.760  12.360  1.00  0.00     0.352 A 
HETATM   29  C   UNL     1      43.883 -11.681  11.472  1.00  0.00     0.012 A 
ENDBRANCH  20  21
ENDBRANCH  17  20
ENDBRANCH  15  16
ENDBRANCH  12  15
BRANCH   6  30
HETATM   30  S   UNL     1      40.471 -16.426   2.521  1.00  0.00    -0.082 SA
BRANCH  30  31
HETATM   31  C   UNL     1      41.821 -16.366   1.304  1.00  0.00     0.185 C 
BRANCH  31  32
HETATM   32  C   UNL     1      42.819 -17.522   1.359  1.00  0.00     0.231 C 
HETATM   33  N   UNL     1      42.520 -18.517   2.269  1.00  0.00    -0.327 N 
HETATM   34  H   UNL     1      41.735 -18.315   2.878  1.00  0.00     0.169 HD
HETATM   35  O   UNL     1      43.772 -17.528   0.581  1.00  0.00    -0.272 OA
BRANCH  33  36
HETATM   36  C   UNL     1      43.269 -19.667   2.576  1.00  0.00     0.034 A 
HETATM   37  C   UNL     1      44.080 -19.794   3.707  1.00  0.00     0.032 A 
HETATM   38  C   UNL     1      44.777 -20.984   3.947  1.00  0.00     0.044 A 
HETATM   39  C   UNL     1      44.661 -22.042   3.055  1.00  0.00     0.116 A 
HETATM   40  F   UNL     1      45.324 -23.181   3.290  1.00  0.00    -0.206 F 
HETATM   41  C   UNL     1      43.865 -21.934   1.924  1.00  0.00     0.044 A 
HETATM   42  C   UNL     1      43.172 -20.746   1.683  1.00  0.00     0.032 A 
ENDBRANCH  33  36
ENDBRANCH  31  32
ENDBRANCH  30  31
ENDBRANCH   6  30
TORSDOF 8
ENDMDL
MODEL 9
REMARK VINA RESULT:      -9.1      5.921      9.864
REMARK  8 active torsions:
REMARK  status: ('A' for Active; 'I' for Inactive)
REMARK    1  A    between atoms: C_6  and  S_7 
REMARK    2  A    between atoms: S_7  and  C_8 
REMARK    3  A    between atoms: C_8  and  C_9 
REMARK       I    between atoms: C_9  and  N_10 
REMARK    4  A    between atoms: N_10  and  C_11 
REMARK    5  A    between atoms: C_24  and  C_25 
REMARK    6  A    between atoms: C_25  and  C_26 
REMARK       I    between atoms: C_26  and  N_27 
REMARK    7  A    between atoms: N_27  and  C_28 
REMARK    8  A    between atoms: C_28  and  C_29 
ROOT
HETATM    1  C   UNL     1      40.723  -9.699   2.352  1.00  0.00     0.001 A 
HETATM    2  C   UNL     1      40.603 -10.991   1.842  1.00  0.00     0.018 A 
HETATM    3  C   UNL     1      40.639 -12.076   2.721  1.00  0.00     0.039 A 
HETATM    4  C   UNL     1      40.789 -11.895   4.097  1.00  0.00     0.073 A 
HETATM    5  N   UNL     1      40.809 -12.973   4.993  1.00  0.00    -0.223 NA
HETATM    6  C   UNL     1      40.695 -14.172   4.523  1.00  0.00     0.178 A 
HETATM    7  N   UNL     1      40.546 -14.452   3.170  1.00  0.00    -0.241 N 
HETATM    8  C   UNL     1      40.510 -13.455   2.250  1.00  0.00     0.147 A 
HETATM    9  N   UNL     1      40.371 -13.790   1.007  1.00  0.00    -0.256 NA
HETATM   10  C   UNL     1      40.446 -15.646   2.488  1.00  0.00     0.257 A 
HETATM   11  O   UNL     1      40.562 -16.788   2.902  1.00  0.00    -0.270 OA
HETATM   12  C   UNL     1      40.228 -15.272   1.032  1.00  0.00     0.211 A 
HETATM   13  C   UNL     1      40.909 -10.597   4.594  1.00  0.00     0.032 A 
HETATM   14  C   UNL     1      40.875  -9.502   3.726  1.00  0.00     0.002 A 
ENDROOT
BRANCH  12  15
HETATM   15  C   UNL     1      41.270 -15.922   0.137  1.00  0.00     0.140 C 
BRANCH  15  16
HETATM   16  C   UNL     1      41.219 -15.365  -1.268  1.00  0.00     0.220 C 
HETATM   17  N   UNL     1      42.040 -14.271  -1.441  1.00  0.00    -0.357 N 
HETATM   18  H   UNL     1      42.815 -14.151  -0.804  1.00  0.00     0.162 HD
HETATM   19  O   UNL     1      40.548 -15.851  -2.172  1.00  0.00    -0.274 OA
BRANCH  17  20
HETATM   20  C   UNL     1      42.104 -13.602  -2.722  1.00  0.00     0.161 C 
BRANCH  20  21
HETATM   21  C   UNL     1      42.390 -12.120  -2.629  1.00  0.00    -0.038 A 
HETATM   22  C   UNL     1      42.835 -11.608  -1.397  1.00  0.00     0.048 A 
HETATM   23  C   UNL     1      43.146 -10.266  -1.312  1.00  0.00     0.105 A 
HETATM   24  C   UNL     1      43.026  -9.426  -2.393  1.00  0.00     0.105 A 
HETATM   25  O   UNL     1      43.601  -9.624  -0.204  1.00  0.00    -0.323 OA
HETATM   26  O   UNL     1      43.385  -8.148  -2.100  1.00  0.00    -0.323 OA
HETATM   27  C   UNL     1      42.601  -9.884  -3.620  1.00  0.00     0.040 A 
HETATM   28  C   UNL     1      43.774  -8.287  -0.718  1.00  0.00     0.352 A 
HETATM   29  C   UNL     1      42.295 -11.246  -3.738  1.00  0.00     0.012 A 
ENDBRANCH  20  21
ENDBRANCH  17  20
ENDBRANCH  15  16
ENDBRANCH  12  15
BRANCH   6  30
HETATM   30  S   UNL     1      40.671 -15.487   5.673  1.00  0.00    -0.082 SA
BRANCH  30  31
HETATM   31  C   UNL     1      42.452 -15.835   5.798  1.00  0.00     0.185 C 
BRANCH  31  32
HETATM   32  C   UNL     1      42.871 -17.273   5.498  1.00  0.00     0.231 C 
HETATM   33  N   UNL     1      43.205 -17.528   4.182  1.00  0.00    -0.327 N 
HETATM   34  H   UNL     1      43.026 -16.764   3.541  1.00  0.00     0.169 HD
HETATM   35  O   UNL     1      42.936 -18.083   6.422  1.00  0.00    -0.272 OA
BRANCH  33  36
HETATM   36  C   UNL     1      43.577 -18.754   3.602  1.00  0.00     0.034 A 
HETATM   37  C   UNL     1      43.083 -19.226   2.383  1.00  0.00     0.032 A 
HETATM   38  C   UNL     1      43.523 -20.450   1.868  1.00  0.00     0.044 A 
HETATM   39  C   UNL     1      44.454 -21.200   2.574  1.00  0.00     0.116 A 
HETATM   40  F   UNL     1      44.878 -22.369   2.077  1.00  0.00    -0.206 F 
HETATM   41  C   UNL     1      44.953 -20.752   3.789  1.00  0.00     0.044 A 
HETATM   42  C   UNL     1      44.512 -19.531   4.304  1.00  0.00     0.032 A 
ENDBRANCH  33  36
ENDBRANCH  31  32
ENDBRANCH  30  31
ENDBRANCH   6  30
TORSDOF 8
ENDMDL
MODEL 10
REMARK VINA RESULT:      -9.0      5.500     10.363
REMARK  8 active torsions:
REMARK  status: ('A' for Active; 'I' for Inactive)
REMARK    1  A    between atoms: C_6  and  S_7 
REMARK    2  A    between atoms: S_7  and  C_8 
REMARK    3  A    between atoms: C_8  and  C_9 
REMARK       I    between atoms: C_9  and  N_10 
REMARK    4  A    between atoms: N_10  and  C_11 
REMARK    5  A    between atoms: C_24  and  C_25 
REMARK    6  A    between atoms: C_25  and  C_26 
REMARK       I    between atoms: C_26  and  N_27 
REMARK    7  A    between atoms: N_27  and  C_28 
REMARK    8  A    between atoms: C_28  and  C_29 
ROOT
HETATM    1  C   UNL     1      44.428 -22.283   2.579  1.00  0.00     0.001 A 
HETATM    2  C   UNL     1      44.006 -21.029   2.140  1.00  0.00     0.018 A 
HETATM    3  C   UNL     1      43.988 -19.962   3.042  1.00  0.00     0.039 A 
HETATM    4  C   UNL     1      44.386 -20.124   4.370  1.00  0.00     0.073 A 
HETATM    5  N   UNL     1      44.390 -19.059   5.282  1.00  0.00    -0.223 NA
HETATM    6  C   UNL     1      44.002 -17.894   4.877  1.00  0.00     0.178 A 
HETATM    7  N   UNL     1      43.585 -17.637   3.576  1.00  0.00    -0.241 N 
HETATM    8  C   UNL     1      43.566 -18.621   2.641  1.00  0.00     0.147 A 
HETATM    9  N   UNL     1      43.163 -18.309   1.451  1.00  0.00    -0.256 NA
HETATM   10  C   UNL     1      43.112 -16.489   2.976  1.00  0.00     0.257 A 
HETATM   11  O   UNL     1      42.844 -15.408   3.474  1.00  0.00    -0.270 OA
HETATM   12  C   UNL     1      42.899 -16.845   1.515  1.00  0.00     0.211 A 
HETATM   13  C   UNL     1      44.804 -21.384   4.797  1.00  0.00     0.032 A 
HETATM   14  C   UNL     1      44.826 -22.461   3.906  1.00  0.00     0.002 A 
ENDROOT
BRANCH  12  15
HETATM   15  C   UNL     1      41.474 -16.542   1.080  1.00  0.00     0.140 C 
BRANCH  15  16
HETATM   16  C   UNL     1      41.393 -15.235   0.323  1.00  0.00     0.220 C 
HETATM   17  N   UNL     1      40.122 -14.960  -0.136  1.00  0.00    -0.357 N 
HETATM   18  H   UNL     1      39.342 -15.404   0.326  1.00  0.00     0.162 HD
HETATM   19  O   UNL     1      42.344 -14.480   0.160  1.00  0.00    -0.274 OA
BRANCH  17  20
HETATM   20  C   UNL     1      39.865 -13.755  -0.894  1.00  0.00     0.161 C 
BRANCH  20  21
HETATM   21  C   UNL     1      38.885 -12.811  -0.236  1.00  0.00    -0.038 A 
HETATM   22  C   UNL     1      39.307 -11.493   0.023  1.00  0.00     0.048 A 
HETATM   23  C   UNL     1      38.407 -10.608   0.579  1.00  0.00     0.105 A 
HETATM   24  C   UNL     1      37.122 -10.981   0.887  1.00  0.00     0.105 A 
HETATM   25  O   UNL     1      38.654  -9.304   0.874  1.00  0.00    -0.323 OA
HETATM   26  O   UNL     1      36.399  -9.961   1.421  1.00  0.00    -0.323 OA
HETATM   27  C   UNL     1      36.662 -12.256   0.647  1.00  0.00     0.040 A 
HETATM   28  C   UNL     1      37.368  -8.894   1.384  1.00  0.00     0.352 A 
HETATM   29  C   UNL     1      37.550 -13.172   0.066  1.00  0.00     0.012 A 
ENDBRANCH  20  21
ENDBRANCH  17  20
ENDBRANCH  15  16
ENDBRANCH  12  15
BRANCH   6  30
HETATM   30  S   UNL     1      44.070 -16.580   6.025  1.00  0.00    -0.082 SA
BRANCH  30  31
HETATM   31  C   UNL     1      42.500 -16.842   6.905  1.00  0.00     0.185 C 
BRANCH  31  32
HETATM   32  C   UNL     1      41.303 -16.051   6.378  1.00  0.00     0.231 C 
HETATM   33  N   UNL     1      41.568 -14.743   6.027  1.00  0.00    -0.327 N 
HETATM   34  H   UNL     1      42.498 -14.417   6.264  1.00  0.00     0.169 HD
HETATM   35  O   UNL     1      40.219 -16.621   6.251  1.00  0.00    -0.272 OA
BRANCH  33  36
HETATM   36  C   UNL     1      40.666 -13.768   5.563  1.00  0.00     0.034 A 
HETATM   37  C   UNL     1      40.117 -12.764   6.366  1.00  0.00     0.032 A 
HETATM   38  C   UNL     1      39.241 -11.821   5.818  1.00  0.00     0.044 A 
HETATM   39  C   UNL     1      38.915 -11.884   4.470  1.00  0.00     0.116 A 
HETATM   40  F   UNL     1      38.081 -10.977   3.947  1.00  0.00    -0.206 F 
HETATM   41  C   UNL     1      39.444 -12.876   3.657  1.00  0.00     0.044 A 
HETATM   42  C   UNL     1      40.317 -13.819   4.205  1.00  0.00     0.032 A 
ENDBRANCH  33  36
ENDBRANCH  31  32
ENDBRANCH  30  31
ENDBRANCH   6  30
TORSDOF 8
ENDMDL
