MODEL 1
REMARK VINA RESULT:      -8.1      0.000      0.000
REMARK  8 active torsions:
REMARK  status: ('A' for Active; 'I' for Inactive)
REMARK    1  A    between atoms: C_2  and  C_3 
REMARK    2  A    between atoms: C_3  and  O_4 
REMARK    3  A    between atoms: O_4  and  C_5 
REMARK    4  A    between atoms: C_8  and  C_9 
REMARK    5  A    between atoms: C_13  and  C_14 
REMARK       I    between atoms: C_14  and  N_15 
REMARK    6  A    between atoms: N_15  and  N_16 
REMARK    7  A    between atoms: C_17  and  C_18 
REMARK    8  A    between atoms: C_19  and  O_20 
ROOT
HETATM    1  C   UNL     1      44.231 -11.257  10.719  1.00  0.00     0.089 A 
HETATM    2  N   UNL     1      45.200 -10.523  10.152  1.00  0.00    -0.174 NA
HETATM    3  N   UNL     1      45.604 -11.249   9.099  1.00  0.00    -0.272 N 
HETATM    4  H   UNL     1      46.349 -10.891   8.509  1.00  0.00     0.189 HD
HETATM    5  C   UNL     1      44.910 -12.414   8.922  1.00  0.00     0.121 A 
HETATM    6  C   UNL     1      44.026 -12.457   9.982  1.00  0.00     0.071 A 
ENDROOT
BRANCH   5   7
HETATM    7  C   UNL     1      45.169 -13.282   7.800  1.00  0.00     0.289 C 
HETATM    8  N   UNL     1      44.311 -14.367   7.700  1.00  0.00    -0.242 N 
HETATM    9  H   UNL     1      43.568 -14.495   8.374  1.00  0.00     0.192 HD
HETATM   10  O   UNL     1      46.069 -13.042   7.000  1.00  0.00    -0.264 OA
BRANCH   8  11
HETATM   11  N   UNL     1      44.401 -15.216   6.636  1.00  0.00    -0.183 NA
HETATM   12  C   UNL     1      44.087 -16.449   6.877  1.00  0.00     0.153 C 
BRANCH  12  13
HETATM   13  C   UNL     1      44.117 -17.467   5.810  1.00  0.00     0.016 A 
HETATM   14  C   UNL     1      43.547 -17.247   4.551  1.00  0.00     0.077 A 
HETATM   15  C   UNL     1      43.590 -18.243   3.579  1.00  0.00     0.037 A 
HETATM   16  C   UNL     1      44.204 -19.465   3.860  1.00  0.00     0.003 A 
HETATM   17  C   UNL     1      44.775 -19.690   5.113  1.00  0.00     0.001 A 
HETATM   18  C   UNL     1      44.733 -18.693   6.091  1.00  0.00     0.016 A 
BRANCH  14  19
HETATM   19  O   UNL     1      42.925 -16.080   4.198  1.00  0.00    -0.360 OA
HETATM   20  H   UNL     1      42.173 -15.929   4.816  1.00  0.00     0.217 HD
ENDBRANCH  14  19
ENDBRANCH  12  13
ENDBRANCH   8  11
ENDBRANCH   5   7
BRANCH   1  21
HETATM   21  C   UNL     1      43.498 -10.799  11.900  1.00  0.00    -0.005 A 
HETATM   22  C   UNL     1      43.961  -9.704  12.642  1.00  0.00     0.016 A 
HETATM   23  C   UNL     1      43.231  -9.215  13.732  1.00  0.00     0.037 A 
HETATM   24  C   UNL     1      42.028  -9.818  14.094  1.00  0.00     0.068 A 
HETATM   25  C   UNL     1      41.585 -10.938  13.390  1.00  0.00     0.037 A 
HETATM   26  C   UNL     1      42.307 -11.423  12.296  1.00  0.00     0.016 A 
BRANCH  24  27
HETATM   27  O   UNL     1      41.220  -9.419  15.122  1.00  0.00    -0.351 OA
BRANCH  27  28
HETATM   28  C   UNL     1      41.868  -8.711  16.180  1.00  0.00     0.175 C 
BRANCH  28  29
HETATM   29  C   UNL     1      41.145  -7.380  16.360  1.00  0.00     0.022 C 
HETATM   30  C   UNL     1      39.654  -7.505  16.101  1.00  0.00     0.007 C 
ENDBRANCH  28  29
ENDBRANCH  27  28
ENDBRANCH  24  27
ENDBRANCH   1  21
TORSDOF 8
ENDMDL
MODEL 2
REMARK VINA RESULT:      -8.1      2.141     11.511
REMARK  8 active torsions:
REMARK  status: ('A' for Active; 'I' for Inactive)
REMARK    1  A    between atoms: C_2  and  C_3 
REMARK    2  A    between atoms: C_3  and  O_4 
REMARK    3  A    between atoms: O_4  and  C_5 
REMARK    4  A    between atoms: C_8  and  C_9 
REMARK    5  A    between atoms: C_13  and  C_14 
REMARK       I    between atoms: C_14  and  N_15 
REMARK    6  A    between atoms: N_15  and  N_16 
REMARK    7  A    between atoms: C_17  and  C_18 
REMARK    8  A    between atoms: C_19  and  O_20 
ROOT
HETATM    1  C   UNL     1      43.578 -15.203   5.768  1.00  0.00     0.089 A 
HETATM    2  N   UNL     1      42.759 -14.183   5.475  1.00  0.00    -0.174 NA
HETATM    3  N   UNL     1      42.964 -13.291   6.457  1.00  0.00    -0.272 N 
HETATM    4  H   UNL     1      42.440 -12.421   6.451  1.00  0.00     0.189 HD
HETATM    5  C   UNL     1      43.918 -13.664   7.363  1.00  0.00     0.121 A 
HETATM    6  C   UNL     1      44.315 -14.920   6.952  1.00  0.00     0.071 A 
ENDROOT
BRANCH   5   7
HETATM    7  C   UNL     1      44.311 -12.794   8.443  1.00  0.00     0.289 C 
HETATM    8  N   UNL     1      43.361 -11.847   8.797  1.00  0.00    -0.242 N 
HETATM    9  H   UNL     1      42.471 -11.815   8.319  1.00  0.00     0.192 HD
HETATM   10  O   UNL     1      45.398 -12.917   9.002  1.00  0.00    -0.264 OA
BRANCH   8  11
HETATM   11  N   UNL     1      43.580 -11.019   9.858  1.00  0.00    -0.183 NA
HETATM   12  C   UNL     1      42.518 -10.522  10.409  1.00  0.00     0.153 C 
BRANCH  12  13
HETATM   13  C   UNL     1      42.611  -9.631  11.580  1.00  0.00     0.016 A 
HETATM   14  C   UNL     1      42.045  -8.351  11.592  1.00  0.00     0.077 A 
HETATM   15  C   UNL     1      42.169  -7.541  12.717  1.00  0.00     0.037 A 
HETATM   16  C   UNL     1      42.860  -8.006  13.838  1.00  0.00     0.003 A 
HETATM   17  C   UNL     1      43.427  -9.281  13.832  1.00  0.00     0.001 A 
HETATM   18  C   UNL     1      43.304 -10.096  12.705  1.00  0.00     0.016 A 
BRANCH  14  19
HETATM   19  O   UNL     1      41.356  -7.822  10.534  1.00  0.00    -0.360 OA
HETATM   20  H   UNL     1      41.972  -7.259  10.012  1.00  0.00     0.217 HD
ENDBRANCH  14  19
ENDBRANCH  12  13
ENDBRANCH   8  11
ENDBRANCH   5   7
BRANCH   1  21
HETATM   21  C   UNL     1      43.680 -16.389   4.916  1.00  0.00    -0.005 A 
HETATM   22  C   UNL     1      43.448 -16.293   3.537  1.00  0.00     0.016 A 
HETATM   23  C   UNL     1      43.611 -17.405   2.702  1.00  0.00     0.037 A 
HETATM   24  C   UNL     1      44.007 -18.628   3.239  1.00  0.00     0.068 A 
HETATM   25  C   UNL     1      44.192 -18.743   4.617  1.00  0.00     0.037 A 
HETATM   26  C   UNL     1      44.040 -17.632   5.451  1.00  0.00     0.016 A 
BRANCH  24  27
HETATM   27  O   UNL     1      44.218 -19.775   2.525  1.00  0.00    -0.351 OA
BRANCH  27  28
HETATM   28  C   UNL     1      44.897 -20.822   3.221  1.00  0.00     0.175 C 
BRANCH  28  29
HETATM   29  C   UNL     1      44.439 -22.150   2.625  1.00  0.00     0.022 C 
HETATM   30  C   UNL     1      43.653 -21.953   1.341  1.00  0.00     0.007 C 
ENDBRANCH  28  29
ENDBRANCH  27  28
ENDBRANCH  24  27
ENDBRANCH   1  21
TORSDOF 8
ENDMDL
MODEL 3
REMARK VINA RESULT:      -7.9      2.918     11.464
REMARK  8 active torsions:
REMARK  status: ('A' for Active; 'I' for Inactive)
REMARK    1  A    between atoms: C_2  and  C_3 
REMARK    2  A    between atoms: C_3  and  O_4 
REMARK    3  A    between atoms: O_4  and  C_5 
REMARK    4  A    between atoms: C_8  and  C_9 
REMARK    5  A    between atoms: C_13  and  C_14 
REMARK       I    between atoms: C_14  and  N_15 
REMARK    6  A    between atoms: N_15  and  N_16 
REMARK    7  A    between atoms: C_17  and  C_18 
REMARK    8  A    between atoms: C_19  and  O_20 
ROOT
HETATM    1  C   UNL     1      42.596 -14.403   4.429  1.00  0.00     0.089 A 
HETATM    2  N   UNL     1      42.464 -13.374   3.578  1.00  0.00    -0.174 NA
HETATM    3  N   UNL     1      42.161 -12.325   4.359  1.00  0.00    -0.272 N 
HETATM    4  H   UNL     1      42.006 -11.418   3.929  1.00  0.00     0.189 HD
HETATM    5  C   UNL     1      42.131 -12.612   5.696  1.00  0.00     0.121 A 
HETATM    6  C   UNL     1      42.384 -13.967   5.767  1.00  0.00     0.071 A 
ENDROOT
BRANCH   5   7
HETATM    7  C   UNL     1      41.889 -11.587   6.680  1.00  0.00     0.289 C 
HETATM    8  N   UNL     1      42.756 -11.610   7.762  1.00  0.00    -0.242 N 
HETATM    9  H   UNL     1      43.494 -12.299   7.811  1.00  0.00     0.192 HD
HETATM   10  O   UNL     1      40.994 -10.758   6.535  1.00  0.00    -0.264 OA
BRANCH   8  11
HETATM   11  N   UNL     1      42.683 -10.641   8.720  1.00  0.00    -0.183 NA
HETATM   12  C   UNL     1      42.767 -11.058   9.944  1.00  0.00     0.153 C 
BRANCH  12  13
HETATM   13  C   UNL     1      42.726 -10.113  11.076  1.00  0.00     0.016 A 
HETATM   14  C   UNL     1      41.990  -8.924  11.031  1.00  0.00     0.077 A 
HETATM   15  C   UNL     1      41.991  -8.058  12.121  1.00  0.00     0.037 A 
HETATM   16  C   UNL     1      42.729  -8.377  13.263  1.00  0.00     0.003 A 
HETATM   17  C   UNL     1      43.464  -9.560  13.314  1.00  0.00     0.001 A 
HETATM   18  C   UNL     1      43.465 -10.432  12.222  1.00  0.00     0.016 A 
BRANCH  14  19
HETATM   19  O   UNL     1      41.245  -8.539   9.949  1.00  0.00    -0.360 OA
HETATM   20  H   UNL     1      41.827  -8.536   9.155  1.00  0.00     0.217 HD
ENDBRANCH  14  19
ENDBRANCH  12  13
ENDBRANCH   8  11
ENDBRANCH   5   7
BRANCH   1  21
HETATM   21  C   UNL     1      42.956 -15.747   3.974  1.00  0.00    -0.005 A 
HETATM   22  C   UNL     1      43.488 -15.944   2.693  1.00  0.00     0.016 A 
HETATM   23  C   UNL     1      43.901 -17.214   2.273  1.00  0.00     0.037 A 
HETATM   24  C   UNL     1      43.785 -18.304   3.134  1.00  0.00     0.068 A 
HETATM   25  C   UNL     1      43.211 -18.125   4.392  1.00  0.00     0.037 A 
HETATM   26  C   UNL     1      42.806 -16.856   4.817  1.00  0.00     0.016 A 
BRANCH  24  27
HETATM   27  O   UNL     1      44.170 -19.584   2.846  1.00  0.00    -0.351 OA
BRANCH  27  28
HETATM   28  C   UNL     1      43.396 -20.256   1.851  1.00  0.00     0.175 C 
BRANCH  28  29
HETATM   29  C   UNL     1      43.887 -21.699   1.775  1.00  0.00     0.022 C 
HETATM   30  C   UNL     1      44.528 -22.148   3.076  1.00  0.00     0.007 C 
ENDBRANCH  28  29
ENDBRANCH  27  28
ENDBRANCH  24  27
ENDBRANCH   1  21
TORSDOF 8
ENDMDL
MODEL 4
REMARK VINA RESULT:      -7.8      1.287      1.800
REMARK  8 active torsions:
REMARK  status: ('A' for Active; 'I' for Inactive)
REMARK    1  A    between atoms: C_2  and  C_3 
REMARK    2  A    between atoms: C_3  and  O_4 
REMARK    3  A    between atoms: O_4  and  C_5 
REMARK    4  A    between atoms: C_8  and  C_9 
REMARK    5  A    between atoms: C_13  and  C_14 
REMARK       I    between atoms: C_14  and  N_15 
REMARK    6  A    between atoms: N_15  and  N_16 
REMARK    7  A    between atoms: C_17  and  C_18 
REMARK    8  A    between atoms: C_19  and  O_20 
ROOT
HETATM    1  C   UNL     1      44.342 -10.927  10.086  1.00  0.00     0.089 A 
HETATM    2  N   UNL     1      45.565 -10.546   9.687  1.00  0.00    -0.174 NA
HETATM    3  N   UNL     1      45.928 -11.464   8.779  1.00  0.00    -0.272 N 
HETATM    4  H   UNL     1      46.837 -11.385   8.333  1.00  0.00     0.189 HD
HETATM    5  C   UNL     1      44.974 -12.413   8.529  1.00  0.00     0.121 A 
HETATM    6  C   UNL     1      43.941 -12.101   9.390  1.00  0.00     0.071 A 
ENDROOT
BRANCH   5   7
HETATM    7  C   UNL     1      45.173 -13.434   7.532  1.00  0.00     0.289 C 
HETATM    8  N   UNL     1      44.276 -14.490   7.601  1.00  0.00    -0.242 N 
HETATM    9  H   UNL     1      43.548 -14.496   8.302  1.00  0.00     0.192 HD
HETATM   10  O   UNL     1      46.058 -13.340   6.686  1.00  0.00    -0.264 OA
BRANCH   8  11
HETATM   11  N   UNL     1      44.307 -15.479   6.662  1.00  0.00    -0.183 NA
HETATM   12  C   UNL     1      43.369 -15.433   5.770  1.00  0.00     0.153 C 
BRANCH  12  13
HETATM   13  C   UNL     1      43.300 -16.428   4.683  1.00  0.00     0.016 A 
HETATM   14  C   UNL     1      43.211 -17.801   4.932  1.00  0.00     0.077 A 
HETATM   15  C   UNL     1      43.160 -18.703   3.872  1.00  0.00     0.037 A 
HETATM   16  C   UNL     1      43.198 -18.236   2.557  1.00  0.00     0.003 A 
HETATM   17  C   UNL     1      43.287 -16.868   2.303  1.00  0.00     0.001 A 
HETATM   18  C   UNL     1      43.338 -15.960   3.363  1.00  0.00     0.016 A 
BRANCH  14  19
HETATM   19  O   UNL     1      43.172 -18.339   6.190  1.00  0.00    -0.360 OA
HETATM   20  H   UNL     1      43.122 -19.319   6.109  1.00  0.00     0.217 HD
ENDBRANCH  14  19
ENDBRANCH  12  13
ENDBRANCH   8  11
ENDBRANCH   5   7
BRANCH   1  21
HETATM   21  C   UNL     1      43.571 -10.164  11.068  1.00  0.00    -0.005 A 
HETATM   22  C   UNL     1      42.417  -9.470  10.680  1.00  0.00     0.016 A 
HETATM   23  C   UNL     1      41.633  -8.795  11.623  1.00  0.00     0.037 A 
HETATM   24  C   UNL     1      41.997  -8.806  12.969  1.00  0.00     0.068 A 
HETATM   25  C   UNL     1      43.170  -9.453  13.355  1.00  0.00     0.037 A 
HETATM   26  C   UNL     1      43.950 -10.136  12.417  1.00  0.00     0.016 A 
BRANCH  24  27
HETATM   27  O   UNL     1      41.304  -8.203  13.980  1.00  0.00    -0.351 OA
BRANCH  27  28
HETATM   28  C   UNL     1      41.588  -8.681  15.297  1.00  0.00     0.175 C 
BRANCH  28  29
HETATM   29  C   UNL     1      40.763  -7.855  16.279  1.00  0.00     0.022 C 
HETATM   30  C   UNL     1      39.409  -7.475  15.704  1.00  0.00     0.007 C 
ENDBRANCH  28  29
ENDBRANCH  27  28
ENDBRANCH  24  27
ENDBRANCH   1  21
TORSDOF 8
ENDMDL
MODEL 5
REMARK VINA RESULT:      -7.4      9.964     12.806
REMARK  8 active torsions:
REMARK  status: ('A' for Active; 'I' for Inactive)
REMARK    1  A    between atoms: C_2  and  C_3 
REMARK    2  A    between atoms: C_3  and  O_4 
REMARK    3  A    between atoms: O_4  and  C_5 
REMARK    4  A    between atoms: C_8  and  C_9 
REMARK    5  A    between atoms: C_13  and  C_14 
REMARK       I    between atoms: C_14  and  N_15 
REMARK    6  A    between atoms: N_15  and  N_16 
REMARK    7  A    between atoms: C_17  and  C_18 
REMARK    8  A    between atoms: C_19  and  O_20 
ROOT
HETATM    1  C   UNL     1      41.724 -16.983   1.675  1.00  0.00     0.089 A 
HETATM    2  N   UNL     1      40.394 -16.970   1.850  1.00  0.00    -0.174 NA
HETATM    3  N   UNL     1      39.965 -15.931   1.116  1.00  0.00    -0.272 N 
HETATM    4  H   UNL     1      38.972 -15.717   1.098  1.00  0.00     0.189 HD
HETATM    5  C   UNL     1      40.954 -15.285   0.429  1.00  0.00     0.121 A 
HETATM    6  C   UNL     1      42.116 -15.933   0.797  1.00  0.00     0.071 A 
ENDROOT
BRANCH   5   7
HETATM    7  C   UNL     1      40.659 -14.189  -0.461  1.00  0.00     0.289 C 
HETATM    8  N   UNL     1      41.775 -13.518  -0.940  1.00  0.00    -0.242 N 
HETATM    9  H   UNL     1      42.703 -13.816  -0.673  1.00  0.00     0.192 HD
HETATM   10  O   UNL     1      39.504 -13.909  -0.772  1.00  0.00    -0.264 OA
BRANCH   8  11
HETATM   11  N   UNL     1      41.632 -12.516  -1.854  1.00  0.00    -0.183 NA
HETATM   12  C   UNL     1      42.522 -11.576  -1.797  1.00  0.00     0.153 C 
BRANCH  12  13
HETATM   13  C   UNL     1      42.499 -10.445  -2.743  1.00  0.00     0.016 A 
HETATM   14  C   UNL     1      42.492 -10.630  -4.130  1.00  0.00     0.077 A 
HETATM   15  C   UNL     1      42.482  -9.530  -4.983  1.00  0.00     0.037 A 
HETATM   16  C   UNL     1      42.480  -8.238  -4.454  1.00  0.00     0.003 A 
HETATM   17  C   UNL     1      42.487  -8.047  -3.073  1.00  0.00     0.001 A 
HETATM   18  C   UNL     1      42.497  -9.148  -2.214  1.00  0.00     0.016 A 
BRANCH  14  19
HETATM   19  O   UNL     1      42.497 -11.862  -4.726  1.00  0.00    -0.360 OA
HETATM   20  H   UNL     1      42.539 -12.549  -4.022  1.00  0.00     0.217 HD
ENDBRANCH  14  19
ENDBRANCH  12  13
ENDBRANCH   8  11
ENDBRANCH   5   7
BRANCH   1  21
HETATM   21  C   UNL     1      42.581 -17.995   2.294  1.00  0.00    -0.005 A 
HETATM   22  C   UNL     1      42.849 -19.199   1.630  1.00  0.00     0.016 A 
HETATM   23  C   UNL     1      43.722 -20.145   2.181  1.00  0.00     0.037 A 
HETATM   24  C   UNL     1      44.337 -19.895   3.407  1.00  0.00     0.068 A 
HETATM   25  C   UNL     1      44.037 -18.720   4.096  1.00  0.00     0.037 A 
HETATM   26  C   UNL     1      43.172 -17.771   3.544  1.00  0.00     0.016 A 
BRANCH  24  27
HETATM   27  O   UNL     1      45.220 -20.729   4.033  1.00  0.00    -0.351 OA
BRANCH  27  28
HETATM   28  C   UNL     1      44.707 -22.010   4.403  1.00  0.00     0.175 C 
BRANCH  28  29
HETATM   29  C   UNL     1      44.826 -22.139   5.919  1.00  0.00     0.022 C 
HETATM   30  C   UNL     1      43.728 -21.377   6.641  1.00  0.00     0.007 C 
ENDBRANCH  28  29
ENDBRANCH  27  28
ENDBRANCH  24  27
ENDBRANCH   1  21
TORSDOF 8
ENDMDL
MODEL 6
REMARK VINA RESULT:      -7.4      1.621      2.399
REMARK  8 active torsions:
REMARK  status: ('A' for Active; 'I' for Inactive)
REMARK    1  A    between atoms: C_2  and  C_3 
REMARK    2  A    between atoms: C_3  and  O_4 
REMARK    3  A    between atoms: O_4  and  C_5 
REMARK    4  A    between atoms: C_8  and  C_9 
REMARK    5  A    between atoms: C_13  and  C_14 
REMARK       I    between atoms: C_14  and  N_15 
REMARK    6  A    between atoms: N_15  and  N_16 
REMARK    7  A    between atoms: C_17  and  C_18 
REMARK    8  A    between atoms: C_19  and  O_20 
ROOT
HETATM    1  C   UNL     1      44.135 -12.073   8.896  1.00  0.00     0.089 A 
HETATM    2  N   UNL     1      45.377 -12.580   8.925  1.00  0.00    -0.174 NA
HETATM    3  N   UNL     1      45.433 -13.398   7.863  1.00  0.00    -0.272 N 
HETATM    4  H   UNL     1      46.291 -13.909   7.678  1.00  0.00     0.189 HD
HETATM    5  C   UNL     1      44.292 -13.419   7.110  1.00  0.00     0.121 A 
HETATM    6  C   UNL     1      43.419 -12.583   7.778  1.00  0.00     0.071 A 
ENDROOT
BRANCH   5   7
HETATM    7  C   UNL     1      44.204 -14.192   5.896  1.00  0.00     0.289 C 
HETATM    8  N   UNL     1      43.791 -15.504   6.076  1.00  0.00    -0.242 N 
HETATM    9  H   UNL     1      43.565 -15.845   7.001  1.00  0.00     0.192 HD
HETATM   10  O   UNL     1      44.460 -13.697   4.802  1.00  0.00    -0.264 OA
BRANCH   8  11
HETATM   11  N   UNL     1      43.590 -16.313   4.997  1.00  0.00    -0.183 NA
HETATM   12  C   UNL     1      44.007 -17.533   5.128  1.00  0.00     0.153 C 
BRANCH  12  13
HETATM   13  C   UNL     1      43.831 -18.520   4.046  1.00  0.00     0.016 A 
HETATM   14  C   UNL     1      42.915 -18.332   3.006  1.00  0.00     0.077 A 
HETATM   15  C   UNL     1      42.776 -19.299   2.012  1.00  0.00     0.037 A 
HETATM   16  C   UNL     1      43.552 -20.458   2.055  1.00  0.00     0.003 A 
HETATM   17  C   UNL     1      44.467 -20.651   3.090  1.00  0.00     0.001 A 
HETATM   18  C   UNL     1      44.609 -19.684   4.088  1.00  0.00     0.016 A 
BRANCH  14  19
HETATM   19  O   UNL     1      42.116 -17.227   2.894  1.00  0.00    -0.360 OA
HETATM   20  H   UNL     1      41.216 -17.519   2.623  1.00  0.00     0.217 HD
ENDBRANCH  14  19
ENDBRANCH  12  13
ENDBRANCH   8  11
ENDBRANCH   5   7
BRANCH   1  21
HETATM   21  C   UNL     1      43.670 -11.098   9.885  1.00  0.00    -0.005 A 
HETATM   22  C   UNL     1      42.627 -10.216   9.574  1.00  0.00     0.016 A 
HETATM   23  C   UNL     1      42.128  -9.327  10.534  1.00  0.00     0.037 A 
HETATM   24  C   UNL     1      42.670  -9.311  11.818  1.00  0.00     0.068 A 
HETATM   25  C   UNL     1      43.741 -10.152  12.120  1.00  0.00     0.037 A 
HETATM   26  C   UNL     1      44.235 -11.046  11.166  1.00  0.00     0.016 A 
BRANCH  24  27
HETATM   27  O   UNL     1      42.255  -8.507  12.842  1.00  0.00    -0.351 OA
BRANCH  27  28
HETATM   28  C   UNL     1      41.149  -8.995  13.605  1.00  0.00     0.175 C 
BRANCH  28  29
HETATM   29  C   UNL     1      41.298  -8.467  15.029  1.00  0.00     0.022 C 
HETATM   30  C   UNL     1      42.261  -9.309  15.848  1.00  0.00     0.007 C 
ENDBRANCH  28  29
ENDBRANCH  27  28
ENDBRANCH  24  27
ENDBRANCH   1  21
TORSDOF 8
ENDMDL
MODEL 7
REMARK VINA RESULT:      -7.3      3.377     11.226
REMARK  8 active torsions:
REMARK  status: ('A' for Active; 'I' for Inactive)
REMARK    1  A    between atoms: C_2  and  C_3 
REMARK    2  A    between atoms: C_3  and  O_4 
REMARK    3  A    between atoms: O_4  and  C_5 
REMARK    4  A    between atoms: C_8  and  C_9 
REMARK    5  A    between atoms: C_13  and  C_14 
REMARK       I    between atoms: C_14  and  N_15 
REMARK    6  A    between atoms: N_15  and  N_16 
REMARK    7  A    between atoms: C_17  and  C_18 
REMARK    8  A    between atoms: C_19  and  O_20 
ROOT
HETATM    1  C   UNL     1      41.399 -12.881   4.740  1.00  0.00     0.089 A 
HETATM    2  N   UNL     1      40.453 -11.962   4.492  1.00  0.00    -0.174 NA
HETATM    3  N   UNL     1      40.442 -11.183   5.585  1.00  0.00    -0.272 N 
HETATM    4  H   UNL     1      39.790 -10.406   5.631  1.00  0.00     0.189 HD
HETATM    5  C   UNL     1      41.374 -11.525   6.526  1.00  0.00     0.121 A 
HETATM    6  C   UNL     1      41.992 -12.647   6.012  1.00  0.00     0.071 A 
ENDROOT
BRANCH   5   7
HETATM    7  C   UNL     1      41.544 -10.753   7.731  1.00  0.00     0.289 C 
HETATM    8  N   UNL     1      40.864 -11.246   8.835  1.00  0.00    -0.242 N 
HETATM    9  H   UNL     1      40.314 -12.091   8.759  1.00  0.00     0.192 HD
HETATM   10  O   UNL     1      42.260  -9.755   7.756  1.00  0.00    -0.264 OA
BRANCH   8  11
HETATM   11  N   UNL     1      41.010 -10.651  10.053  1.00  0.00    -0.183 NA
HETATM   12  C   UNL     1      41.930 -11.155  10.814  1.00  0.00     0.153 C 
BRANCH  12  13
HETATM   13  C   UNL     1      42.210 -10.592  12.148  1.00  0.00     0.016 A 
HETATM   14  C   UNL     1      41.414 -10.880  13.263  1.00  0.00     0.077 A 
HETATM   15  C   UNL     1      41.712 -10.314  14.500  1.00  0.00     0.037 A 
HETATM   16  C   UNL     1      42.806  -9.458  14.629  1.00  0.00     0.003 A 
HETATM   17  C   UNL     1      43.603  -9.167  13.522  1.00  0.00     0.001 A 
HETATM   18  C   UNL     1      43.308  -9.732  12.280  1.00  0.00     0.016 A 
BRANCH  14  19
HETATM   19  O   UNL     1      40.324 -11.706  13.218  1.00  0.00    -0.360 OA
HETATM   20  H   UNL     1      40.126 -11.910  12.275  1.00  0.00     0.217 HD
ENDBRANCH  14  19
ENDBRANCH  12  13
ENDBRANCH   8  11
ENDBRANCH   5   7
BRANCH   1  21
HETATM   21  C   UNL     1      41.748 -13.919   3.769  1.00  0.00    -0.005 A 
HETATM   22  C   UNL     1      40.749 -14.558   3.023  1.00  0.00     0.016 A 
HETATM   23  C   UNL     1      41.078 -15.502   2.043  1.00  0.00     0.037 A 
HETATM   24  C   UNL     1      42.413 -15.820   1.799  1.00  0.00     0.068 A 
HETATM   25  C   UNL     1      43.410 -15.224   2.572  1.00  0.00     0.037 A 
HETATM   26  C   UNL     1      43.085 -14.274   3.545  1.00  0.00     0.016 A 
BRANCH  24  27
HETATM   27  O   UNL     1      42.857 -16.706   0.859  1.00  0.00    -0.351 OA
BRANCH  27  28
HETATM   28  C   UNL     1      43.900 -17.587   1.281  1.00  0.00     0.175 C 
BRANCH  28  29
HETATM   29  C   UNL     1      43.247 -18.806   1.927  1.00  0.00     0.022 C 
HETATM   30  C   UNL     1      44.082 -19.358   3.068  1.00  0.00     0.007 C 
ENDBRANCH  28  29
ENDBRANCH  27  28
ENDBRANCH  24  27
ENDBRANCH   1  21
TORSDOF 8
ENDMDL
MODEL 8
REMARK VINA RESULT:      -7.3      3.069      4.146
REMARK  8 active torsions:
REMARK  status: ('A' for Active; 'I' for Inactive)
REMARK    1  A    between atoms: C_2  and  C_3 
REMARK    2  A    between atoms: C_3  and  O_4 
REMARK    3  A    between atoms: O_4  and  C_5 
REMARK    4  A    between atoms: C_8  and  C_9 
REMARK    5  A    between atoms: C_13  and  C_14 
REMARK       I    between atoms: C_14  and  N_15 
REMARK    6  A    between atoms: N_15  and  N_16 
REMARK    7  A    between atoms: C_17  and  C_18 
REMARK    8  A    between atoms: C_19  and  O_20 
ROOT
HETATM    1  C   UNL     1      41.757 -11.589   6.403  1.00  0.00     0.089 A 
HETATM    2  N   UNL     1      41.458 -11.030   5.221  1.00  0.00    -0.174 NA
HETATM    3  N   UNL     1      41.935 -11.892   4.309  1.00  0.00    -0.272 N 
HETATM    4  H   UNL     1      41.828 -11.675   3.322  1.00  0.00     0.189 HD
HETATM    5  C   UNL     1      42.498 -13.018   4.842  1.00  0.00     0.121 A 
HETATM    6  C   UNL     1      42.419 -12.833   6.208  1.00  0.00     0.071 A 
ENDROOT
BRANCH   5   7
HETATM    7  C   UNL     1      42.998 -14.079   4.004  1.00  0.00     0.289 C 
HETATM    8  N   UNL     1      42.698 -15.357   4.449  1.00  0.00    -0.242 N 
HETATM    9  H   UNL     1      42.156 -15.490   5.292  1.00  0.00     0.192 HD
HETATM   10  O   UNL     1      43.618 -13.840   2.970  1.00  0.00    -0.264 OA
BRANCH   8  11
HETATM   11  N   UNL     1      43.045 -16.443   3.700  1.00  0.00    -0.183 NA
HETATM   12  C   UNL     1      43.253 -17.536   4.363  1.00  0.00     0.153 C 
BRANCH  12  13
HETATM   13  C   UNL     1      43.611 -18.791   3.674  1.00  0.00     0.016 A 
HETATM   14  C   UNL     1      43.076 -19.138   2.429  1.00  0.00     0.077 A 
HETATM   15  C   UNL     1      43.436 -20.339   1.823  1.00  0.00     0.037 A 
HETATM   16  C   UNL     1      44.332 -21.199   2.459  1.00  0.00     0.003 A 
HETATM   17  C   UNL     1      44.868 -20.859   3.701  1.00  0.00     0.001 A 
HETATM   18  C   UNL     1      44.510 -19.655   4.312  1.00  0.00     0.016 A 
BRANCH  14  19
HETATM   19  O   UNL     1      42.191 -18.352   1.742  1.00  0.00    -0.360 OA
HETATM   20  H   UNL     1      41.839 -17.669   2.357  1.00  0.00     0.217 HD
ENDBRANCH  14  19
ENDBRANCH  12  13
ENDBRANCH   8  11
ENDBRANCH   5   7
BRANCH   1  21
HETATM   21  C   UNL     1      41.379 -10.969   7.674  1.00  0.00    -0.005 A 
HETATM   22  C   UNL     1      40.032 -10.895   8.054  1.00  0.00     0.016 A 
HETATM   23  C   UNL     1      39.665 -10.367   9.298  1.00  0.00     0.037 A 
HETATM   24  C   UNL     1      40.643  -9.906  10.177  1.00  0.00     0.068 A 
HETATM   25  C   UNL     1      41.982  -9.932   9.786  1.00  0.00     0.037 A 
HETATM   26  C   UNL     1      42.352 -10.467   8.548  1.00  0.00     0.016 A 
BRANCH  24  27
HETATM   27  O   UNL     1      40.410  -9.391  11.421  1.00  0.00    -0.351 OA
BRANCH  27  28
HETATM   28  C   UNL     1      41.520  -9.417  12.321  1.00  0.00     0.175 C 
BRANCH  28  29
HETATM   29  C   UNL     1      41.220 -10.454  13.399  1.00  0.00     0.022 C 
HETATM   30  C   UNL     1      41.690  -9.998  14.770  1.00  0.00     0.007 C 
ENDBRANCH  28  29
ENDBRANCH  27  28
ENDBRANCH  24  27
ENDBRANCH   1  21
TORSDOF 8
ENDMDL
MODEL 9
REMARK VINA RESULT:      -7.2      3.286      4.513
REMARK  8 active torsions:
REMARK  status: ('A' for Active; 'I' for Inactive)
REMARK    1  A    between atoms: C_2  and  C_3 
REMARK    2  A    between atoms: C_3  and  O_4 
REMARK    3  A    between atoms: O_4  and  C_5 
REMARK    4  A    between atoms: C_8  and  C_9 
REMARK    5  A    between atoms: C_13  and  C_14 
REMARK       I    between atoms: C_14  and  N_15 
REMARK    6  A    between atoms: N_15  and  N_16 
REMARK    7  A    between atoms: C_17  and  C_18 
REMARK    8  A    between atoms: C_19  and  O_20 
ROOT
HETATM    1  C   UNL     1      41.589 -11.759   6.183  1.00  0.00     0.089 A 
HETATM    2  N   UNL     1      41.479 -11.147   4.995  1.00  0.00    -0.174 NA
HETATM    3  N   UNL     1      42.025 -12.004   4.120  1.00  0.00    -0.272 N 
HETATM    4  H   UNL     1      42.061 -11.751   3.137  1.00  0.00     0.189 HD
HETATM    5  C   UNL     1      42.453 -13.178   4.677  1.00  0.00     0.121 A 
HETATM    6  C   UNL     1      42.205 -13.032   6.027  1.00  0.00     0.071 A 
ENDROOT
BRANCH   5   7
HETATM    7  C   UNL     1      43.002 -14.238   3.870  1.00  0.00     0.289 C 
HETATM    8  N   UNL     1      42.826 -15.511   4.391  1.00  0.00    -0.242 N 
HETATM    9  H   UNL     1      42.333 -15.642   5.264  1.00  0.00     0.192 HD
HETATM   10  O   UNL     1      43.557 -14.006   2.799  1.00  0.00    -0.264 OA
BRANCH   8  11
HETATM   11  N   UNL     1      43.229 -16.604   3.682  1.00  0.00    -0.183 NA
HETATM   12  C   UNL     1      43.251 -17.721   4.339  1.00  0.00     0.153 C 
BRANCH  12  13
HETATM   13  C   UNL     1      43.644 -18.983   3.686  1.00  0.00     0.016 A 
HETATM   14  C   UNL     1      44.421 -19.950   4.334  1.00  0.00     0.077 A 
HETATM   15  C   UNL     1      44.776 -21.122   3.672  1.00  0.00     0.037 A 
HETATM   16  C   UNL     1      44.357 -21.334   2.357  1.00  0.00     0.003 A 
HETATM   17  C   UNL     1      43.583 -20.374   1.706  1.00  0.00     0.001 A 
HETATM   18  C   UNL     1      43.224 -19.197   2.367  1.00  0.00     0.016 A 
BRANCH  14  19
HETATM   19  O   UNL     1      44.872 -19.816   5.619  1.00  0.00    -0.360 OA
HETATM   20  H   UNL     1      45.677 -19.249   5.609  1.00  0.00     0.217 HD
ENDBRANCH  14  19
ENDBRANCH  12  13
ENDBRANCH   8  11
ENDBRANCH   5   7
BRANCH   1  21
HETATM   21  C   UNL     1      41.080 -11.159   7.418  1.00  0.00    -0.005 A 
HETATM   22  C   UNL     1      39.712 -11.205   7.718  1.00  0.00     0.016 A 
HETATM   23  C   UNL     1      39.224 -10.697   8.927  1.00  0.00     0.037 A 
HETATM   24  C   UNL     1      40.102 -10.134   9.852  1.00  0.00     0.068 A 
HETATM   25  C   UNL     1      41.458 -10.040   9.540  1.00  0.00     0.037 A 
HETATM   26  C   UNL     1      41.949 -10.555   8.336  1.00  0.00     0.016 A 
BRANCH  24  27
HETATM   27  O   UNL     1      39.748  -9.625  11.070  1.00  0.00    -0.351 OA
BRANCH  27  28
HETATM   28  C   UNL     1      40.104 -10.421  12.202  1.00  0.00     0.175 C 
BRANCH  28  29
HETATM   29  C   UNL     1      40.805  -9.513  13.208  1.00  0.00     0.022 C 
HETATM   30  C   UNL     1      41.815 -10.272  14.050  1.00  0.00     0.007 C 
ENDBRANCH  28  29
ENDBRANCH  27  28
ENDBRANCH  24  27
ENDBRANCH   1  21
TORSDOF 8
ENDMDL
MODEL 10
REMARK VINA RESULT:      -7.2      2.911     11.024
REMARK  8 active torsions:
REMARK  status: ('A' for Active; 'I' for Inactive)
REMARK    1  A    between atoms: C_2  and  C_3 
REMARK    2  A    between atoms: C_3  and  O_4 
REMARK    3  A    between atoms: O_4  and  C_5 
REMARK    4  A    between atoms: C_8  and  C_9 
REMARK    5  A    between atoms: C_13  and  C_14 
REMARK       I    between atoms: C_14  and  N_15 
REMARK    6  A    between atoms: N_15  and  N_16 
REMARK    7  A    between atoms: C_17  and  C_18 
REMARK    8  A    between atoms: C_19  and  O_20 
ROOT
HETATM    1  C   UNL     1      43.427 -15.227   5.505  1.00  0.00     0.089 A 
HETATM    2  N   UNL     1      43.866 -16.036   6.481  1.00  0.00    -0.174 NA
HETATM    3  N   UNL     1      44.240 -15.206   7.467  1.00  0.00    -0.272 N 
HETATM    4  H   UNL     1      44.619 -15.598   8.325  1.00  0.00     0.189 HD
HETATM    5  C   UNL     1      44.026 -13.883   7.197  1.00  0.00     0.121 A 
HETATM    6  C   UNL     1      43.521 -13.867   5.912  1.00  0.00     0.071 A 
ENDROOT
BRANCH   5   7
HETATM    7  C   UNL     1      44.308 -12.861   8.174  1.00  0.00     0.289 C 
HETATM    8  N   UNL     1      43.349 -11.862   8.259  1.00  0.00    -0.242 N 
HETATM    9  H   UNL     1      42.525 -11.895   7.674  1.00  0.00     0.192 HD
HETATM   10  O   UNL     1      45.314 -12.907   8.877  1.00  0.00    -0.264 OA
BRANCH   8  11
HETATM   11  N   UNL     1      43.460 -10.883   9.201  1.00  0.00    -0.183 NA
HETATM   12  C   UNL     1      42.672 -10.998  10.223  1.00  0.00     0.153 C 
BRANCH  12  13
HETATM   13  C   UNL     1      42.706 -10.021  11.328  1.00  0.00     0.016 A 
HETATM   14  C   UNL     1      42.089  -8.769  11.236  1.00  0.00     0.077 A 
HETATM   15  C   UNL     1      42.158  -7.875  12.302  1.00  0.00     0.037 A 
HETATM   16  C   UNL     1      42.845  -8.228  13.464  1.00  0.00     0.003 A 
HETATM   17  C   UNL     1      43.463  -9.475  13.561  1.00  0.00     0.001 A 
HETATM   18  C   UNL     1      43.396 -10.374  12.494  1.00  0.00     0.016 A 
BRANCH  14  19
HETATM   19  O   UNL     1      41.399  -8.347  10.132  1.00  0.00    -0.360 OA
HETATM   20  H   UNL     1      40.621  -7.825  10.432  1.00  0.00     0.217 HD
ENDBRANCH  14  19
ENDBRANCH  12  13
ENDBRANCH   8  11
ENDBRANCH   5   7
BRANCH   1  21
HETATM   21  C   UNL     1      42.895 -15.746   4.245  1.00  0.00    -0.005 A 
HETATM   22  C   UNL     1      41.649 -16.387   4.210  1.00  0.00     0.016 A 
HETATM   23  C   UNL     1      41.099 -16.825   3.000  1.00  0.00     0.037 A 
HETATM   24  C   UNL     1      41.793 -16.628   1.807  1.00  0.00     0.068 A 
HETATM   25  C   UNL     1      43.055 -16.036   1.839  1.00  0.00     0.037 A 
HETATM   26  C   UNL     1      43.602 -15.589   3.045  1.00  0.00     0.016 A 
BRANCH  24  27
HETATM   27  O   UNL     1      41.351 -16.993   0.566  1.00  0.00    -0.351 OA
BRANCH  27  28
HETATM   28  C   UNL     1      41.394 -15.970  -0.432  1.00  0.00     0.175 C 
BRANCH  28  29
HETATM   29  C   UNL     1      40.408 -14.880  -0.023  1.00  0.00     0.022 C 
HETATM   30  C   UNL     1      41.062 -13.510   0.016  1.00  0.00     0.007 C 
ENDBRANCH  28  29
ENDBRANCH  27  28
ENDBRANCH  24  27
ENDBRANCH   1  21
TORSDOF 8
ENDMDL
