MODEL 1
REMARK VINA RESULT:      -9.0      0.000      0.000
REMARK  4 active torsions:
REMARK  status: ('A' for Active; 'I' for Inactive)
REMARK    1  A    between atoms: C_8  and  C_9 
REMARK    2  A    between atoms: C_12  and  N_13 
REMARK       I    between atoms: N_13  and  C_14 
REMARK    3  A    between atoms: C_14  and  C_15 
REMARK    4  A    between atoms: C_18  and  N_19 
ROOT
HETATM    1  C   UNL     1      41.344 -12.571  -3.116  1.00  0.00     0.010 A 
HETATM    2  C   UNL     1      41.925 -12.225  -1.890  1.00  0.00     0.017 A 
HETATM    3  C   UNL     1      42.118 -13.188  -0.887  1.00  0.00     0.030 A 
HETATM    4  C   UNL     1      41.738 -14.514  -1.091  1.00  0.00     0.035 A 
HETATM    5  C   UNL     1      41.108 -14.854  -2.292  1.00  0.00     0.030 A 
HETATM    6  C   UNL     1      40.913 -13.892  -3.291  1.00  0.00     0.017 A 
ENDROOT
BRANCH   4   7
HETATM    7  N   UNL     1      41.996 -15.562  -0.181  1.00  0.00    -0.323 N 
HETATM    8  C   UNL     1      42.088 -15.468   1.197  1.00  0.00     0.256 C 
HETATM    9  O   UNL     1      41.842 -14.481   1.881  1.00  0.00    -0.267 OA
HETATM   10  H   UNL     1      42.264 -16.439  -0.606  1.00  0.00     0.169 HD
BRANCH   8  11
HETATM   11  C   UNL     1      42.612 -16.686   1.881  1.00  0.00     0.032 A 
HETATM   12  C   UNL     1      41.989 -17.266   2.985  1.00  0.00     0.019 A 
HETATM   13  C   UNL     1      42.495 -18.456   3.536  1.00  0.00     0.031 A 
HETATM   14  C   UNL     1      43.634 -19.095   3.012  1.00  0.00     0.045 A 
HETATM   15  C   UNL     1      44.267 -18.466   1.928  1.00  0.00     0.031 A 
HETATM   16  C   UNL     1      43.768 -17.279   1.372  1.00  0.00     0.019 A 
BRANCH  14  17
HETATM   17  N   UNL     1      44.118 -20.333   3.550  1.00  0.00    -0.252 N 
HETATM   18  C   UNL     1      44.189 -21.517   2.845  1.00  0.00     0.231 C 
HETATM   19  O   UNL     1      43.941 -21.740   1.669  1.00  0.00    -0.273 OA
HETATM   20  C   UNL     1      44.640 -22.610   3.766  1.00  0.00     0.113 C 
HETATM   21  C   UNL     1      45.171 -21.878   4.967  1.00  0.00     0.113 C 
HETATM   22  C   UNL     1      44.603 -20.498   4.830  1.00  0.00     0.231 C 
HETATM   23  O   UNL     1      44.627 -19.709   5.765  1.00  0.00    -0.273 OA
ENDBRANCH  14  17
ENDBRANCH   8  11
ENDBRANCH   4   7
BRANCH   1  24
HETATM   24  C   UNL     1      41.213 -11.626  -4.231  1.00  0.00     0.139 A 
HETATM   25  N   UNL     1      40.021 -11.292  -4.837  1.00  0.00    -0.338 N 
HETATM   26  C   UNL     1      40.248 -10.298  -5.752  1.00  0.00     0.063 A 
HETATM   27  H   UNL     1      39.117 -11.674  -4.606  1.00  0.00     0.167 HD
HETATM   28  C   UNL     1      41.617 -10.087  -5.690  1.00  0.00     0.086 A 
HETATM   29  C   UNL     1      39.399  -9.579  -6.593  1.00  0.00     0.032 A 
HETATM   30  C   UNL     1      42.200  -9.108  -6.507  1.00  0.00     0.040 A 
HETATM   31  N   UNL     1      42.196 -10.917  -4.762  1.00  0.00    -0.228 NA
HETATM   32  C   UNL     1      41.378  -8.360  -7.369  1.00  0.00    -0.060 A 
HETATM   33  C   UNL     1      41.966  -7.276  -8.225  1.00  0.00     0.048 C 
HETATM   34  C   UNL     1      39.995  -8.599  -7.397  1.00  0.00     0.009 A 
ENDBRANCH   1  24
TORSDOF 4
ENDMDL
MODEL 2
REMARK VINA RESULT:      -8.8      2.418      3.655
REMARK  4 active torsions:
REMARK  status: ('A' for Active; 'I' for Inactive)
REMARK    1  A    between atoms: C_8  and  C_9 
REMARK    2  A    between atoms: C_12  and  N_13 
REMARK       I    between atoms: N_13  and  C_14 
REMARK    3  A    between atoms: C_14  and  C_15 
REMARK    4  A    between atoms: C_18  and  N_19 
ROOT
HETATM    1  C   UNL     1      38.795 -13.270  -2.871  1.00  0.00     0.010 A 
HETATM    2  C   UNL     1      39.806 -14.068  -3.419  1.00  0.00     0.017 A 
HETATM    3  C   UNL     1      40.543 -14.951  -2.615  1.00  0.00     0.030 A 
HETATM    4  C   UNL     1      40.282 -15.056  -1.249  1.00  0.00     0.035 A 
HETATM    5  C   UNL     1      39.311 -14.224  -0.686  1.00  0.00     0.030 A 
HETATM    6  C   UNL     1      38.578 -13.340  -1.488  1.00  0.00     0.017 A 
ENDROOT
BRANCH   4   7
HETATM    7  N   UNL     1      40.899 -15.995  -0.394  1.00  0.00    -0.323 N 
HETATM    8  C   UNL     1      41.897 -15.751   0.533  1.00  0.00     0.256 C 
HETATM    9  O   UNL     1      42.339 -14.657   0.862  1.00  0.00    -0.267 OA
HETATM   10  H   UNL     1      40.664 -16.960  -0.582  1.00  0.00     0.169 HD
BRANCH   8  11
HETATM   11  C   UNL     1      42.529 -16.970   1.118  1.00  0.00     0.032 A 
HETATM   12  C   UNL     1      43.902 -17.091   1.324  1.00  0.00     0.019 A 
HETATM   13  C   UNL     1      44.423 -18.237   1.948  1.00  0.00     0.031 A 
HETATM   14  C   UNL     1      43.599 -19.294   2.376  1.00  0.00     0.045 A 
HETATM   15  C   UNL     1      42.224 -19.165   2.118  1.00  0.00     0.031 A 
HETATM   16  C   UNL     1      41.696 -18.024   1.496  1.00  0.00     0.019 A 
BRANCH  14  17
HETATM   17  N   UNL     1      44.131 -20.439   3.054  1.00  0.00    -0.252 N 
HETATM   18  C   UNL     1      44.583 -20.438   4.358  1.00  0.00     0.231 C 
HETATM   19  O   UNL     1      44.563 -19.540   5.188  1.00  0.00    -0.273 OA
HETATM   20  C   UNL     1      45.164 -21.781   4.679  1.00  0.00     0.113 C 
HETATM   21  C   UNL     1      44.674 -22.664   3.564  1.00  0.00     0.113 C 
HETATM   22  C   UNL     1      44.235 -21.700   2.505  1.00  0.00     0.231 C 
HETATM   23  O   UNL     1      44.015 -22.075   1.361  1.00  0.00    -0.273 OA
ENDBRANCH  14  17
ENDBRANCH   8  11
ENDBRANCH   4   7
BRANCH   1  24
HETATM   24  C   UNL     1      37.931 -12.407  -3.684  1.00  0.00     0.139 A 
HETATM   25  N   UNL     1      38.371 -11.320  -4.408  1.00  0.00    -0.338 N 
HETATM   26  C   UNL     1      37.328 -10.819  -5.142  1.00  0.00     0.063 A 
HETATM   27  H   UNL     1      39.320 -10.980  -4.441  1.00  0.00     0.167 HD
HETATM   28  C   UNL     1      36.254 -11.625  -4.795  1.00  0.00     0.086 A 
HETATM   29  C   UNL     1      37.237  -9.774  -6.061  1.00  0.00     0.032 A 
HETATM   30  C   UNL     1      35.002 -11.392  -5.382  1.00  0.00     0.040 A 
HETATM   31  N   UNL     1      36.636 -12.585  -3.891  1.00  0.00    -0.228 NA
HETATM   32  C   UNL     1      34.868 -10.347  -6.314  1.00  0.00    -0.060 A 
HETATM   33  C   UNL     1      33.551 -10.101  -6.991  1.00  0.00     0.048 C 
HETATM   34  C   UNL     1      35.981  -9.559  -6.645  1.00  0.00     0.009 A 
ENDBRANCH   1  24
TORSDOF 4
ENDMDL
MODEL 3
REMARK VINA RESULT:      -8.8      0.371      1.782
REMARK  4 active torsions:
REMARK  status: ('A' for Active; 'I' for Inactive)
REMARK    1  A    between atoms: C_8  and  C_9 
REMARK    2  A    between atoms: C_12  and  N_13 
REMARK       I    between atoms: N_13  and  C_14 
REMARK    3  A    between atoms: C_14  and  C_15 
REMARK    4  A    between atoms: C_18  and  N_19 
ROOT
HETATM    1  C   UNL     1      41.271 -12.431  -2.977  1.00  0.00     0.010 A 
HETATM    2  C   UNL     1      41.847 -12.150  -1.733  1.00  0.00     0.017 A 
HETATM    3  C   UNL     1      42.068 -13.169  -0.794  1.00  0.00     0.030 A 
HETATM    4  C   UNL     1      41.721 -14.489  -1.082  1.00  0.00     0.035 A 
HETATM    5  C   UNL     1      41.096 -14.767  -2.301  1.00  0.00     0.030 A 
HETATM    6  C   UNL     1      40.873 -13.749  -3.236  1.00  0.00     0.017 A 
ENDROOT
BRANCH   4   7
HETATM    7  N   UNL     1      42.009 -15.586  -0.242  1.00  0.00    -0.323 N 
HETATM    8  C   UNL     1      41.763 -15.685   1.117  1.00  0.00     0.256 C 
HETATM    9  O   UNL     1      41.143 -14.886   1.809  1.00  0.00    -0.267 OA
HETATM   10  H   UNL     1      42.566 -16.314  -0.667  1.00  0.00     0.169 HD
BRANCH   8  11
HETATM   11  C   UNL     1      42.394 -16.857   1.791  1.00  0.00     0.032 A 
HETATM   12  C   UNL     1      42.011 -17.306   3.054  1.00  0.00     0.019 A 
HETATM   13  C   UNL     1      42.596 -18.461   3.599  1.00  0.00     0.031 A 
HETATM   14  C   UNL     1      43.579 -19.196   2.911  1.00  0.00     0.045 A 
HETATM   15  C   UNL     1      43.977 -18.697   1.660  1.00  0.00     0.031 A 
HETATM   16  C   UNL     1      43.398 -17.545   1.108  1.00  0.00     0.019 A 
BRANCH  14  17
HETATM   17  N   UNL     1      44.138 -20.399   3.453  1.00  0.00    -0.252 N 
HETATM   18  C   UNL     1      44.689 -20.509   4.713  1.00  0.00     0.231 C 
HETATM   19  O   UNL     1      44.751 -19.681   5.611  1.00  0.00    -0.273 OA
HETATM   20  C   UNL     1      45.264 -21.883   4.881  1.00  0.00     0.113 C 
HETATM   21  C   UNL     1      44.672 -22.666   3.742  1.00  0.00     0.113 C 
HETATM   22  C   UNL     1      44.173 -21.614   2.799  1.00  0.00     0.231 C 
HETATM   23  O   UNL     1      43.857 -21.892   1.650  1.00  0.00    -0.273 OA
ENDBRANCH  14  17
ENDBRANCH   8  11
ENDBRANCH   4   7
BRANCH   1  24
HETATM   24  C   UNL     1      41.112 -11.420  -4.029  1.00  0.00     0.139 A 
HETATM   25  N   UNL     1      42.154 -10.738  -4.621  1.00  0.00    -0.338 N 
HETATM   26  C   UNL     1      41.660  -9.965  -5.640  1.00  0.00     0.063 A 
HETATM   27  H   UNL     1      43.129 -10.833  -4.384  1.00  0.00     0.167 HD
HETATM   28  C   UNL     1      40.292 -10.188  -5.601  1.00  0.00     0.086 A 
HETATM   29  C   UNL     1      42.274  -9.129  -6.572  1.00  0.00     0.032 A 
HETATM   30  C   UNL     1      39.464  -9.547  -6.533  1.00  0.00     0.040 A 
HETATM   31  N   UNL     1      39.971 -11.072  -4.600  1.00  0.00    -0.228 NA
HETATM   32  C   UNL     1      40.044  -8.695  -7.489  1.00  0.00    -0.060 A 
HETATM   33  C   UNL     1      39.188  -8.027  -8.527  1.00  0.00     0.048 C 
HETATM   34  C   UNL     1      41.434  -8.502  -7.501  1.00  0.00     0.009 A 
ENDBRANCH   1  24
TORSDOF 4
ENDMDL
MODEL 4
REMARK VINA RESULT:      -8.6      4.416     12.533
REMARK  4 active torsions:
REMARK  status: ('A' for Active; 'I' for Inactive)
REMARK    1  A    between atoms: C_8  and  C_9 
REMARK    2  A    between atoms: C_12  and  N_13 
REMARK       I    between atoms: N_13  and  C_14 
REMARK    3  A    between atoms: C_14  and  C_15 
REMARK    4  A    between atoms: C_18  and  N_19 
ROOT
HETATM    1  C   UNL     1      41.789 -16.989   1.945  1.00  0.00     0.010 A 
HETATM    2  C   UNL     1      40.644 -16.315   2.383  1.00  0.00     0.017 A 
HETATM    3  C   UNL     1      39.893 -15.521   1.502  1.00  0.00     0.030 A 
HETATM    4  C   UNL     1      40.269 -15.391   0.165  1.00  0.00     0.035 A 
HETATM    5  C   UNL     1      41.440 -16.018  -0.265  1.00  0.00     0.030 A 
HETATM    6  C   UNL     1      42.192 -16.806   0.615  1.00  0.00     0.017 A 
ENDROOT
BRANCH   4   7
HETATM    7  N   UNL     1      39.510 -14.706  -0.808  1.00  0.00    -0.323 N 
HETATM    8  C   UNL     1      38.989 -13.427  -0.713  1.00  0.00     0.256 C 
HETATM    9  O   UNL     1      39.195 -12.617   0.183  1.00  0.00    -0.267 OA
HETATM   10  H   UNL     1      39.221 -15.268  -1.596  1.00  0.00     0.169 HD
BRANCH   8  11
HETATM   11  C   UNL     1      38.025 -13.055  -1.790  1.00  0.00     0.032 A 
HETATM   12  C   UNL     1      37.313 -11.856  -1.793  1.00  0.00     0.019 A 
HETATM   13  C   UNL     1      36.477 -11.536  -2.876  1.00  0.00     0.031 A 
HETATM   14  C   UNL     1      36.319 -12.397  -3.977  1.00  0.00     0.045 A 
HETATM   15  C   UNL     1      37.014 -13.616  -3.928  1.00  0.00     0.031 A 
HETATM   16  C   UNL     1      37.851 -13.943  -2.851  1.00  0.00     0.019 A 
BRANCH  14  17
HETATM   17  N   UNL     1      35.500 -12.043  -5.100  1.00  0.00    -0.252 N 
HETATM   18  C   UNL     1      34.231 -12.534  -5.329  1.00  0.00     0.231 C 
HETATM   19  O   UNL     1      33.544 -13.271  -4.636  1.00  0.00    -0.273 OA
HETATM   20  C   UNL     1      33.738 -12.024  -6.649  1.00  0.00     0.113 C 
HETATM   21  C   UNL     1      34.687 -10.907  -6.985  1.00  0.00     0.113 C 
HETATM   22  C   UNL     1      35.859 -11.145  -6.083  1.00  0.00     0.231 C 
HETATM   23  O   UNL     1      36.925 -10.571  -6.265  1.00  0.00    -0.273 OA
ENDBRANCH  14  17
ENDBRANCH   8  11
ENDBRANCH   4   7
BRANCH   1  24
HETATM   24  C   UNL     1      42.550 -17.908   2.799  1.00  0.00     0.139 A 
HETATM   25  N   UNL     1      42.624 -17.817   4.173  1.00  0.00    -0.338 N 
HETATM   26  C   UNL     1      43.313 -18.899   4.656  1.00  0.00     0.063 A 
HETATM   27  H   UNL     1      42.194 -17.102   4.738  1.00  0.00     0.167 HD
HETATM   28  C   UNL     1      43.671 -19.606   3.518  1.00  0.00     0.086 A 
HETATM   29  C   UNL     1      43.631 -19.313   5.949  1.00  0.00     0.032 A 
HETATM   30  C   UNL     1      44.394 -20.800   3.651  1.00  0.00     0.040 A 
HETATM   31  N   UNL     1      43.207 -18.980   2.388  1.00  0.00    -0.228 NA
HETATM   32  C   UNL     1      44.735 -21.254   4.938  1.00  0.00    -0.060 A 
HETATM   33  C   UNL     1      45.471 -22.550   5.114  1.00  0.00     0.048 C 
HETATM   34  C   UNL     1      44.346 -20.512   6.065  1.00  0.00     0.009 A 
ENDBRANCH   1  24
TORSDOF 4
ENDMDL
MODEL 5
REMARK VINA RESULT:      -8.6      4.437     12.543
REMARK  4 active torsions:
REMARK  status: ('A' for Active; 'I' for Inactive)
REMARK    1  A    between atoms: C_8  and  C_9 
REMARK    2  A    between atoms: C_12  and  N_13 
REMARK       I    between atoms: N_13  and  C_14 
REMARK    3  A    between atoms: C_14  and  C_15 
REMARK    4  A    between atoms: C_18  and  N_19 
ROOT
HETATM    1  C   UNL     1      41.714 -16.826   1.930  1.00  0.00     0.010 A 
HETATM    2  C   UNL     1      40.568 -16.147   2.361  1.00  0.00     0.017 A 
HETATM    3  C   UNL     1      39.820 -15.359   1.473  1.00  0.00     0.030 A 
HETATM    4  C   UNL     1      40.199 -15.238   0.136  1.00  0.00     0.035 A 
HETATM    5  C   UNL     1      41.371 -15.869  -0.287  1.00  0.00     0.030 A 
HETATM    6  C   UNL     1      42.120 -16.652   0.600  1.00  0.00     0.017 A 
ENDROOT
BRANCH   4   7
HETATM    7  N   UNL     1      39.443 -14.558  -0.843  1.00  0.00    -0.323 N 
HETATM    8  C   UNL     1      38.942 -13.270  -0.767  1.00  0.00     0.256 C 
HETATM    9  O   UNL     1      39.166 -12.448   0.113  1.00  0.00    -0.267 OA
HETATM   10  H   UNL     1      39.140 -15.130  -1.619  1.00  0.00     0.169 HD
BRANCH   8  11
HETATM   11  C   UNL     1      37.975 -12.903  -1.843  1.00  0.00     0.032 A 
HETATM   12  C   UNL     1      37.284 -11.693  -1.864  1.00  0.00     0.019 A 
HETATM   13  C   UNL     1      36.443 -11.379  -2.945  1.00  0.00     0.031 A 
HETATM   14  C   UNL     1      36.262 -12.258  -4.029  1.00  0.00     0.045 A 
HETATM   15  C   UNL     1      36.937 -13.488  -3.962  1.00  0.00     0.031 A 
HETATM   16  C   UNL     1      37.778 -13.808  -2.886  1.00  0.00     0.019 A 
BRANCH  14  17
HETATM   17  N   UNL     1      35.441 -11.912  -5.152  1.00  0.00    -0.252 N 
HETATM   18  C   UNL     1      35.827 -11.070  -6.174  1.00  0.00     0.231 C 
HETATM   19  O   UNL     1      36.905 -10.528  -6.372  1.00  0.00    -0.273 OA
HETATM   20  C   UNL     1      34.670 -10.864  -7.104  1.00  0.00     0.113 C 
HETATM   21  C   UNL     1      33.701 -11.950  -6.726  1.00  0.00     0.113 C 
HETATM   22  C   UNL     1      34.169 -12.398  -5.375  1.00  0.00     0.231 C 
HETATM   23  O   UNL     1      33.463 -13.097  -4.660  1.00  0.00    -0.273 OA
ENDBRANCH  14  17
ENDBRANCH   8  11
ENDBRANCH   4   7
BRANCH   1  24
HETATM   24  C   UNL     1      42.472 -17.739   2.792  1.00  0.00     0.139 A 
HETATM   25  N   UNL     1      42.518 -17.658   4.167  1.00  0.00    -0.338 N 
HETATM   26  C   UNL     1      43.213 -18.733   4.656  1.00  0.00     0.063 A 
HETATM   27  H   UNL     1      42.065 -16.955   4.730  1.00  0.00     0.167 HD
HETATM   28  C   UNL     1      43.605 -19.426   3.520  1.00  0.00     0.086 A 
HETATM   29  C   UNL     1      43.512 -19.153   5.952  1.00  0.00     0.032 A 
HETATM   30  C   UNL     1      44.344 -20.610   3.658  1.00  0.00     0.040 A 
HETATM   31  N   UNL     1      43.154 -18.797   2.386  1.00  0.00    -0.228 NA
HETATM   32  C   UNL     1      44.666 -21.068   4.948  1.00  0.00    -0.060 A 
HETATM   33  C   UNL     1      45.419 -22.354   5.128  1.00  0.00     0.048 C 
HETATM   34  C   UNL     1      44.243 -20.342   6.073  1.00  0.00     0.009 A 
ENDBRANCH   1  24
TORSDOF 4
ENDMDL
MODEL 6
REMARK VINA RESULT:      -8.6      8.255     13.083
REMARK  4 active torsions:
REMARK  status: ('A' for Active; 'I' for Inactive)
REMARK    1  A    between atoms: C_8  and  C_9 
REMARK    2  A    between atoms: C_12  and  N_13 
REMARK       I    between atoms: N_13  and  C_14 
REMARK    3  A    between atoms: C_14  and  C_15 
REMARK    4  A    between atoms: C_18  and  N_19 
ROOT
HETATM    1  C   UNL     1      40.864 -10.884   8.917  1.00  0.00     0.010 A 
HETATM    2  C   UNL     1      39.586 -11.359   8.601  1.00  0.00     0.017 A 
HETATM    3  C   UNL     1      39.237 -11.661   7.275  1.00  0.00     0.030 A 
HETATM    4  C   UNL     1      40.160 -11.500   6.242  1.00  0.00     0.035 A 
HETATM    5  C   UNL     1      41.419 -10.976   6.545  1.00  0.00     0.030 A 
HETATM    6  C   UNL     1      41.766 -10.671   7.867  1.00  0.00     0.017 A 
ENDROOT
BRANCH   4   7
HETATM    7  N   UNL     1      39.927 -11.884   4.904  1.00  0.00    -0.323 N 
HETATM    8  C   UNL     1      39.808 -13.173   4.413  1.00  0.00     0.256 C 
HETATM    9  O   UNL     1      39.764 -14.205   5.071  1.00  0.00    -0.267 OA
HETATM   10  H   UNL     1      39.981 -11.133   4.230  1.00  0.00     0.169 HD
BRANCH   8  11
HETATM   11  C   UNL     1      39.810 -13.286   2.925  1.00  0.00     0.032 A 
HETATM   12  C   UNL     1      39.785 -12.180   2.078  1.00  0.00     0.019 A 
HETATM   13  C   UNL     1      39.863 -12.356   0.686  1.00  0.00     0.031 A 
HETATM   14  C   UNL     1      39.959 -13.631   0.099  1.00  0.00     0.045 A 
HETATM   15  C   UNL     1      39.939 -14.730   0.973  1.00  0.00     0.031 A 
HETATM   16  C   UNL     1      39.862 -14.562   2.364  1.00  0.00     0.019 A 
BRANCH  14  17
HETATM   17  N   UNL     1      40.086 -13.801  -1.319  1.00  0.00    -0.252 N 
HETATM   18  C   UNL     1      39.047 -14.138  -2.162  1.00  0.00     0.231 C 
HETATM   19  O   UNL     1      37.858 -14.284  -1.915  1.00  0.00    -0.273 OA
HETATM   20  C   UNL     1      39.582 -14.332  -3.549  1.00  0.00     0.113 C 
HETATM   21  C   UNL     1      40.955 -13.720  -3.497  1.00  0.00     0.113 C 
HETATM   22  C   UNL     1      41.253 -13.623  -2.032  1.00  0.00     0.231 C 
HETATM   23  O   UNL     1      42.388 -13.402  -1.630  1.00  0.00    -0.273 OA
ENDBRANCH  14  17
ENDBRANCH   8  11
ENDBRANCH   4   7
BRANCH   1  24
HETATM   24  C   UNL     1      41.309 -10.650  10.296  1.00  0.00     0.139 A 
HETATM   25  N   UNL     1      42.571 -10.222  10.648  1.00  0.00    -0.338 N 
HETATM   26  C   UNL     1      42.604  -9.991  11.998  1.00  0.00     0.063 A 
HETATM   27  H   UNL     1      43.332 -10.050  10.010  1.00  0.00     0.167 HD
HETATM   28  C   UNL     1      41.332 -10.333  12.431  1.00  0.00     0.086 A 
HETATM   29  C   UNL     1      43.601  -9.514  12.849  1.00  0.00     0.032 A 
HETATM   30  C   UNL     1      41.010 -10.205  13.790  1.00  0.00     0.040 A 
HETATM   31  N   UNL     1      40.554 -10.747  11.378  1.00  0.00    -0.228 NA
HETATM   32  C   UNL     1      41.988  -9.727  14.681  1.00  0.00    -0.060 A 
HETATM   33  C   UNL     1      41.660  -9.539  16.134  1.00  0.00     0.048 C 
HETATM   34  C   UNL     1      43.262  -9.384  14.202  1.00  0.00     0.009 A 
ENDBRANCH   1  24
TORSDOF 4
ENDMDL
MODEL 7
REMARK VINA RESULT:      -8.2      5.491     12.703
REMARK  4 active torsions:
REMARK  status: ('A' for Active; 'I' for Inactive)
REMARK    1  A    between atoms: C_8  and  C_9 
REMARK    2  A    between atoms: C_12  and  N_13 
REMARK       I    between atoms: N_13  and  C_14 
REMARK    3  A    between atoms: C_14  and  C_15 
REMARK    4  A    between atoms: C_18  and  N_19 
ROOT
HETATM    1  C   UNL     1      41.012 -16.236   1.607  1.00  0.00     0.010 A 
HETATM    2  C   UNL     1      39.815 -15.988   2.289  1.00  0.00     0.017 A 
HETATM    3  C   UNL     1      38.906 -15.026   1.823  1.00  0.00     0.030 A 
HETATM    4  C   UNL     1      39.173 -14.296   0.665  1.00  0.00     0.035 A 
HETATM    5  C   UNL     1      40.390 -14.501   0.010  1.00  0.00     0.030 A 
HETATM    6  C   UNL     1      41.299 -15.458   0.478  1.00  0.00     0.017 A 
ENDROOT
BRANCH   4   7
HETATM    7  N   UNL     1      38.266 -13.393   0.070  1.00  0.00    -0.323 N 
HETATM    8  C   UNL     1      37.677 -12.289   0.661  1.00  0.00     0.256 C 
HETATM    9  O   UNL     1      37.930 -11.829   1.769  1.00  0.00    -0.267 OA
HETATM   10  H   UNL     1      37.926 -13.669  -0.841  1.00  0.00     0.169 HD
BRANCH   8  11
HETATM   11  C   UNL     1      36.574 -11.662  -0.125  1.00  0.00     0.032 A 
HETATM   12  C   UNL     1      36.649 -11.444  -1.500  1.00  0.00     0.019 A 
HETATM   13  C   UNL     1      35.546 -10.917  -2.191  1.00  0.00     0.031 A 
HETATM   14  C   UNL     1      34.344 -10.585  -1.538  1.00  0.00     0.045 A 
HETATM   15  C   UNL     1      34.311 -10.774  -0.146  1.00  0.00     0.031 A 
HETATM   16  C   UNL     1      35.408 -11.301   0.551  1.00  0.00     0.019 A 
BRANCH  14  17
HETATM   17  N   UNL     1      33.206 -10.091  -2.256  1.00  0.00    -0.252 N 
HETATM   18  C   UNL     1      32.910  -8.755  -2.430  1.00  0.00     0.231 C 
HETATM   19  O   UNL     1      33.546  -7.765  -2.095  1.00  0.00    -0.273 OA
HETATM   20  C   UNL     1      31.593  -8.631  -3.134  1.00  0.00     0.113 C 
HETATM   21  C   UNL     1      31.338 -10.011  -3.673  1.00  0.00     0.113 C 
HETATM   22  C   UNL     1      32.274 -10.883  -2.893  1.00  0.00     0.231 C 
HETATM   23  O   UNL     1      32.155 -12.102  -2.897  1.00  0.00    -0.273 OA
ENDBRANCH  14  17
ENDBRANCH   8  11
ENDBRANCH   4   7
BRANCH   1  24
HETATM   24  C   UNL     1      41.946 -17.299   1.996  1.00  0.00     0.139 A 
HETATM   25  N   UNL     1      42.719 -17.280   3.137  1.00  0.00    -0.338 N 
HETATM   26  C   UNL     1      43.378 -18.476   3.250  1.00  0.00     0.063 A 
HETATM   27  H   UNL     1      42.752 -16.532   3.813  1.00  0.00     0.167 HD
HETATM   28  C   UNL     1      42.995 -19.181   2.119  1.00  0.00     0.086 A 
HETATM   29  C   UNL     1      44.238 -18.991   4.220  1.00  0.00     0.032 A 
HETATM   30  C   UNL     1      43.488 -20.478   1.917  1.00  0.00     0.040 A 
HETATM   31  N   UNL     1      42.128 -18.441   1.354  1.00  0.00    -0.228 NA
HETATM   32  C   UNL     1      44.358 -21.034   2.872  1.00  0.00    -0.060 A 
HETATM   33  C   UNL     1      44.869 -22.436   2.705  1.00  0.00     0.048 C 
HETATM   34  C   UNL     1      44.716 -20.291   4.008  1.00  0.00     0.009 A 
ENDBRANCH   1  24
TORSDOF 4
ENDMDL
MODEL 8
REMARK VINA RESULT:      -8.0      8.248     12.937
REMARK  4 active torsions:
REMARK  status: ('A' for Active; 'I' for Inactive)
REMARK    1  A    between atoms: C_8  and  C_9 
REMARK    2  A    between atoms: C_12  and  N_13 
REMARK       I    between atoms: N_13  and  C_14 
REMARK    3  A    between atoms: C_14  and  C_15 
REMARK    4  A    between atoms: C_18  and  N_19 
ROOT
HETATM    1  C   UNL     1      40.890 -10.675   8.475  1.00  0.00     0.010 A 
HETATM    2  C   UNL     1      39.870 -11.559   8.104  1.00  0.00     0.017 A 
HETATM    3  C   UNL     1      39.612 -11.836   6.753  1.00  0.00     0.030 A 
HETATM    4  C   UNL     1      40.371 -11.238   5.747  1.00  0.00     0.035 A 
HETATM    5  C   UNL     1      41.354 -10.314   6.109  1.00  0.00     0.030 A 
HETATM    6  C   UNL     1      41.609 -10.035   7.457  1.00  0.00     0.017 A 
ENDROOT
BRANCH   4   7
HETATM    7  N   UNL     1      40.250 -11.545   4.374  1.00  0.00    -0.323 N 
HETATM    8  C   UNL     1      39.183 -11.249   3.543  1.00  0.00     0.256 C 
HETATM    9  O   UNL     1      38.207 -10.563   3.821  1.00  0.00    -0.267 OA
HETATM   10  H   UNL     1      40.969 -12.154   4.009  1.00  0.00     0.169 HD
BRANCH   8  11
HETATM   11  C   UNL     1      39.222 -11.909   2.205  1.00  0.00     0.032 A 
HETATM   12  C   UNL     1      39.941 -11.398   1.125  1.00  0.00     0.019 A 
HETATM   13  C   UNL     1      39.994 -12.109  -0.086  1.00  0.00     0.031 A 
HETATM   14  C   UNL     1      39.331 -13.337  -0.260  1.00  0.00     0.045 A 
HETATM   15  C   UNL     1      38.579 -13.807   0.829  1.00  0.00     0.031 A 
HETATM   16  C   UNL     1      38.521 -13.104   2.041  1.00  0.00     0.019 A 
BRANCH  14  17
HETATM   17  N   UNL     1      39.427 -14.080  -1.482  1.00  0.00    -0.252 N 
HETATM   18  C   UNL     1      38.535 -13.983  -2.530  1.00  0.00     0.231 C 
HETATM   19  O   UNL     1      37.572 -13.241  -2.668  1.00  0.00    -0.273 OA
HETATM   20  C   UNL     1      38.900 -14.986  -3.582  1.00  0.00     0.113 C 
HETATM   21  C   UNL     1      40.294 -15.412  -3.209  1.00  0.00     0.113 C 
HETATM   22  C   UNL     1      40.440 -14.967  -1.786  1.00  0.00     0.231 C 
HETATM   23  O   UNL     1      41.359 -15.373  -1.087  1.00  0.00    -0.273 OA
ENDBRANCH  14  17
ENDBRANCH   8  11
ENDBRANCH   4   7
BRANCH   1  24
HETATM   24  C   UNL     1      41.264 -10.431   9.873  1.00  0.00     0.139 A 
HETATM   25  N   UNL     1      42.555 -10.469  10.354  1.00  0.00    -0.338 N 
HETATM   26  C   UNL     1      42.555 -10.076  11.667  1.00  0.00     0.063 A 
HETATM   27  H   UNL     1      43.377 -10.693   9.816  1.00  0.00     0.167 HD
HETATM   28  C   UNL     1      41.217  -9.842  11.949  1.00  0.00     0.086 A 
HETATM   29  C   UNL     1      43.577  -9.896  12.598  1.00  0.00     0.032 A 
HETATM   30  C   UNL     1      40.850  -9.407  13.230  1.00  0.00     0.040 A 
HETATM   31  N   UNL     1      40.438 -10.077  10.843  1.00  0.00    -0.228 NA
HETATM   32  C   UNL     1      41.852  -9.213  14.199  1.00  0.00    -0.060 A 
HETATM   33  C   UNL     1      41.495  -8.707  15.567  1.00  0.00     0.048 C 
HETATM   34  C   UNL     1      43.196  -9.453  13.871  1.00  0.00     0.009 A 
ENDBRANCH   1  24
TORSDOF 4
ENDMDL
MODEL 9
REMARK VINA RESULT:      -7.8      3.202     12.488
REMARK  4 active torsions:
REMARK  status: ('A' for Active; 'I' for Inactive)
REMARK    1  A    between atoms: C_8  and  C_9 
REMARK    2  A    between atoms: C_12  and  N_13 
REMARK       I    between atoms: N_13  and  C_14 
REMARK    3  A    between atoms: C_14  and  C_15 
REMARK    4  A    between atoms: C_18  and  N_19 
ROOT
HETATM    1  C   UNL     1      42.132 -16.298   1.547  1.00  0.00     0.010 A 
HETATM    2  C   UNL     1      41.728 -16.721   0.276  1.00  0.00     0.017 A 
HETATM    3  C   UNL     1      41.435 -15.791  -0.734  1.00  0.00     0.030 A 
HETATM    4  C   UNL     1      41.545 -14.421  -0.494  1.00  0.00     0.035 A 
HETATM    5  C   UNL     1      41.896 -13.992   0.789  1.00  0.00     0.030 A 
HETATM    6  C   UNL     1      42.184 -14.920   1.797  1.00  0.00     0.017 A 
ENDROOT
BRANCH   4   7
HETATM    7  N   UNL     1      41.376 -13.427  -1.482  1.00  0.00    -0.323 N 
HETATM    8  C   UNL     1      40.226 -13.150  -2.201  1.00  0.00     0.256 C 
HETATM    9  O   UNL     1      39.116 -13.637  -2.022  1.00  0.00    -0.267 OA
HETATM   10  H   UNL     1      42.228 -12.966  -1.770  1.00  0.00     0.169 HD
BRANCH   8  11
HETATM   11  C   UNL     1      40.408 -12.214  -3.348  1.00  0.00     0.032 A 
HETATM   12  C   UNL     1      39.372 -11.441  -3.872  1.00  0.00     0.019 A 
HETATM   13  C   UNL     1      39.628 -10.525  -4.906  1.00  0.00     0.031 A 
HETATM   14  C   UNL     1      40.914 -10.357  -5.452  1.00  0.00     0.045 A 
HETATM   15  C   UNL     1      41.930 -11.178  -4.936  1.00  0.00     0.031 A 
HETATM   16  C   UNL     1      41.683 -12.094  -3.903  1.00  0.00     0.019 A 
BRANCH  14  17
HETATM   17  N   UNL     1      41.179  -9.387  -6.475  1.00  0.00    -0.252 N 
HETATM   18  C   UNL     1      40.933  -9.580  -7.819  1.00  0.00     0.231 C 
HETATM   19  O   UNL     1      40.405 -10.526  -8.386  1.00  0.00    -0.273 OA
HETATM   20  C   UNL     1      41.436  -8.395  -8.585  1.00  0.00     0.113 C 
HETATM   21  C   UNL     1      41.660  -7.348  -7.530  1.00  0.00     0.113 C 
HETATM   22  C   UNL     1      41.685  -8.124  -6.249  1.00  0.00     0.231 C 
HETATM   23  O   UNL     1      42.096  -7.621  -5.211  1.00  0.00    -0.273 OA
ENDBRANCH  14  17
ENDBRANCH   8  11
ENDBRANCH   4   7
BRANCH   1  24
HETATM   24  C   UNL     1      42.545 -17.229   2.604  1.00  0.00     0.139 A 
HETATM   25  N   UNL     1      43.380 -18.308   2.411  1.00  0.00    -0.338 N 
HETATM   26  C   UNL     1      43.652 -18.885   3.624  1.00  0.00     0.063 A 
HETATM   27  H   UNL     1      43.776 -18.595   1.529  1.00  0.00     0.167 HD
HETATM   28  C   UNL     1      42.919 -18.131   4.528  1.00  0.00     0.086 A 
HETATM   29  C   UNL     1      44.461 -19.958   3.998  1.00  0.00     0.032 A 
HETATM   30  C   UNL     1      42.975 -18.449   5.893  1.00  0.00     0.040 A 
HETATM   31  N   UNL     1      42.236 -17.129   3.886  1.00  0.00    -0.228 NA
HETATM   32  C   UNL     1      43.779 -19.524   6.312  1.00  0.00    -0.060 A 
HETATM   33  C   UNL     1      43.893 -19.862   7.770  1.00  0.00     0.048 C 
HETATM   34  C   UNL     1      44.513 -20.258   5.366  1.00  0.00     0.009 A 
ENDBRANCH   1  24
TORSDOF 4
ENDMDL
MODEL 10
REMARK VINA RESULT:      -7.8      3.077      4.014
REMARK  4 active torsions:
REMARK  status: ('A' for Active; 'I' for Inactive)
REMARK    1  A    between atoms: C_8  and  C_9 
REMARK    2  A    between atoms: C_12  and  N_13 
REMARK       I    between atoms: N_13  and  C_14 
REMARK    3  A    between atoms: C_14  and  C_15 
REMARK    4  A    between atoms: C_18  and  N_19 
ROOT
HETATM    1  C   UNL     1      37.967 -12.897  -2.928  1.00  0.00     0.010 A 
HETATM    2  C   UNL     1      39.110 -13.647  -3.227  1.00  0.00     0.017 A 
HETATM    3  C   UNL     1      39.836 -14.289  -2.212  1.00  0.00     0.030 A 
HETATM    4  C   UNL     1      39.430 -14.199  -0.880  1.00  0.00     0.035 A 
HETATM    5  C   UNL     1      38.321 -13.408  -0.570  1.00  0.00     0.030 A 
HETATM    6  C   UNL     1      37.600 -12.763  -1.583  1.00  0.00     0.017 A 
ENDROOT
BRANCH   4   7
HETATM    7  N   UNL     1      40.037 -14.902   0.183  1.00  0.00    -0.323 N 
HETATM    8  C   UNL     1      41.240 -14.608   0.800  1.00  0.00     0.256 C 
HETATM    9  O   UNL     1      41.935 -13.615   0.615  1.00  0.00    -0.267 OA
HETATM   10  H   UNL     1      39.595 -15.780   0.419  1.00  0.00     0.169 HD
BRANCH   8  11
HETATM   11  C   UNL     1      41.751 -15.661   1.725  1.00  0.00     0.032 A 
HETATM   12  C   UNL     1      41.086 -16.865   1.949  1.00  0.00     0.019 A 
HETATM   13  C   UNL     1      41.660 -17.846   2.776  1.00  0.00     0.031 A 
HETATM   14  C   UNL     1      42.902 -17.654   3.408  1.00  0.00     0.045 A 
HETATM   15  C   UNL     1      43.531 -16.415   3.200  1.00  0.00     0.031 A 
HETATM   16  C   UNL     1      42.965 -15.432   2.375  1.00  0.00     0.019 A 
BRANCH  14  17
HETATM   17  N   UNL     1      43.505 -18.676   4.213  1.00  0.00    -0.252 N 
HETATM   18  C   UNL     1      44.302 -19.690   3.724  1.00  0.00     0.231 C 
HETATM   19  O   UNL     1      44.702 -19.886   2.585  1.00  0.00    -0.273 OA
HETATM   20  C   UNL     1      44.654 -20.623   4.843  1.00  0.00     0.113 C 
HETATM   21  C   UNL     1      44.293 -19.853   6.084  1.00  0.00     0.113 C 
HETATM   22  C   UNL     1      43.392 -18.765   5.585  1.00  0.00     0.231 C 
HETATM   23  O   UNL     1      42.712 -18.103   6.358  1.00  0.00    -0.273 OA
ENDBRANCH  14  17
ENDBRANCH   8  11
ENDBRANCH   4   7
BRANCH   1  24
HETATM   24  C   UNL     1      37.119 -12.290  -3.961  1.00  0.00     0.139 A 
HETATM   25  N   UNL     1      37.577 -11.455  -4.957  1.00  0.00    -0.338 N 
HETATM   26  C   UNL     1      36.545 -11.173  -5.814  1.00  0.00     0.063 A 
HETATM   27  H   UNL     1      38.530 -11.147  -5.074  1.00  0.00     0.167 HD
HETATM   28  C   UNL     1      35.460 -11.840  -5.266  1.00  0.00     0.086 A 
HETATM   29  C   UNL     1      36.473 -10.428  -6.991  1.00  0.00     0.032 A 
HETATM   30  C   UNL     1      34.215 -11.771  -5.908  1.00  0.00     0.040 A 
HETATM   31  N   UNL     1      35.824 -12.509  -4.124  1.00  0.00    -0.228 NA
HETATM   32  C   UNL     1      34.100 -11.030  -7.098  1.00  0.00    -0.060 A 
HETATM   33  C   UNL     1      32.792 -10.973  -7.832  1.00  0.00     0.048 C 
HETATM   34  C   UNL     1      35.225 -10.376  -7.625  1.00  0.00     0.009 A 
ENDBRANCH   1  24
TORSDOF 4
ENDMDL
