MODEL 1
REMARK VINA RESULT:      -7.8      0.000      0.000
REMARK  5 active torsions:
REMARK  status: ('A' for Active; 'I' for Inactive)
REMARK    1  A    between atoms: C_8  and  N_9 
REMARK       I    between atoms: N_9  and  C_10 
REMARK       I    between atoms: C_10  and  N_11 
REMARK    2  A    between atoms: N_11  and  C_12 
REMARK    3  A    between atoms: C_13  and  O_14 
REMARK    4  A    between atoms: O_14  and  C_15 
REMARK    5  A    between atoms: C_15  and  C_16 
ROOT
HETATM    1  N   UNL     1      42.839 -15.944   3.833  1.00  0.00    -0.305 N 
HETATM    2  C   UNL     1      42.674 -17.317   3.836  1.00  0.00     0.325 C 
HETATM    3  N   UNL     1      43.747 -17.928   3.215  1.00  0.00    -0.306 N 
HETATM    4  O   UNL     1      41.723 -17.912   4.326  1.00  0.00    -0.247 OA
HETATM    5  H   UNL     1      43.795 -15.624   3.884  1.00  0.00     0.171 HD
HETATM    6  H   UNL     1      44.210 -17.383   2.498  1.00  0.00     0.171 HD
ENDROOT
BRANCH   3   7
HETATM    7  C   UNL     1      44.050 -19.306   3.220  1.00  0.00     0.070 A 
HETATM    8  C   UNL     1      44.606 -19.851   4.390  1.00  0.00     0.098 A 
HETATM    9  C   UNL     1      44.863 -21.217   4.495  1.00  0.00     0.081 A 
HETATM   10  C   UNL     1      44.590 -22.037   3.407  1.00  0.00     0.119 A 
HETATM   11  F   UNL     1      44.836 -23.350   3.496  1.00  0.00    -0.206 F 
HETATM   12  C   UNL     1      44.063 -21.517   2.231  1.00  0.00     0.044 A 
HETATM   13  C   UNL     1      43.788 -20.149   2.136  1.00  0.00     0.035 A 
BRANCH   8  14
HETATM   14  O   UNL     1      44.871 -19.004   5.440  1.00  0.00    -0.340 OA
BRANCH  14  15
HETATM   15  C   UNL     1      44.074 -19.345   6.592  1.00  0.00     0.293 C 
BRANCH  15  16
HETATM   16  C   UNL     1      43.831 -18.108   7.442  1.00  0.00     0.408 C 
HETATM   17  F   UNL     1      44.233 -18.304   8.719  1.00  0.00    -0.169 F 
HETATM   18  F   UNL     1      44.492 -17.033   6.960  1.00  0.00    -0.169 F 
HETATM   19  F   UNL     1      42.514 -17.798   7.471  1.00  0.00    -0.169 F 
ENDBRANCH  15  16
ENDBRANCH  14  15
ENDBRANCH   8  14
ENDBRANCH   3   7
BRANCH   1  20
HETATM   20  C   UNL     1      41.865 -15.026   4.186  1.00  0.00     0.086 A 
HETATM   21  C   UNL     1      42.024 -14.121   5.216  1.00  0.00     0.052 A 
HETATM   22  C   UNL     1      43.117 -13.892   6.187  1.00  0.00     0.072 C 
HETATM   23  N   UNL     1      40.866 -13.395   5.251  1.00  0.00    -0.280 N 
HETATM   24  H   UNL     1      40.613 -12.651   5.891  1.00  0.00     0.189 HD
HETATM   25  N   UNL     1      39.987 -13.730   4.300  1.00  0.00    -0.177 NA
HETATM   26  C   UNL     1      40.585 -14.729   3.634  1.00  0.00     0.079 A 
HETATM   27  C   UNL     1      39.904 -15.303   2.446  1.00  0.00     0.075 C 
ENDBRANCH   1  20
TORSDOF 5
ENDMDL
MODEL 2
REMARK VINA RESULT:      -7.8      2.153      2.885
REMARK  5 active torsions:
REMARK  status: ('A' for Active; 'I' for Inactive)
REMARK    1  A    between atoms: C_8  and  N_9 
REMARK       I    between atoms: N_9  and  C_10 
REMARK       I    between atoms: C_10  and  N_11 
REMARK    2  A    between atoms: N_11  and  C_12 
REMARK    3  A    between atoms: C_13  and  O_14 
REMARK    4  A    between atoms: O_14  and  C_15 
REMARK    5  A    between atoms: C_15  and  C_16 
ROOT
HETATM    1  N   UNL     1      41.936 -16.087   2.038  1.00  0.00    -0.305 N 
HETATM    2  C   UNL     1      42.953 -17.023   2.020  1.00  0.00     0.325 C 
HETATM    3  N   UNL     1      42.597 -18.129   2.770  1.00  0.00    -0.306 N 
HETATM    4  O   UNL     1      44.012 -16.902   1.418  1.00  0.00    -0.247 OA
HETATM    5  H   UNL     1      41.002 -16.464   2.104  1.00  0.00     0.171 HD
HETATM    6  H   UNL     1      41.960 -17.954   3.537  1.00  0.00     0.171 HD
ENDROOT
BRANCH   3   7
HETATM    7  C   UNL     1      43.265 -19.371   2.806  1.00  0.00     0.070 A 
HETATM    8  C   UNL     1      44.058 -19.657   3.932  1.00  0.00     0.098 A 
HETATM    9  C   UNL     1      44.688 -20.892   4.071  1.00  0.00     0.081 A 
HETATM   10  C   UNL     1      44.549 -21.835   3.060  1.00  0.00     0.119 A 
HETATM   11  F   UNL     1      45.153 -23.023   3.182  1.00  0.00    -0.206 F 
HETATM   12  C   UNL     1      43.790 -21.565   1.926  1.00  0.00     0.044 A 
HETATM   13  C   UNL     1      43.143 -20.332   1.799  1.00  0.00     0.035 A 
BRANCH   8  14
HETATM   14  O   UNL     1      44.179 -18.693   4.904  1.00  0.00    -0.340 OA
BRANCH  14  15
HETATM   15  C   UNL     1      43.176 -18.862   5.926  1.00  0.00     0.293 C 
BRANCH  15  16
HETATM   16  C   UNL     1      43.827 -18.868   7.300  1.00  0.00     0.408 C 
HETATM   17  F   UNL     1      43.216 -17.998   8.136  1.00  0.00    -0.169 F 
HETATM   18  F   UNL     1      43.781 -20.092   7.869  1.00  0.00    -0.169 F 
HETATM   19  F   UNL     1      45.128 -18.507   7.214  1.00  0.00    -0.169 F 
ENDBRANCH  15  16
ENDBRANCH  14  15
ENDBRANCH   8  14
ENDBRANCH   3   7
BRANCH   1  20
HETATM   20  C   UNL     1      42.042 -14.790   1.565  1.00  0.00     0.086 A 
HETATM   21  C   UNL     1      41.654 -14.422   0.292  1.00  0.00     0.052 A 
HETATM   22  C   UNL     1      41.116 -15.190  -0.853  1.00  0.00     0.072 C 
HETATM   23  N   UNL     1      41.905 -13.081   0.205  1.00  0.00    -0.280 N 
HETATM   24  H   UNL     1      41.764 -12.468  -0.591  1.00  0.00     0.189 HD
HETATM   25  N   UNL     1      42.386 -12.543   1.331  1.00  0.00    -0.177 NA
HETATM   26  C   UNL     1      42.473 -13.579   2.179  1.00  0.00     0.079 A 
HETATM   27  C   UNL     1      42.914 -13.324   3.573  1.00  0.00     0.075 C 
ENDBRANCH   1  20
TORSDOF 5
ENDMDL
MODEL 3
REMARK VINA RESULT:      -7.7      0.876      1.401
REMARK  5 active torsions:
REMARK  status: ('A' for Active; 'I' for Inactive)
REMARK    1  A    between atoms: C_8  and  N_9 
REMARK       I    between atoms: N_9  and  C_10 
REMARK       I    between atoms: C_10  and  N_11 
REMARK    2  A    between atoms: N_11  and  C_12 
REMARK    3  A    between atoms: C_13  and  O_14 
REMARK    4  A    between atoms: O_14  and  C_15 
REMARK    5  A    between atoms: C_15  and  C_16 
ROOT
HETATM    1  N   UNL     1      42.811 -15.947   3.811  1.00  0.00    -0.305 N 
HETATM    2  C   UNL     1      42.648 -17.307   3.623  1.00  0.00     0.325 C 
HETATM    3  N   UNL     1      43.862 -17.896   3.322  1.00  0.00    -0.306 N 
HETATM    4  O   UNL     1      41.587 -17.910   3.721  1.00  0.00    -0.247 OA
HETATM    5  H   UNL     1      43.700 -15.667   4.197  1.00  0.00     0.171 HD
HETATM    6  H   UNL     1      44.533 -17.304   2.850  1.00  0.00     0.171 HD
ENDROOT
BRANCH   3   7
HETATM    7  C   UNL     1      44.140 -19.278   3.287  1.00  0.00     0.070 A 
HETATM    8  C   UNL     1      44.623 -19.881   4.462  1.00  0.00     0.098 A 
HETATM    9  C   UNL     1      44.851 -21.255   4.523  1.00  0.00     0.081 A 
HETATM   10  C   UNL     1      44.624 -22.024   3.390  1.00  0.00     0.119 A 
HETATM   11  F   UNL     1      44.844 -23.344   3.437  1.00  0.00    -0.206 F 
HETATM   12  C   UNL     1      44.170 -21.447   2.209  1.00  0.00     0.044 A 
HETATM   13  C   UNL     1      43.924 -20.072   2.156  1.00  0.00     0.035 A 
BRANCH   8  14
HETATM   14  O   UNL     1      44.845 -19.082   5.558  1.00  0.00    -0.340 OA
BRANCH  14  15
HETATM   15  C   UNL     1      43.839 -19.300   6.568  1.00  0.00     0.293 C 
BRANCH  15  16
HETATM   16  C   UNL     1      43.794 -18.118   7.523  1.00  0.00     0.408 C 
HETATM   17  F   UNL     1      44.373 -18.422   8.707  1.00  0.00    -0.169 F 
HETATM   18  F   UNL     1      44.430 -17.041   7.015  1.00  0.00    -0.169 F 
HETATM   19  F   UNL     1      42.515 -17.755   7.775  1.00  0.00    -0.169 F 
ENDBRANCH  15  16
ENDBRANCH  14  15
ENDBRANCH   8  14
ENDBRANCH   3   7
BRANCH   1  20
HETATM   20  C   UNL     1      41.778 -15.031   3.922  1.00  0.00     0.086 A 
HETATM   21  C   UNL     1      41.503 -14.089   2.950  1.00  0.00     0.052 A 
HETATM   22  C   UNL     1      42.157 -13.755   1.666  1.00  0.00     0.072 C 
HETATM   23  N   UNL     1      40.426 -13.386   3.415  1.00  0.00    -0.280 N 
HETATM   24  H   UNL     1      39.955 -12.602   2.978  1.00  0.00     0.189 HD
HETATM   25  N   UNL     1      39.957 -13.823   4.589  1.00  0.00    -0.177 NA
HETATM   26  C   UNL     1      40.774 -14.836   4.913  1.00  0.00     0.079 A 
HETATM   27  C   UNL     1      40.495 -15.609   6.150  1.00  0.00     0.075 C 
ENDBRANCH   1  20
TORSDOF 5
ENDMDL
MODEL 4
REMARK VINA RESULT:      -7.6      3.152      4.050
REMARK  5 active torsions:
REMARK  status: ('A' for Active; 'I' for Inactive)
REMARK    1  A    between atoms: C_8  and  N_9 
REMARK       I    between atoms: N_9  and  C_10 
REMARK       I    between atoms: C_10  and  N_11 
REMARK    2  A    between atoms: N_11  and  C_12 
REMARK    3  A    between atoms: C_13  and  O_14 
REMARK    4  A    between atoms: O_14  and  C_15 
REMARK    5  A    between atoms: C_15  and  C_16 
ROOT
HETATM    1  N   UNL     1      41.962 -15.581   0.225  1.00  0.00    -0.305 N 
HETATM    2  C   UNL     1      42.010 -16.803   0.869  1.00  0.00     0.325 C 
HETATM    3  N   UNL     1      43.305 -17.085   1.263  1.00  0.00    -0.306 N 
HETATM    4  O   UNL     1      41.047 -17.530   1.075  1.00  0.00    -0.247 OA
HETATM    5  H   UNL     1      42.629 -14.896   0.548  1.00  0.00     0.171 HD
HETATM    6  H   UNL     1      44.037 -16.681   0.691  1.00  0.00     0.171 HD
ENDROOT
BRANCH   3   7
HETATM    7  C   UNL     1      43.714 -18.116   2.134  1.00  0.00     0.070 A 
HETATM    8  C   UNL     1      43.754 -17.834   3.511  1.00  0.00     0.098 A 
HETATM    9  C   UNL     1      44.078 -18.824   4.438  1.00  0.00     0.081 A 
HETATM   10  C   UNL     1      44.395 -20.096   3.978  1.00  0.00     0.119 A 
HETATM   11  F   UNL     1      44.712 -21.053   4.859  1.00  0.00    -0.206 F 
HETATM   12  C   UNL     1      44.387 -20.391   2.620  1.00  0.00     0.044 A 
HETATM   13  C   UNL     1      44.043 -19.401   1.694  1.00  0.00     0.035 A 
BRANCH   8  14
HETATM   14  O   UNL     1      43.443 -16.560   3.924  1.00  0.00    -0.340 OA
BRANCH  14  15
HETATM   15  C   UNL     1      42.813 -16.577   5.220  1.00  0.00     0.293 C 
BRANCH  15  16
HETATM   16  C   UNL     1      41.302 -16.633   5.065  1.00  0.00     0.408 C 
HETATM   17  F   UNL     1      40.681 -15.967   6.065  1.00  0.00    -0.169 F 
HETATM   18  F   UNL     1      40.900 -16.093   3.895  1.00  0.00    -0.169 F 
HETATM   19  F   UNL     1      40.865 -17.914   5.095  1.00  0.00    -0.169 F 
ENDBRANCH  15  16
ENDBRANCH  14  15
ENDBRANCH   8  14
ENDBRANCH   3   7
BRANCH   1  20
HETATM   20  C   UNL     1      40.870 -15.093  -0.472  1.00  0.00     0.086 A 
HETATM   21  C   UNL     1      39.808 -14.462   0.144  1.00  0.00     0.052 A 
HETATM   22  C   UNL     1      39.497 -14.178   1.563  1.00  0.00     0.072 C 
HETATM   23  N   UNL     1      38.946 -14.126  -0.863  1.00  0.00    -0.280 N 
HETATM   24  H   UNL     1      38.046 -13.665  -0.788  1.00  0.00     0.189 HD
HETATM   25  N   UNL     1      39.384 -14.451  -2.084  1.00  0.00    -0.177 NA
HETATM   26  C   UNL     1      40.566 -15.044  -1.863  1.00  0.00     0.079 A 
HETATM   27  C   UNL     1      41.376 -15.476  -3.030  1.00  0.00     0.075 C 
ENDBRANCH   1  20
TORSDOF 5
ENDMDL
MODEL 5
REMARK VINA RESULT:      -7.3      2.327      4.612
REMARK  5 active torsions:
REMARK  status: ('A' for Active; 'I' for Inactive)
REMARK    1  A    between atoms: C_8  and  N_9 
REMARK       I    between atoms: N_9  and  C_10 
REMARK       I    between atoms: C_10  and  N_11 
REMARK    2  A    between atoms: N_11  and  C_12 
REMARK    3  A    between atoms: C_13  and  O_14 
REMARK    4  A    between atoms: O_14  and  C_15 
REMARK    5  A    between atoms: C_15  and  C_16 
ROOT
HETATM    1  N   UNL     1      41.924 -14.941   2.958  1.00  0.00    -0.305 N 
HETATM    2  C   UNL     1      41.917 -15.981   3.870  1.00  0.00     0.325 C 
HETATM    3  N   UNL     1      43.102 -15.998   4.583  1.00  0.00    -0.306 N 
HETATM    4  O   UNL     1      40.994 -16.768   4.035  1.00  0.00    -0.247 OA
HETATM    5  H   UNL     1      42.440 -14.122   3.241  1.00  0.00     0.171 HD
HETATM    6  H   UNL     1      43.913 -15.633   4.099  1.00  0.00     0.171 HD
ENDROOT
BRANCH   3   7
HETATM    7  C   UNL     1      43.376 -16.756   5.740  1.00  0.00     0.070 A 
HETATM    8  C   UNL     1      44.102 -17.950   5.586  1.00  0.00     0.098 A 
HETATM    9  C   UNL     1      44.473 -18.714   6.692  1.00  0.00     0.081 A 
HETATM   10  C   UNL     1      44.085 -18.294   7.957  1.00  0.00     0.119 A 
HETATM   11  F   UNL     1      44.432 -19.022   9.026  1.00  0.00    -0.206 F 
HETATM   12  C   UNL     1      43.345 -17.130   8.133  1.00  0.00     0.044 A 
HETATM   13  C   UNL     1      42.992 -16.356   7.023  1.00  0.00     0.035 A 
BRANCH   8  14
HETATM   14  O   UNL     1      44.458 -18.336   4.315  1.00  0.00    -0.340 OA
BRANCH  14  15
HETATM   15  C   UNL     1      43.579 -19.368   3.824  1.00  0.00     0.293 C 
BRANCH  15  16
HETATM   16  C   UNL     1      43.979 -19.766   2.413  1.00  0.00     0.408 C 
HETATM   17  F   UNL     1      43.025 -20.525   1.827  1.00  0.00    -0.169 F 
HETATM   18  F   UNL     1      44.187 -18.685   1.630  1.00  0.00    -0.169 F 
HETATM   19  F   UNL     1      45.125 -20.486   2.424  1.00  0.00    -0.169 F 
ENDBRANCH  15  16
ENDBRANCH  14  15
ENDBRANCH   8  14
ENDBRANCH   3   7
BRANCH   1  20
HETATM   20  C   UNL     1      40.991 -14.762   1.951  1.00  0.00     0.086 A 
HETATM   21  C   UNL     1      40.960 -15.538   0.810  1.00  0.00     0.052 A 
HETATM   22  C   UNL     1      41.822 -16.637   0.323  1.00  0.00     0.072 C 
HETATM   23  N   UNL     1      39.910 -15.066   0.073  1.00  0.00    -0.280 N 
HETATM   24  H   UNL     1      39.593 -15.380  -0.838  1.00  0.00     0.189 HD
HETATM   25  N   UNL     1      39.234 -14.074   0.663  1.00  0.00    -0.177 NA
HETATM   26  C   UNL     1      39.883 -13.876   1.820  1.00  0.00     0.079 A 
HETATM   27  C   UNL     1      39.349 -12.872   2.774  1.00  0.00     0.075 C 
ENDBRANCH   1  20
TORSDOF 5
ENDMDL
MODEL 6
REMARK VINA RESULT:      -7.2      1.474      1.880
REMARK  5 active torsions:
REMARK  status: ('A' for Active; 'I' for Inactive)
REMARK    1  A    between atoms: C_8  and  N_9 
REMARK       I    between atoms: N_9  and  C_10 
REMARK       I    between atoms: C_10  and  N_11 
REMARK    2  A    between atoms: N_11  and  C_12 
REMARK    3  A    between atoms: C_13  and  O_14 
REMARK    4  A    between atoms: O_14  and  C_15 
REMARK    5  A    between atoms: C_15  and  C_16 
ROOT
HETATM    1  N   UNL     1      42.423 -15.950   2.432  1.00  0.00    -0.305 N 
HETATM    2  C   UNL     1      42.357 -17.331   2.389  1.00  0.00     0.325 C 
HETATM    3  N   UNL     1      43.625 -17.873   2.494  1.00  0.00    -0.306 N 
HETATM    4  O   UNL     1      41.327 -17.985   2.286  1.00  0.00    -0.247 OA
HETATM    5  H   UNL     1      43.168 -15.571   2.997  1.00  0.00     0.171 HD
HETATM    6  H   UNL     1      44.380 -17.299   2.139  1.00  0.00     0.171 HD
ENDROOT
BRANCH   3   7
HETATM    7  C   UNL     1      43.945 -19.229   2.713  1.00  0.00     0.070 A 
HETATM    8  C   UNL     1      44.347 -19.607   4.006  1.00  0.00     0.098 A 
HETATM    9  C   UNL     1      44.609 -20.941   4.316  1.00  0.00     0.081 A 
HETATM   10  C   UNL     1      44.497 -21.897   3.315  1.00  0.00     0.119 A 
HETATM   11  F   UNL     1      44.749 -23.180   3.600  1.00  0.00    -0.206 F 
HETATM   12  C   UNL     1      44.124 -21.543   2.022  1.00  0.00     0.044 A 
HETATM   13  C   UNL     1      43.844 -20.207   1.720  1.00  0.00     0.035 A 
BRANCH   8  14
HETATM   14  O   UNL     1      44.456 -18.628   4.966  1.00  0.00    -0.340 OA
BRANCH  14  15
HETATM   15  C   UNL     1      43.324 -18.653   5.858  1.00  0.00     0.293 C 
BRANCH  15  16
HETATM   16  C   UNL     1      43.797 -18.755   7.299  1.00  0.00     0.408 C 
HETATM   17  F   UNL     1      45.097 -18.398   7.415  1.00  0.00    -0.169 F 
HETATM   18  F   UNL     1      43.075 -17.960   8.119  1.00  0.00    -0.169 F 
HETATM   19  F   UNL     1      43.680 -20.024   7.753  1.00  0.00    -0.169 F 
ENDBRANCH  15  16
ENDBRANCH  14  15
ENDBRANCH   8  14
ENDBRANCH   3   7
BRANCH   1  20
HETATM   20  C   UNL     1      41.371 -15.096   2.150  1.00  0.00     0.086 A 
HETATM   21  C   UNL     1      40.560 -14.556   3.129  1.00  0.00     0.052 A 
HETATM   22  C   UNL     1      40.517 -14.722   4.598  1.00  0.00     0.072 C 
HETATM   23  N   UNL     1      39.656 -13.773   2.466  1.00  0.00    -0.280 N 
HETATM   24  H   UNL     1      38.891 -13.232   2.855  1.00  0.00     0.189 HD
HETATM   25  N   UNL     1      39.842 -13.731   1.142  1.00  0.00    -0.177 NA
HETATM   26  C   UNL     1      40.893 -14.536   0.931  1.00  0.00     0.079 A 
HETATM   27  C   UNL     1      41.424 -14.668  -0.450  1.00  0.00     0.075 C 
ENDBRANCH   1  20
TORSDOF 5
ENDMDL
MODEL 7
REMARK VINA RESULT:      -7.2      3.629      7.380
REMARK  5 active torsions:
REMARK  status: ('A' for Active; 'I' for Inactive)
REMARK    1  A    between atoms: C_8  and  N_9 
REMARK       I    between atoms: N_9  and  C_10 
REMARK       I    between atoms: C_10  and  N_11 
REMARK    2  A    between atoms: N_11  and  C_12 
REMARK    3  A    between atoms: C_13  and  O_14 
REMARK    4  A    between atoms: O_14  and  C_15 
REMARK    5  A    between atoms: C_15  and  C_16 
ROOT
HETATM    1  N   UNL     1      42.095 -18.154   4.581  1.00  0.00    -0.305 N 
HETATM    2  C   UNL     1      42.045 -16.821   4.220  1.00  0.00     0.325 C 
HETATM    3  N   UNL     1      40.740 -16.365   4.256  1.00  0.00    -0.306 N 
HETATM    4  O   UNL     1      43.013 -16.133   3.922  1.00  0.00    -0.247 OA
HETATM    5  H   UNL     1      41.400 -18.447   5.251  1.00  0.00     0.171 HD
HETATM    6  H   UNL     1      40.026 -17.060   4.077  1.00  0.00     0.171 HD
ENDROOT
BRANCH   3   7
HETATM    7  C   UNL     1      40.314 -15.023   4.175  1.00  0.00     0.070 A 
HETATM    8  C   UNL     1      39.807 -14.569   2.944  1.00  0.00     0.098 A 
HETATM    9  C   UNL     1      39.301 -13.277   2.809  1.00  0.00     0.081 A 
HETATM   10  C   UNL     1      39.334 -12.425   3.905  1.00  0.00     0.119 A 
HETATM   11  F   UNL     1      38.854 -11.181   3.785  1.00  0.00    -0.206 F 
HETATM   12  C   UNL     1      39.854 -12.843   5.125  1.00  0.00     0.044 A 
HETATM   13  C   UNL     1      40.342 -14.146   5.263  1.00  0.00     0.035 A 
BRANCH   8  14
HETATM   14  O   UNL     1      39.803 -15.440   1.881  1.00  0.00    -0.340 OA
BRANCH  14  15
HETATM   15  C   UNL     1      40.829 -15.098   0.928  1.00  0.00     0.293 C 
BRANCH  15  16
HETATM   16  C   UNL     1      41.498 -16.359   0.406  1.00  0.00     0.408 C 
HETATM   17  F   UNL     1      42.806 -16.399   0.751  1.00  0.00    -0.169 F 
HETATM   18  F   UNL     1      40.908 -17.473   0.889  1.00  0.00    -0.169 F 
HETATM   19  F   UNL     1      41.429 -16.413  -0.944  1.00  0.00    -0.169 F 
ENDBRANCH  15  16
ENDBRANCH  14  15
ENDBRANCH   8  14
ENDBRANCH   3   7
BRANCH   1  20
HETATM   20  C   UNL     1      43.207 -18.970   4.453  1.00  0.00     0.086 A 
HETATM   21  C   UNL     1      43.927 -19.432   5.537  1.00  0.00     0.052 A 
HETATM   22  C   UNL     1      43.801 -19.204   6.993  1.00  0.00     0.072 C 
HETATM   23  N   UNL     1      44.930 -20.199   5.012  1.00  0.00    -0.280 N 
HETATM   24  H   UNL     1      45.669 -20.687   5.506  1.00  0.00     0.189 HD
HETATM   25  N   UNL     1      44.893 -20.303   3.679  1.00  0.00    -0.177 NA
HETATM   26  C   UNL     1      43.839 -19.556   3.319  1.00  0.00     0.079 A 
HETATM   27  C   UNL     1      43.458 -19.504   1.885  1.00  0.00     0.075 C 
ENDBRANCH   1  20
TORSDOF 5
ENDMDL
MODEL 8
REMARK VINA RESULT:      -7.2      3.197      6.882
REMARK  5 active torsions:
REMARK  status: ('A' for Active; 'I' for Inactive)
REMARK    1  A    between atoms: C_8  and  N_9 
REMARK       I    between atoms: N_9  and  C_10 
REMARK       I    between atoms: C_10  and  N_11 
REMARK    2  A    between atoms: N_11  and  C_12 
REMARK    3  A    between atoms: C_13  and  O_14 
REMARK    4  A    between atoms: O_14  and  C_15 
REMARK    5  A    between atoms: C_15  and  C_16 
ROOT
HETATM    1  N   UNL     1      44.101 -18.395   5.052  1.00  0.00    -0.305 N 
HETATM    2  C   UNL     1      42.866 -17.788   4.921  1.00  0.00     0.325 C 
HETATM    3  N   UNL     1      42.987 -16.420   5.080  1.00  0.00    -0.306 N 
HETATM    4  O   UNL     1      41.815 -18.370   4.685  1.00  0.00    -0.247 OA
HETATM    5  H   UNL     1      44.888 -17.846   4.741  1.00  0.00     0.171 HD
HETATM    6  H   UNL     1      43.744 -16.112   5.677  1.00  0.00     0.171 HD
ENDROOT
BRANCH   3   7
HETATM    7  C   UNL     1      42.003 -15.449   4.797  1.00  0.00     0.070 A 
HETATM    8  C   UNL     1      41.978 -14.899   3.503  1.00  0.00     0.098 A 
HETATM    9  C   UNL     1      40.990 -13.989   3.129  1.00  0.00     0.081 A 
HETATM   10  C   UNL     1      40.042 -13.605   4.067  1.00  0.00     0.119 A 
HETATM   11  F   UNL     1      39.091 -12.728   3.719  1.00  0.00    -0.206 F 
HETATM   12  C   UNL     1      40.062 -14.116   5.360  1.00  0.00     0.044 A 
HETATM   13  C   UNL     1      41.042 -15.043   5.726  1.00  0.00     0.035 A 
BRANCH   8  14
HETATM   14  O   UNL     1      42.941 -15.299   2.607  1.00  0.00    -0.340 OA
BRANCH  14  15
HETATM   15  C   UNL     1      42.368 -16.104   1.558  1.00  0.00     0.293 C 
BRANCH  15  16
HETATM   16  C   UNL     1      43.203 -17.357   1.348  1.00  0.00     0.408 C 
HETATM   17  F   UNL     1      42.533 -18.465   1.738  1.00  0.00    -0.169 F 
HETATM   18  F   UNL     1      43.547 -17.516   0.051  1.00  0.00    -0.169 F 
HETATM   19  F   UNL     1      44.347 -17.297   2.068  1.00  0.00    -0.169 F 
ENDBRANCH  15  16
ENDBRANCH  14  15
ENDBRANCH   8  14
ENDBRANCH   3   7
BRANCH   1  20
HETATM   20  C   UNL     1      44.307 -19.761   5.153  1.00  0.00     0.086 A 
HETATM   21  C   UNL     1      44.128 -20.462   6.328  1.00  0.00     0.052 A 
HETATM   22  C   UNL     1      43.754 -20.042   7.697  1.00  0.00     0.072 C 
HETATM   23  N   UNL     1      44.420 -21.763   6.029  1.00  0.00    -0.280 N 
HETATM   24  H   UNL     1      44.417 -22.565   6.650  1.00  0.00     0.189 HD
HETATM   25  N   UNL     1      44.734 -21.968   4.745  1.00  0.00    -0.177 NA
HETATM   26  C   UNL     1      44.667 -20.748   4.191  1.00  0.00     0.079 A 
HETATM   27  C   UNL     1      44.895 -20.615   2.730  1.00  0.00     0.075 C 
ENDBRANCH   1  20
TORSDOF 5
ENDMDL
MODEL 9
REMARK VINA RESULT:      -7.2      2.702      6.605
REMARK  5 active torsions:
REMARK  status: ('A' for Active; 'I' for Inactive)
REMARK    1  A    between atoms: C_8  and  N_9 
REMARK       I    between atoms: N_9  and  C_10 
REMARK       I    between atoms: C_10  and  N_11 
REMARK    2  A    between atoms: N_11  and  C_12 
REMARK    3  A    between atoms: C_13  and  O_14 
REMARK    4  A    between atoms: O_14  and  C_15 
REMARK    5  A    between atoms: C_15  and  C_16 
ROOT
HETATM    1  N   UNL     1      43.612 -18.739   2.733  1.00  0.00    -0.305 N 
HETATM    2  C   UNL     1      42.604 -17.909   3.187  1.00  0.00     0.325 C 
HETATM    3  N   UNL     1      42.477 -16.813   2.354  1.00  0.00    -0.306 N 
HETATM    4  O   UNL     1      41.911 -18.116   4.175  1.00  0.00    -0.247 OA
HETATM    5  H   UNL     1      43.740 -18.756   1.733  1.00  0.00     0.171 HD
HETATM    6  H   UNL     1      43.322 -16.522   1.878  1.00  0.00     0.171 HD
ENDROOT
BRANCH   3   7
HETATM    7  C   UNL     1      41.426 -15.872   2.356  1.00  0.00     0.070 A 
HETATM    8  C   UNL     1      41.720 -14.560   2.767  1.00  0.00     0.098 A 
HETATM    9  C   UNL     1      40.750 -13.560   2.725  1.00  0.00     0.081 A 
HETATM   10  C   UNL     1      39.469 -13.885   2.299  1.00  0.00     0.119 A 
HETATM   11  F   UNL     1      38.529 -12.932   2.259  1.00  0.00    -0.206 F 
HETATM   12  C   UNL     1      39.148 -15.181   1.911  1.00  0.00     0.044 A 
HETATM   13  C   UNL     1      40.129 -16.177   1.936  1.00  0.00     0.035 A 
BRANCH   8  14
HETATM   14  O   UNL     1      42.998 -14.282   3.191  1.00  0.00    -0.340 OA
BRANCH  14  15
HETATM   15  C   UNL     1      42.983 -13.610   4.466  1.00  0.00     0.293 C 
BRANCH  15  16
HETATM   16  C   UNL     1      43.134 -14.621   5.591  1.00  0.00     0.408 C 
HETATM   17  F   UNL     1      43.816 -15.714   5.180  1.00  0.00    -0.169 F 
HETATM   18  F   UNL     1      43.789 -14.096   6.649  1.00  0.00    -0.169 F 
HETATM   19  F   UNL     1      41.922 -15.035   6.027  1.00  0.00    -0.169 F 
ENDBRANCH  15  16
ENDBRANCH  14  15
ENDBRANCH   8  14
ENDBRANCH   3   7
BRANCH   1  20
HETATM   20  C   UNL     1      44.137 -19.809   3.438  1.00  0.00     0.086 A 
HETATM   21  C   UNL     1      44.225 -21.083   2.912  1.00  0.00     0.052 A 
HETATM   22  C   UNL     1      43.804 -21.664   1.617  1.00  0.00     0.072 C 
HETATM   23  N   UNL     1      44.794 -21.847   3.892  1.00  0.00    -0.280 N 
HETATM   24  H   UNL     1      44.998 -22.840   3.873  1.00  0.00     0.189 HD
HETATM   25  N   UNL     1      45.118 -21.163   4.995  1.00  0.00    -0.177 NA
HETATM   26  C   UNL     1      44.724 -19.908   4.732  1.00  0.00     0.079 A 
HETATM   27  C   UNL     1      45.000 -18.849   5.735  1.00  0.00     0.075 C 
ENDBRANCH   1  20
TORSDOF 5
ENDMDL
MODEL 10
REMARK VINA RESULT:      -7.1      2.518      4.423
REMARK  5 active torsions:
REMARK  status: ('A' for Active; 'I' for Inactive)
REMARK    1  A    between atoms: C_8  and  N_9 
REMARK       I    between atoms: N_9  and  C_10 
REMARK       I    between atoms: C_10  and  N_11 
REMARK    2  A    between atoms: N_11  and  C_12 
REMARK    3  A    between atoms: C_13  and  O_14 
REMARK    4  A    between atoms: O_14  and  C_15 
REMARK    5  A    between atoms: C_15  and  C_16 
ROOT
HETATM    1  N   UNL     1      42.024 -14.815   2.979  1.00  0.00    -0.305 N 
HETATM    2  C   UNL     1      41.960 -15.871   3.869  1.00  0.00     0.325 C 
HETATM    3  N   UNL     1      43.155 -15.992   4.553  1.00  0.00    -0.306 N 
HETATM    4  O   UNL     1      40.985 -16.591   4.040  1.00  0.00    -0.247 OA
HETATM    5  H   UNL     1      42.605 -14.042   3.267  1.00  0.00     0.171 HD
HETATM    6  H   UNL     1      43.980 -15.677   4.057  1.00  0.00     0.171 HD
ENDROOT
BRANCH   3   7
HETATM    7  C   UNL     1      43.398 -16.794   5.688  1.00  0.00     0.070 A 
HETATM    8  C   UNL     1      44.137 -17.977   5.509  1.00  0.00     0.098 A 
HETATM    9  C   UNL     1      44.478 -18.782   6.595  1.00  0.00     0.081 A 
HETATM   10  C   UNL     1      44.047 -18.415   7.864  1.00  0.00     0.119 A 
HETATM   11  F   UNL     1      44.366 -19.183   8.913  1.00  0.00    -0.206 F 
HETATM   12  C   UNL     1      43.294 -17.263   8.061  1.00  0.00     0.044 A 
HETATM   13  C   UNL     1      42.971 -16.447   6.972  1.00  0.00     0.035 A 
BRANCH   8  14
HETATM   14  O   UNL     1      44.535 -18.309   4.236  1.00  0.00    -0.340 OA
BRANCH  14  15
HETATM   15  C   UNL     1      43.748 -19.401   3.718  1.00  0.00     0.293 C 
BRANCH  15  16
HETATM   16  C   UNL     1      43.463 -19.183   2.241  1.00  0.00     0.408 C 
HETATM   17  F   UNL     1      44.305 -18.268   1.708  1.00  0.00    -0.169 F 
HETATM   18  F   UNL     1      43.591 -20.326   1.534  1.00  0.00    -0.169 F 
HETATM   19  F   UNL     1      42.201 -18.730   2.059  1.00  0.00    -0.169 F 
ENDBRANCH  15  16
ENDBRANCH  14  15
ENDBRANCH   8  14
ENDBRANCH   3   7
BRANCH   1  20
HETATM   20  C   UNL     1      41.084 -14.545   1.999  1.00  0.00     0.086 A 
HETATM   21  C   UNL     1      40.171 -13.514   2.099  1.00  0.00     0.052 A 
HETATM   22  C   UNL     1      39.894 -12.520   3.160  1.00  0.00     0.072 C 
HETATM   23  N   UNL     1      39.431 -13.566   0.950  1.00  0.00    -0.280 N 
HETATM   24  H   UNL     1      38.652 -12.975   0.680  1.00  0.00     0.189 HD
HETATM   25  N   UNL     1      39.817 -14.521   0.098  1.00  0.00    -0.177 NA
HETATM   26  C   UNL     1      40.835 -15.130   0.724  1.00  0.00     0.079 A 
HETATM   27  C   UNL     1      41.559 -16.217   0.018  1.00  0.00     0.075 C 
ENDBRANCH   1  20
TORSDOF 5
ENDMDL
