MODEL 1
REMARK VINA RESULT:      -7.1      0.000      0.000
REMARK  2 active torsions:
REMARK  status: ('A' for Active; 'I' for Inactive)
REMARK    1  A    between atoms: C_2  and  C_3 
REMARK    2  A    between atoms: C_4  and  N_5 
ROOT
HETATM    1  N   UNL     1      42.561 -16.802   4.787  1.00  0.00    -0.321 N 
HETATM    2  C   UNL     1      41.326 -16.689   5.480  1.00  0.00     0.141 C 
HETATM    3  N   UNL     1      40.509 -17.691   5.631  1.00  0.00    -0.380 N 
HETATM    4  H   UNL     1      39.648 -17.561   6.142  1.00  0.00     0.158 HD
HETATM    5  H   UNL     1      40.764 -18.592   5.252  1.00  0.00     0.158 HD
HETATM    6  S   UNL     1      41.045 -15.120   6.114  1.00  0.00    -0.086 SA
HETATM    7  C   UNL     1      42.489 -14.431   5.191  1.00  0.00     0.093 C 
HETATM    8  C   UNL     1      43.445 -15.631   4.977  1.00  0.00     0.121 C 
HETATM    9  C   UNL     1      43.234 -13.328   5.910  1.00  0.00     0.158 C 
HETATM   10  S   UNL     1      44.503 -14.125   6.863  1.00  0.00     0.147 S 
HETATM   11  O   UNL     1      44.123 -14.109   8.258  1.00  0.00    -0.228 OA
HETATM   12  O   UNL     1      45.786 -13.641   6.400  1.00  0.00    -0.228 OA
HETATM   13  C   UNL     1      44.287 -15.773   6.245  1.00  0.00     0.167 C 
ENDROOT
BRANCH   1  14
HETATM   14  C   UNL     1      42.989 -17.822   3.919  1.00  0.00     0.043 A 
HETATM   15  C   UNL     1      42.591 -17.884   2.560  1.00  0.00    -0.028 A 
HETATM   16  C   UNL     1      43.032 -18.972   1.772  1.00  0.00     0.010 A 
HETATM   17  C   UNL     1      43.857 -19.965   2.294  1.00  0.00     0.001 A 
HETATM   18  C   UNL     1      44.261 -19.894   3.616  1.00  0.00     0.002 A 
HETATM   19  C   UNL     1      43.830 -18.836   4.416  1.00  0.00     0.030 A 
BRANCH  15  20
HETATM   20  C   UNL     1      41.776 -16.789   1.872  1.00  0.00     0.013 C 
HETATM   21  C   UNL     1      40.268 -17.040   1.986  1.00  0.00     0.015 C 
HETATM   22  C   UNL     1      42.180 -16.624   0.402  1.00  0.00     0.015 C 
ENDBRANCH  15  20
ENDBRANCH   1  14
TORSDOF 2
ENDMDL
MODEL 2
REMARK VINA RESULT:      -6.7      1.024      2.802
REMARK  2 active torsions:
REMARK  status: ('A' for Active; 'I' for Inactive)
REMARK    1  A    between atoms: C_2  and  C_3 
REMARK    2  A    between atoms: C_4  and  N_5 
ROOT
HETATM    1  N   UNL     1      42.638 -16.846   4.733  1.00  0.00    -0.321 N 
HETATM    2  C   UNL     1      41.356 -16.688   5.322  1.00  0.00     0.141 C 
HETATM    3  N   UNL     1      40.540 -17.685   5.511  1.00  0.00    -0.380 N 
HETATM    4  H   UNL     1      39.644 -17.521   5.946  1.00  0.00     0.158 HD
HETATM    5  H   UNL     1      40.831 -18.613   5.240  1.00  0.00     0.158 HD
HETATM    6  S   UNL     1      41.015 -15.071   5.781  1.00  0.00    -0.086 SA
HETATM    7  C   UNL     1      42.514 -14.448   4.900  1.00  0.00     0.093 C 
HETATM    8  C   UNL     1      43.494 -15.647   4.870  1.00  0.00     0.121 C 
HETATM    9  C   UNL     1      43.195 -13.270   5.560  1.00  0.00     0.158 C 
HETATM   10  S   UNL     1      44.401 -13.951   6.673  1.00  0.00     0.147 S 
HETATM   11  O   UNL     1      43.921 -13.808   8.029  1.00  0.00    -0.228 OA
HETATM   12  O   UNL     1      45.708 -13.492   6.256  1.00  0.00    -0.228 OA
HETATM   13  C   UNL     1      44.245 -15.653   6.202  1.00  0.00     0.167 C 
ENDROOT
BRANCH   1  14
HETATM   14  C   UNL     1      43.138 -17.936   3.999  1.00  0.00     0.043 A 
HETATM   15  C   UNL     1      43.756 -19.053   4.616  1.00  0.00    -0.028 A 
HETATM   16  C   UNL     1      44.273 -20.082   3.796  1.00  0.00     0.010 A 
HETATM   17  C   UNL     1      44.171 -20.031   2.408  1.00  0.00     0.001 A 
HETATM   18  C   UNL     1      43.550 -18.950   1.806  1.00  0.00     0.002 A 
HETATM   19  C   UNL     1      43.043 -17.916   2.594  1.00  0.00     0.030 A 
BRANCH  15  20
HETATM   20  C   UNL     1      43.820 -19.247   6.130  1.00  0.00     0.013 C 
HETATM   21  C   UNL     1      45.043 -18.556   6.745  1.00  0.00     0.015 C 
HETATM   22  C   UNL     1      43.800 -20.732   6.510  1.00  0.00     0.015 C 
ENDBRANCH  15  20
ENDBRANCH   1  14
TORSDOF 2
ENDMDL
MODEL 3
REMARK VINA RESULT:      -6.7      2.893      4.134
REMARK  2 active torsions:
REMARK  status: ('A' for Active; 'I' for Inactive)
REMARK    1  A    between atoms: C_2  and  C_3 
REMARK    2  A    between atoms: C_4  and  N_5 
ROOT
HETATM    1  N   UNL     1      42.282 -16.646   3.903  1.00  0.00    -0.321 N 
HETATM    2  C   UNL     1      40.958 -17.152   3.805  1.00  0.00     0.141 C 
HETATM    3  N   UNL     1      40.426 -17.912   4.717  1.00  0.00    -0.380 N 
HETATM    4  H   UNL     1      39.476 -18.236   4.605  1.00  0.00     0.158 HD
HETATM    5  H   UNL     1      40.967 -18.145   5.537  1.00  0.00     0.158 HD
HETATM    6  S   UNL     1      40.139 -16.635   2.390  1.00  0.00    -0.086 SA
HETATM    7  C   UNL     1      41.692 -15.929   1.683  1.00  0.00     0.093 C 
HETATM    8  C   UNL     1      42.579 -15.592   2.908  1.00  0.00     0.121 C 
HETATM    9  C   UNL     1      41.501 -14.678   0.854  1.00  0.00     0.158 C 
HETATM   10  S   UNL     1      41.648 -13.309   1.976  1.00  0.00     0.147 S 
HETATM   11  O   UNL     1      40.334 -12.759   2.221  1.00  0.00    -0.228 OA
HETATM   12  O   UNL     1      42.767 -12.496   1.551  1.00  0.00    -0.228 OA
HETATM   13  C   UNL     1      42.150 -14.216   3.415  1.00  0.00     0.167 C 
ENDROOT
BRANCH   1  14
HETATM   14  C   UNL     1      43.321 -17.068   4.751  1.00  0.00     0.043 A 
HETATM   15  C   UNL     1      44.013 -18.291   4.560  1.00  0.00    -0.028 A 
HETATM   16  C   UNL     1      45.013 -18.658   5.490  1.00  0.00     0.010 A 
HETATM   17  C   UNL     1      45.342 -17.842   6.569  1.00  0.00     0.001 A 
HETATM   18  C   UNL     1      44.679 -16.640   6.745  1.00  0.00     0.002 A 
HETATM   19  C   UNL     1      43.681 -16.261   5.847  1.00  0.00     0.030 A 
BRANCH  15  20
HETATM   20  C   UNL     1      43.796 -19.200   3.351  1.00  0.00     0.013 C 
HETATM   21  C   UNL     1      44.446 -20.575   3.542  1.00  0.00     0.015 C 
HETATM   22  C   UNL     1      44.299 -18.547   2.057  1.00  0.00     0.015 C 
ENDBRANCH  15  20
ENDBRANCH   1  14
TORSDOF 2
ENDMDL
MODEL 4
REMARK VINA RESULT:      -6.7      3.951      5.196
REMARK  2 active torsions:
REMARK  status: ('A' for Active; 'I' for Inactive)
REMARK    1  A    between atoms: C_2  and  C_3 
REMARK    2  A    between atoms: C_4  and  N_5 
ROOT
HETATM    1  N   UNL     1      41.261 -15.180   1.244  1.00  0.00    -0.321 N 
HETATM    2  C   UNL     1      39.841 -15.147   1.291  1.00  0.00     0.141 C 
HETATM    3  N   UNL     1      39.145 -15.919   2.074  1.00  0.00    -0.380 N 
HETATM    4  H   UNL     1      38.137 -15.848   2.077  1.00  0.00     0.158 HD
HETATM    5  H   UNL     1      39.628 -16.562   2.685  1.00  0.00     0.158 HD
HETATM    6  S   UNL     1      39.156 -13.976   0.242  1.00  0.00    -0.086 SA
HETATM    7  C   UNL     1      40.788 -13.663  -0.563  1.00  0.00     0.093 C 
HETATM    8  C   UNL     1      41.846 -14.041   0.503  1.00  0.00     0.121 C 
HETATM    9  C   UNL     1      41.017 -12.233  -1.000  1.00  0.00     0.158 C 
HETATM   10  S   UNL     1      41.784 -11.409   0.374  1.00  0.00     0.147 S 
HETATM   11  O   UNL     1      40.811 -10.545   1.006  1.00  0.00    -0.228 OA
HETATM   12  O   UNL     1      43.084 -10.939  -0.051  1.00  0.00    -0.228 OA
HETATM   13  C   UNL     1      42.030 -12.826   1.412  1.00  0.00     0.167 C 
ENDROOT
BRANCH   1  14
HETATM   14  C   UNL     1      42.131 -16.169   1.735  1.00  0.00     0.043 A 
HETATM   15  C   UNL     1      42.560 -16.207   3.086  1.00  0.00    -0.028 A 
HETATM   16  C   UNL     1      43.475 -17.209   3.481  1.00  0.00     0.010 A 
HETATM   17  C   UNL     1      43.945 -18.164   2.583  1.00  0.00     0.001 A 
HETATM   18  C   UNL     1      43.513 -18.138   1.269  1.00  0.00     0.002 A 
HETATM   19  C   UNL     1      42.619 -17.151   0.852  1.00  0.00     0.030 A 
BRANCH  15  20
HETATM   20  C   UNL     1      42.019 -15.269   4.165  1.00  0.00     0.013 C 
HETATM   21  C   UNL     1      43.143 -14.525   4.894  1.00  0.00     0.015 C 
HETATM   22  C   UNL     1      41.135 -16.017   5.171  1.00  0.00     0.015 C 
ENDBRANCH  15  20
ENDBRANCH   1  14
TORSDOF 2
ENDMDL
MODEL 5
REMARK VINA RESULT:      -6.5      3.465      5.051
REMARK  2 active torsions:
REMARK  status: ('A' for Active; 'I' for Inactive)
REMARK    1  A    between atoms: C_2  and  C_3 
REMARK    2  A    between atoms: C_4  and  N_5 
ROOT
HETATM    1  N   UNL     1      41.672 -14.494   4.025  1.00  0.00    -0.321 N 
HETATM    2  C   UNL     1      40.271 -14.709   4.113  1.00  0.00     0.141 C 
HETATM    3  N   UNL     1      39.660 -14.916   5.243  1.00  0.00    -0.380 N 
HETATM    4  H   UNL     1      38.660 -15.052   5.252  1.00  0.00     0.158 HD
HETATM    5  H   UNL     1      40.198 -14.913   6.098  1.00  0.00     0.158 HD
HETATM    6  S   UNL     1      39.478 -14.635   2.594  1.00  0.00    -0.086 SA
HETATM    7  C   UNL     1      41.090 -14.607   1.693  1.00  0.00     0.093 C 
HETATM    8  C   UNL     1      42.105 -14.006   2.697  1.00  0.00     0.121 C 
HETATM    9  C   UNL     1      41.096 -13.776   0.428  1.00  0.00     0.158 C 
HETATM   10  S   UNL     1      41.587 -12.139   0.911  1.00  0.00     0.147 S 
HETATM   11  O   UNL     1      40.426 -11.276   0.889  1.00  0.00    -0.228 OA
HETATM   12  O   UNL     1      42.813 -11.813   0.216  1.00  0.00    -0.228 OA
HETATM   13  C   UNL     1      41.993 -12.485   2.602  1.00  0.00     0.167 C 
ENDROOT
BRANCH   1  14
HETATM   14  C   UNL     1      42.661 -14.752   4.990  1.00  0.00     0.043 A 
HETATM   15  C   UNL     1      43.170 -16.053   5.234  1.00  0.00    -0.028 A 
HETATM   16  C   UNL     1      44.129 -16.227   6.258  1.00  0.00     0.010 A 
HETATM   17  C   UNL     1      44.594 -15.154   7.013  1.00  0.00     0.001 A 
HETATM   18  C   UNL     1      44.112 -13.881   6.763  1.00  0.00     0.002 A 
HETATM   19  C   UNL     1      43.157 -13.685   5.765  1.00  0.00     0.030 A 
BRANCH  15  20
HETATM   20  C   UNL     1      42.798 -17.271   4.389  1.00  0.00     0.013 C 
HETATM   21  C   UNL     1      41.617 -18.045   4.987  1.00  0.00     0.015 C 
HETATM   22  C   UNL     1      43.998 -18.204   4.185  1.00  0.00     0.015 C 
ENDBRANCH  15  20
ENDBRANCH   1  14
TORSDOF 2
ENDMDL
MODEL 6
REMARK VINA RESULT:      -6.4      3.998      5.261
REMARK  2 active torsions:
REMARK  status: ('A' for Active; 'I' for Inactive)
REMARK    1  A    between atoms: C_2  and  C_3 
REMARK    2  A    between atoms: C_4  and  N_5 
ROOT
HETATM    1  N   UNL     1      41.323 -14.939   2.003  1.00  0.00    -0.321 N 
HETATM    2  C   UNL     1      40.068 -15.274   1.430  1.00  0.00     0.141 C 
HETATM    3  N   UNL     1      39.142 -15.913   2.085  1.00  0.00    -0.380 N 
HETATM    4  H   UNL     1      38.262 -16.117   1.635  1.00  0.00     0.158 HD
HETATM    5  H   UNL     1      39.314 -16.174   3.046  1.00  0.00     0.158 HD
HETATM    6  S   UNL     1      39.893 -14.727  -0.186  1.00  0.00    -0.086 SA
HETATM    7  C   UNL     1      41.678 -14.262  -0.278  1.00  0.00     0.093 C 
HETATM    8  C   UNL     1      42.101 -13.982   1.185  1.00  0.00     0.121 C 
HETATM    9  C   UNL     1      41.973 -13.039  -1.119  1.00  0.00     0.158 C 
HETATM   10  S   UNL     1      41.893 -11.647  -0.019  1.00  0.00     0.147 S 
HETATM   11  O   UNL     1      40.668 -10.921  -0.269  1.00  0.00    -0.228 OA
HETATM   12  O   UNL     1      43.190 -11.007  -0.007  1.00  0.00    -0.228 OA
HETATM   13  C   UNL     1      41.712 -12.539   1.503  1.00  0.00     0.167 C 
ENDROOT
BRANCH   1  14
HETATM   14  C   UNL     1      41.918 -15.449   3.171  1.00  0.00     0.043 A 
HETATM   15  C   UNL     1      42.592 -16.696   3.203  1.00  0.00    -0.028 A 
HETATM   16  C   UNL     1      43.118 -17.153   4.433  1.00  0.00     0.010 A 
HETATM   17  C   UNL     1      43.006 -16.401   5.599  1.00  0.00     0.001 A 
HETATM   18  C   UNL     1      42.365 -15.174   5.564  1.00  0.00     0.002 A 
HETATM   19  C   UNL     1      41.827 -14.708   4.365  1.00  0.00     0.030 A 
BRANCH  15  20
HETATM   20  C   UNL     1      42.855 -17.540   1.956  1.00  0.00     0.013 C 
HETATM   21  C   UNL     1      42.764 -19.042   2.251  1.00  0.00     0.015 C 
HETATM   22  C   UNL     1      44.210 -17.202   1.322  1.00  0.00     0.015 C 
ENDBRANCH  15  20
ENDBRANCH   1  14
TORSDOF 2
ENDMDL
MODEL 7
REMARK VINA RESULT:      -6.3      4.206      5.340
REMARK  2 active torsions:
REMARK  status: ('A' for Active; 'I' for Inactive)
REMARK    1  A    between atoms: C_2  and  C_3 
REMARK    2  A    between atoms: C_4  and  N_5 
ROOT
HETATM    1  N   UNL     1      41.165 -14.578   3.399  1.00  0.00    -0.321 N 
HETATM    2  C   UNL     1      42.030 -13.496   3.086  1.00  0.00     0.141 C 
HETATM    3  N   UNL     1      43.324 -13.574   3.198  1.00  0.00    -0.380 N 
HETATM    4  H   UNL     1      43.895 -12.778   2.951  1.00  0.00     0.158 HD
HETATM    5  H   UNL     1      43.738 -14.441   3.507  1.00  0.00     0.158 HD
HETATM    6  S   UNL     1      41.198 -12.105   2.524  1.00  0.00    -0.086 SA
HETATM    7  C   UNL     1      39.563 -12.832   2.980  1.00  0.00     0.093 C 
HETATM    8  C   UNL     1      39.775 -14.366   2.938  1.00  0.00     0.121 C 
HETATM    9  C   UNL     1      38.425 -12.466   2.053  1.00  0.00     0.158 C 
HETATM   10  S   UNL     1      38.385 -13.718   0.795  1.00  0.00     0.147 S 
HETATM   11  O   UNL     1      38.914 -13.168  -0.433  1.00  0.00    -0.228 OA
HETATM   12  O   UNL     1      37.101 -14.383   0.862  1.00  0.00    -0.228 OA
HETATM   13  C   UNL     1      39.600 -14.810   1.486  1.00  0.00     0.167 C 
ENDROOT
BRANCH   1  14
HETATM   14  C   UNL     1      41.450 -15.744   4.131  1.00  0.00     0.043 A 
HETATM   15  C   UNL     1      42.016 -16.900   3.536  1.00  0.00    -0.028 A 
HETATM   16  C   UNL     1      42.224 -18.045   4.339  1.00  0.00     0.010 A 
HETATM   17  C   UNL     1      41.904 -18.055   5.694  1.00  0.00     0.001 A 
HETATM   18  C   UNL     1      41.369 -16.920   6.279  1.00  0.00     0.002 A 
HETATM   19  C   UNL     1      41.144 -15.782   5.505  1.00  0.00     0.030 A 
BRANCH  15  20
HETATM   20  C   UNL     1      42.495 -16.950   2.086  1.00  0.00     0.013 C 
HETATM   21  C   UNL     1      41.635 -17.886   1.229  1.00  0.00     0.015 C 
HETATM   22  C   UNL     1      43.972 -17.349   1.993  1.00  0.00     0.015 C 
ENDBRANCH  15  20
ENDBRANCH   1  14
TORSDOF 2
ENDMDL
MODEL 8
REMARK VINA RESULT:      -6.3      3.925      5.159
REMARK  2 active torsions:
REMARK  status: ('A' for Active; 'I' for Inactive)
REMARK    1  A    between atoms: C_2  and  C_3 
REMARK    2  A    between atoms: C_4  and  N_5 
ROOT
HETATM    1  N   UNL     1      42.261 -15.088   2.501  1.00  0.00    -0.321 N 
HETATM    2  C   UNL     1      42.765 -13.928   3.149  1.00  0.00     0.141 C 
HETATM    3  N   UNL     1      43.986 -13.844   3.592  1.00  0.00    -0.380 N 
HETATM    4  H   UNL     1      44.299 -12.992   4.035  1.00  0.00     0.158 HD
HETATM    5  H   UNL     1      44.610 -14.627   3.461  1.00  0.00     0.158 HD
HETATM    6  S   UNL     1      41.617 -12.659   3.256  1.00  0.00    -0.086 SA
HETATM    7  C   UNL     1      40.257 -13.768   2.680  1.00  0.00     0.093 C 
HETATM    8  C   UNL     1      40.957 -14.865   1.840  1.00  0.00     0.121 C 
HETATM    9  C   UNL     1      39.204 -13.092   1.830  1.00  0.00     0.158 C 
HETATM   10  S   UNL     1      39.747 -13.248   0.147  1.00  0.00     0.147 S 
HETATM   11  O   UNL     1      40.237 -11.966  -0.309  1.00  0.00    -0.228 OA
HETATM   12  O   UNL     1      38.751 -14.005  -0.580  1.00  0.00    -0.228 OA
HETATM   13  C   UNL     1      41.139 -14.310   0.428  1.00  0.00     0.167 C 
ENDROOT
BRANCH   1  14
HETATM   14  C   UNL     1      42.801 -16.386   2.482  1.00  0.00     0.043 A 
HETATM   15  C   UNL     1      42.876 -17.199   3.642  1.00  0.00    -0.028 A 
HETATM   16  C   UNL     1      43.478 -18.474   3.540  1.00  0.00     0.010 A 
HETATM   17  C   UNL     1      43.978 -18.951   2.332  1.00  0.00     0.001 A 
HETATM   18  C   UNL     1      43.888 -18.165   1.196  1.00  0.00     0.002 A 
HETATM   19  C   UNL     1      43.308 -16.899   1.273  1.00  0.00     0.030 A 
BRANCH  15  20
HETATM   20  C   UNL     1      42.262 -16.805   4.985  1.00  0.00     0.013 C 
HETATM   21  C   UNL     1      43.289 -16.854   6.121  1.00  0.00     0.015 C 
HETATM   22  C   UNL     1      41.047 -17.675   5.327  1.00  0.00     0.015 C 
ENDBRANCH  15  20
ENDBRANCH   1  14
TORSDOF 2
ENDMDL
MODEL 9
REMARK VINA RESULT:      -6.2      2.263      3.040
REMARK  2 active torsions:
REMARK  status: ('A' for Active; 'I' for Inactive)
REMARK    1  A    between atoms: C_2  and  C_3 
REMARK    2  A    between atoms: C_4  and  N_5 
ROOT
HETATM    1  N   UNL     1      43.579 -18.136   5.214  1.00  0.00    -0.321 N 
HETATM    2  C   UNL     1      44.319 -17.648   6.324  1.00  0.00     0.141 C 
HETATM    3  N   UNL     1      45.566 -17.957   6.529  1.00  0.00    -0.380 N 
HETATM    4  H   UNL     1      46.051 -17.574   7.328  1.00  0.00     0.158 HD
HETATM    5  H   UNL     1      46.037 -18.559   5.869  1.00  0.00     0.158 HD
HETATM    6  S   UNL     1      43.414 -16.597   7.333  1.00  0.00    -0.086 SA
HETATM    7  C   UNL     1      41.846 -17.010   6.447  1.00  0.00     0.093 C 
HETATM    8  C   UNL     1      42.285 -17.444   5.027  1.00  0.00     0.121 C 
HETATM    9  C   UNL     1      40.862 -15.867   6.333  1.00  0.00     0.158 C 
HETATM   10  S   UNL     1      41.243 -15.032   4.812  1.00  0.00     0.147 S 
HETATM   11  O   UNL     1      41.907 -13.784   5.116  1.00  0.00    -0.228 OA
HETATM   12  O   UNL     1      40.082 -15.108   3.953  1.00  0.00    -0.228 OA
HETATM   13  C   UNL     1      42.453 -16.172   4.195  1.00  0.00     0.167 C 
ENDROOT
BRANCH   1  14
HETATM   14  C   UNL     1      43.888 -19.206   4.357  1.00  0.00     0.043 A 
HETATM   15  C   UNL     1      43.669 -19.151   2.957  1.00  0.00    -0.028 A 
HETATM   16  C   UNL     1      43.964 -20.292   2.177  1.00  0.00     0.010 A 
HETATM   17  C   UNL     1      44.480 -21.453   2.747  1.00  0.00     0.001 A 
HETATM   18  C   UNL     1      44.712 -21.501   4.111  1.00  0.00     0.002 A 
HETATM   19  C   UNL     1      44.418 -20.391   4.903  1.00  0.00     0.030 A 
BRANCH  15  20
HETATM   20  C   UNL     1      43.206 -17.889   2.228  1.00  0.00     0.013 C 
HETATM   21  C   UNL     1      41.927 -18.131   1.418  1.00  0.00     0.015 C 
HETATM   22  C   UNL     1      44.309 -17.323   1.326  1.00  0.00     0.015 C 
ENDBRANCH  15  20
ENDBRANCH   1  14
TORSDOF 2
ENDMDL
MODEL 10
REMARK VINA RESULT:      -6.1      2.394      3.394
REMARK  2 active torsions:
REMARK  status: ('A' for Active; 'I' for Inactive)
REMARK    1  A    between atoms: C_2  and  C_3 
REMARK    2  A    between atoms: C_4  and  N_5 
ROOT
HETATM    1  N   UNL     1      41.477 -15.440   2.969  1.00  0.00    -0.321 N 
HETATM    2  C   UNL     1      40.134 -15.297   2.529  1.00  0.00     0.141 C 
HETATM    3  N   UNL     1      39.444 -16.287   2.043  1.00  0.00    -0.380 N 
HETATM    4  H   UNL     1      38.488 -16.135   1.755  1.00  0.00     0.158 HD
HETATM    5  H   UNL     1      39.871 -17.200   1.985  1.00  0.00     0.158 HD
HETATM    6  S   UNL     1      39.520 -13.709   2.734  1.00  0.00    -0.086 SA
HETATM    7  C   UNL     1      41.194 -13.058   3.162  1.00  0.00     0.093 C 
HETATM    8  C   UNL     1      41.968 -14.272   3.734  1.00  0.00     0.121 C 
HETATM    9  C   UNL     1      41.200 -11.943   4.185  1.00  0.00     0.158 C 
HETATM   10  S   UNL     1      41.339 -12.725   5.773  1.00  0.00     0.147 S 
HETATM   11  O   UNL     1      40.057 -12.668   6.438  1.00  0.00    -0.228 OA
HETATM   12  O   UNL     1      42.562 -12.266   6.396  1.00  0.00    -0.228 OA
HETATM   13  C   UNL     1      41.604 -14.387   5.214  1.00  0.00     0.167 C 
ENDROOT
BRANCH   1  14
HETATM   14  C   UNL     1      42.379 -16.487   2.707  1.00  0.00     0.043 A 
HETATM   15  C   UNL     1      42.785 -17.412   3.703  1.00  0.00    -0.028 A 
HETATM   16  C   UNL     1      43.733 -18.404   3.362  1.00  0.00     0.010 A 
HETATM   17  C   UNL     1      44.257 -18.502   2.076  1.00  0.00     0.001 A 
HETATM   18  C   UNL     1      43.847 -17.611   1.100  1.00  0.00     0.002 A 
HETATM   19  C   UNL     1      42.921 -16.616   1.414  1.00  0.00     0.030 A 
BRANCH  15  20
HETATM   20  C   UNL     1      42.188 -17.448   5.109  1.00  0.00     0.013 C 
HETATM   21  C   UNL     1      43.064 -18.244   6.083  1.00  0.00     0.015 C 
HETATM   22  C   UNL     1      40.759 -18.004   5.101  1.00  0.00     0.015 C 
ENDBRANCH  15  20
ENDBRANCH   1  14
TORSDOF 2
ENDMDL
