MODEL 1
REMARK VINA RESULT:     -10.7      0.000      0.000
REMARK  2 active torsions:
REMARK  status: ('A' for Active; 'I' for Inactive)
REMARK    1  A    between atoms: C_5  and  N_6 
REMARK    2  A    between atoms: C_9  and  C_10 
REMARK       I    between atoms: C_10  and  N_11 
ROOT
HETATM    1  N   UNL     1      43.411 -16.487   4.728  1.00  0.00    -0.281 N 
HETATM    2  C   UNL     1      43.859 -15.234   5.201  1.00  0.00     0.268 A 
HETATM    3  O   UNL     1      43.800 -14.159   4.594  1.00  0.00    -0.267 OA
HETATM    4  C   UNL     1      44.406 -15.184   6.580  1.00  0.00     0.101 A 
HETATM    5  C   UNL     1      44.456 -16.309   7.307  1.00  0.00     0.040 A 
HETATM    6  C   UNL     1      44.015 -17.577   6.775  1.00  0.00     0.034 A 
HETATM    7  C   UNL     1      43.518 -17.658   5.524  1.00  0.00     0.034 A 
HETATM    8  C   UNL     1      43.170 -19.010   4.916  1.00  0.00     0.059 C 
HETATM    9  C   UNL     1      43.868 -20.178   5.608  1.00  0.00     0.014 C 
HETATM   10  C   UNL     1      43.649 -20.120   7.105  1.00  0.00     0.084 C 
HETATM   11  C   UNL     1      44.118 -18.796   7.650  1.00  0.00     0.161 C 
HETATM   12  O   UNL     1      44.515 -18.685   8.808  1.00  0.00    -0.292 OA
ENDROOT
BRANCH   4  13
HETATM   13  C   UNL     1      44.874 -13.931   7.224  1.00  0.00     0.262 C 
HETATM   14  N   UNL     1      44.184 -13.580   8.423  1.00  0.00    -0.309 N 
HETATM   15  H   UNL     1      43.394 -14.180   8.662  1.00  0.00     0.170 HD
HETATM   16  C   UNL     1      44.421 -12.600   9.275  1.00  0.00     0.108 A 
HETATM   17  N   UNL     1      43.652 -12.437  10.355  1.00  0.00    -0.346 N 
HETATM   18  C   UNL     1      45.553 -11.627   9.105  1.00  0.00     0.049 A 
HETATM   19  C   UNL     1      43.869 -11.430  11.295  1.00  0.00     0.007 A 
HETATM   20  H   UNL     1      42.875 -13.066  10.513  1.00  0.00     0.167 HD
HETATM   21  C   UNL     1      42.930 -11.381  12.463  1.00  0.00     0.068 C 
HETATM   22  C   UNL     1      44.882 -10.562  11.144  1.00  0.00     0.025 A 
HETATM   23  C   UNL     1      45.758 -10.658  10.007  1.00  0.00     0.006 A 
HETATM   24  O   UNL     1      45.782 -13.243   6.797  1.00  0.00    -0.267 OA
ENDBRANCH   4  13
BRANCH   1  25
HETATM   25  C   UNL     1      42.830 -16.513   3.413  1.00  0.00     0.042 A 
HETATM   26  C   UNL     1      41.461 -16.276   3.236  1.00  0.00     0.030 A 
HETATM   27  C   UNL     1      40.915 -16.199   1.950  1.00  0.00     0.009 A 
HETATM   28  C   UNL     1      41.723 -16.373   0.822  1.00  0.00    -0.062 A 
HETATM   29  C   UNL     1      41.161 -16.248  -0.565  1.00  0.00     0.048 C 
HETATM   30  C   UNL     1      43.080 -16.662   0.998  1.00  0.00     0.009 A 
HETATM   31  C   UNL     1      43.627 -16.734   2.282  1.00  0.00     0.030 A 
ENDBRANCH   1  25
TORSDOF 2
ENDMDL
MODEL 2
REMARK VINA RESULT:     -10.3      1.305      1.481
REMARK  2 active torsions:
REMARK  status: ('A' for Active; 'I' for Inactive)
REMARK    1  A    between atoms: C_5  and  N_6 
REMARK    2  A    between atoms: C_9  and  C_10 
REMARK       I    between atoms: C_10  and  N_11 
ROOT
HETATM    1  N   UNL     1      42.840 -15.513   4.488  1.00  0.00    -0.281 N 
HETATM    2  C   UNL     1      43.346 -14.402   5.198  1.00  0.00     0.268 A 
HETATM    3  O   UNL     1      43.074 -13.214   4.988  1.00  0.00    -0.267 OA
HETATM    4  C   UNL     1      44.248 -14.679   6.344  1.00  0.00     0.101 A 
HETATM    5  C   UNL     1      44.546 -15.949   6.650  1.00  0.00     0.040 A 
HETATM    6  C   UNL     1      44.032 -17.058   5.880  1.00  0.00     0.034 A 
HETATM    7  C   UNL     1      43.214 -16.840   4.830  1.00  0.00     0.034 A 
HETATM    8  C   UNL     1      42.773 -17.994   3.941  1.00  0.00     0.059 C 
HETATM    9  C   UNL     1      43.684 -19.213   4.041  1.00  0.00     0.014 C 
HETATM   10  C   UNL     1      43.885 -19.614   5.488  1.00  0.00     0.084 C 
HETATM   11  C   UNL     1      44.426 -18.452   6.280  1.00  0.00     0.161 C 
HETATM   12  O   UNL     1      45.121 -18.629   7.279  1.00  0.00    -0.292 OA
ENDROOT
BRANCH   4  13
HETATM   13  C   UNL     1      44.819 -13.614   7.205  1.00  0.00     0.262 C 
HETATM   14  N   UNL     1      43.883 -12.987   8.081  1.00  0.00    -0.309 N 
HETATM   15  H   UNL     1      42.912 -13.279   7.962  1.00  0.00     0.170 HD
HETATM   16  C   UNL     1      44.087 -12.091   9.029  1.00  0.00     0.108 A 
HETATM   17  N   UNL     1      43.066 -11.621   9.752  1.00  0.00    -0.346 N 
HETATM   18  C   UNL     1      45.448 -11.556   9.367  1.00  0.00     0.049 A 
HETATM   19  C   UNL     1      43.227 -10.689  10.775  1.00  0.00     0.007 A 
HETATM   20  H   UNL     1      42.128 -11.951   9.561  1.00  0.00     0.167 HD
HETATM   21  C   UNL     1      41.989 -10.266  11.507  1.00  0.00     0.068 C 
HETATM   22  C   UNL     1      44.444 -10.212  11.079  1.00  0.00     0.025 A 
HETATM   23  C   UNL     1      45.602 -10.657  10.348  1.00  0.00     0.006 A 
HETATM   24  O   UNL     1      45.992 -13.289   7.201  1.00  0.00    -0.267 OA
ENDBRANCH   4  13
BRANCH   1  25
HETATM   25  C   UNL     1      41.922 -15.235   3.417  1.00  0.00     0.042 A 
HETATM   26  C   UNL     1      40.543 -15.190   3.658  1.00  0.00     0.030 A 
HETATM   27  C   UNL     1      39.657 -14.819   2.640  1.00  0.00     0.009 A 
HETATM   28  C   UNL     1      40.132 -14.501   1.364  1.00  0.00    -0.062 A 
HETATM   29  C   UNL     1      39.199 -14.057   0.274  1.00  0.00     0.048 C 
HETATM   30  C   UNL     1      41.503 -14.596   1.108  1.00  0.00     0.009 A 
HETATM   31  C   UNL     1      42.389 -14.962   2.125  1.00  0.00     0.030 A 
ENDBRANCH   1  25
TORSDOF 2
ENDMDL
MODEL 3
REMARK VINA RESULT:      -9.6      4.858      8.574
REMARK  2 active torsions:
REMARK  status: ('A' for Active; 'I' for Inactive)
REMARK    1  A    between atoms: C_5  and  N_6 
REMARK    2  A    between atoms: C_9  and  C_10 
REMARK       I    between atoms: C_10  and  N_11 
ROOT
HETATM    1  N   UNL     1      42.395 -17.499   2.823  1.00  0.00    -0.281 N 
HETATM    2  C   UNL     1      42.309 -16.695   1.665  1.00  0.00     0.268 A 
HETATM    3  O   UNL     1      42.769 -16.965   0.550  1.00  0.00    -0.267 OA
HETATM    4  C   UNL     1      41.546 -15.426   1.774  1.00  0.00     0.101 A 
HETATM    5  C   UNL     1      40.985 -15.098   2.946  1.00  0.00     0.040 A 
HETATM    6  C   UNL     1      41.122 -15.934   4.115  1.00  0.00     0.034 A 
HETATM    7  C   UNL     1      41.813 -17.091   4.051  1.00  0.00     0.034 A 
HETATM    8  C   UNL     1      42.067 -17.910   5.309  1.00  0.00     0.059 C 
HETATM    9  C   UNL     1      41.926 -17.100   6.594  1.00  0.00     0.014 C 
HETATM   10  C   UNL     1      40.605 -16.360   6.618  1.00  0.00     0.084 C 
HETATM   11  C   UNL     1      40.474 -15.487   5.396  1.00  0.00     0.161 C 
HETATM   12  O   UNL     1      39.797 -14.461   5.414  1.00  0.00    -0.292 OA
ENDROOT
BRANCH   4  13
HETATM   13  C   UNL     1      41.335 -14.503   0.631  1.00  0.00     0.262 C 
HETATM   14  N   UNL     1      40.305 -14.898  -0.275  1.00  0.00    -0.309 N 
HETATM   15  H   UNL     1      39.884 -15.808  -0.086  1.00  0.00     0.170 HD
HETATM   16  C   UNL     1      39.809 -14.257  -1.317  1.00  0.00     0.108 A 
HETATM   17  N   UNL     1      38.832 -14.801  -2.048  1.00  0.00    -0.346 N 
HETATM   18  C   UNL     1      40.284 -12.897  -1.740  1.00  0.00     0.049 A 
HETATM   19  C   UNL     1      38.261 -14.160  -3.147  1.00  0.00     0.007 A 
HETATM   20  H   UNL     1      38.479 -15.717  -1.803  1.00  0.00     0.167 HD
HETATM   21  C   UNL     1      37.163 -14.890  -3.861  1.00  0.00     0.068 C 
HETATM   22  C   UNL     1      38.684 -12.943  -3.524  1.00  0.00     0.025 A 
HETATM   23  C   UNL     1      39.737 -12.284  -2.798  1.00  0.00     0.006 A 
HETATM   24  O   UNL     1      41.963 -13.475   0.460  1.00  0.00    -0.267 OA
ENDBRANCH   4  13
BRANCH   1  25
HETATM   25  C   UNL     1      43.087 -18.753   2.690  1.00  0.00     0.042 A 
HETATM   26  C   UNL     1      44.253 -19.003   3.425  1.00  0.00     0.030 A 
HETATM   27  C   UNL     1      44.868 -20.259   3.374  1.00  0.00     0.009 A 
HETATM   28  C   UNL     1      44.338 -21.279   2.578  1.00  0.00    -0.062 A 
HETATM   29  C   UNL     1      44.960 -22.645   2.548  1.00  0.00     0.048 C 
HETATM   30  C   UNL     1      43.205 -21.015   1.803  1.00  0.00     0.009 A 
HETATM   31  C   UNL     1      42.587 -19.763   1.857  1.00  0.00     0.030 A 
ENDBRANCH   1  25
TORSDOF 2
ENDMDL
MODEL 4
REMARK VINA RESULT:      -9.5      1.959      4.183
REMARK  2 active torsions:
REMARK  status: ('A' for Active; 'I' for Inactive)
REMARK    1  A    between atoms: C_5  and  N_6 
REMARK    2  A    between atoms: C_9  and  C_10 
REMARK       I    between atoms: C_10  and  N_11 
ROOT
HETATM    1  N   UNL     1      42.853 -15.786   4.309  1.00  0.00    -0.281 N 
HETATM    2  C   UNL     1      43.630 -15.358   5.409  1.00  0.00     0.268 A 
HETATM    3  O   UNL     1      44.534 -15.996   5.958  1.00  0.00    -0.267 OA
HETATM    4  C   UNL     1      43.380 -13.989   5.926  1.00  0.00     0.101 A 
HETATM    5  C   UNL     1      42.441 -13.230   5.344  1.00  0.00     0.040 A 
HETATM    6  C   UNL     1      41.647 -13.716   4.240  1.00  0.00     0.034 A 
HETATM    7  C   UNL     1      41.846 -14.957   3.749  1.00  0.00     0.034 A 
HETATM    8  C   UNL     1      40.928 -15.518   2.672  1.00  0.00     0.059 C 
HETATM    9  C   UNL     1      39.583 -14.802   2.595  1.00  0.00     0.014 C 
HETATM   10  C   UNL     1      39.779 -13.304   2.494  1.00  0.00     0.084 C 
HETATM   11  C   UNL     1      40.604 -12.807   3.652  1.00  0.00     0.161 C 
HETATM   12  O   UNL     1      40.485 -11.658   4.075  1.00  0.00    -0.292 OA
ENDROOT
BRANCH   4  13
HETATM   13  C   UNL     1      44.147 -13.391   7.046  1.00  0.00     0.262 C 
HETATM   14  N   UNL     1      43.420 -12.451   7.837  1.00  0.00    -0.309 N 
HETATM   15  H   UNL     1      42.483 -12.231   7.499  1.00  0.00     0.170 HD
HETATM   16  C   UNL     1      43.776 -11.830   8.946  1.00  0.00     0.108 A 
HETATM   17  N   UNL     1      42.940 -10.978   9.546  1.00  0.00    -0.346 N 
HETATM   18  C   UNL     1      45.107 -12.040   9.608  1.00  0.00     0.049 A 
HETATM   19  C   UNL     1      43.257 -10.309  10.728  1.00  0.00     0.007 A 
HETATM   20  H   UNL     1      42.030 -10.801   9.138  1.00  0.00     0.167 HD
HETATM   21  C   UNL     1      42.212  -9.393  11.290  1.00  0.00     0.068 C 
HETATM   22  C   UNL     1      44.447 -10.498  11.321  1.00  0.00     0.025 A 
HETATM   23  C   UNL     1      45.412 -11.395  10.742  1.00  0.00     0.006 A 
HETATM   24  O   UNL     1      45.303 -13.670   7.307  1.00  0.00    -0.267 OA
ENDBRANCH   4  13
BRANCH   1  25
HETATM   25  C   UNL     1      43.144 -17.091   3.780  1.00  0.00     0.042 A 
HETATM   26  C   UNL     1      43.763 -17.229   2.532  1.00  0.00     0.030 A 
HETATM   27  C   UNL     1      44.139 -18.493   2.063  1.00  0.00     0.009 A 
HETATM   28  C   UNL     1      43.888 -19.638   2.824  1.00  0.00    -0.062 A 
HETATM   29  C   UNL     1      44.327 -20.996   2.356  1.00  0.00     0.048 C 
HETATM   30  C   UNL     1      43.223 -19.507   4.047  1.00  0.00     0.009 A 
HETATM   31  C   UNL     1      42.852 -18.245   4.519  1.00  0.00     0.030 A 
ENDBRANCH   1  25
TORSDOF 2
ENDMDL
MODEL 5
REMARK VINA RESULT:      -8.8      3.399      5.613
REMARK  2 active torsions:
REMARK  status: ('A' for Active; 'I' for Inactive)
REMARK    1  A    between atoms: C_5  and  N_6 
REMARK    2  A    between atoms: C_9  and  C_10 
REMARK       I    between atoms: C_10  and  N_11 
ROOT
HETATM    1  N   UNL     1      40.851 -14.330   3.800  1.00  0.00    -0.281 N 
HETATM    2  C   UNL     1      40.982 -13.779   5.094  1.00  0.00     0.268 A 
HETATM    3  O   UNL     1      41.742 -14.174   5.985  1.00  0.00    -0.267 OA
HETATM    4  C   UNL     1      40.171 -12.574   5.406  1.00  0.00     0.101 A 
HETATM    5  C   UNL     1      39.360 -12.071   4.466  1.00  0.00     0.040 A 
HETATM    6  C   UNL     1      39.232 -12.682   3.164  1.00  0.00     0.034 A 
HETATM    7  C   UNL     1      39.950 -13.780   2.851  1.00  0.00     0.034 A 
HETATM    8  C   UNL     1      39.725 -14.500   1.528  1.00  0.00     0.059 C 
HETATM    9  C   UNL     1      38.373 -14.187   0.895  1.00  0.00     0.014 C 
HETATM   10  C   UNL     1      38.158 -12.690   0.807  1.00  0.00     0.084 C 
HETATM   11  C   UNL     1      38.288 -12.063   2.171  1.00  0.00     0.161 C 
HETATM   12  O   UNL     1      37.692 -11.026   2.457  1.00  0.00    -0.292 OA
ENDROOT
BRANCH   4  13
HETATM   13  C   UNL     1      40.238 -11.864   6.706  1.00  0.00     0.262 C 
HETATM   14  N   UNL     1      41.535 -11.825   7.301  1.00  0.00    -0.309 N 
HETATM   15  H   UNL     1      42.254 -12.357   6.812  1.00  0.00     0.170 HD
HETATM   16  C   UNL     1      41.944 -11.195   8.387  1.00  0.00     0.108 A 
HETATM   17  N   UNL     1      43.217 -11.281   8.784  1.00  0.00    -0.346 N 
HETATM   18  C   UNL     1      41.037 -10.343   9.228  1.00  0.00     0.049 A 
HETATM   19  C   UNL     1      43.707 -10.623   9.911  1.00  0.00     0.007 A 
HETATM   20  H   UNL     1      43.868 -11.844   8.250  1.00  0.00     0.167 HD
HETATM   21  C   UNL     1      45.162 -10.804  10.223  1.00  0.00     0.068 C 
HETATM   22  C   UNL     1      42.896  -9.860  10.661  1.00  0.00     0.025 A 
HETATM   23  C   UNL     1      41.508  -9.714  10.312  1.00  0.00     0.006 A 
HETATM   24  O   UNL     1      39.284 -11.332   7.243  1.00  0.00    -0.267 OA
ENDBRANCH   4  13
BRANCH   1  25
HETATM   25  C   UNL     1      41.684 -15.461   3.491  1.00  0.00     0.042 A 
HETATM   26  C   UNL     1      41.280 -16.756   3.839  1.00  0.00     0.030 A 
HETATM   27  C   UNL     1      42.039 -17.865   3.448  1.00  0.00     0.009 A 
HETATM   28  C   UNL     1      43.220 -17.697   2.718  1.00  0.00    -0.062 A 
HETATM   29  C   UNL     1      44.021 -18.878   2.251  1.00  0.00     0.048 C 
HETATM   30  C   UNL     1      43.651 -16.402   2.414  1.00  0.00     0.009 A 
HETATM   31  C   UNL     1      42.891 -15.295   2.800  1.00  0.00     0.030 A 
ENDBRANCH   1  25
TORSDOF 2
ENDMDL
MODEL 6
REMARK VINA RESULT:      -8.8      4.677      7.857
REMARK  2 active torsions:
REMARK  status: ('A' for Active; 'I' for Inactive)
REMARK    1  A    between atoms: C_5  and  N_6 
REMARK    2  A    between atoms: C_9  and  C_10 
REMARK       I    between atoms: C_10  and  N_11 
ROOT
HETATM    1  N   UNL     1      41.199 -13.684   1.602  1.00  0.00    -0.281 N 
HETATM    2  C   UNL     1      41.947 -14.807   2.019  1.00  0.00     0.268 A 
HETATM    3  O   UNL     1      42.682 -15.502   1.309  1.00  0.00    -0.267 OA
HETATM    4  C   UNL     1      41.894 -15.163   3.460  1.00  0.00     0.101 A 
HETATM    5  C   UNL     1      41.149 -14.421   4.291  1.00  0.00     0.040 A 
HETATM    6  C   UNL     1      40.374 -13.297   3.819  1.00  0.00     0.034 A 
HETATM    7  C   UNL     1      40.396 -12.950   2.515  1.00  0.00     0.034 A 
HETATM    8  C   UNL     1      39.485 -11.848   1.993  1.00  0.00     0.059 C 
HETATM    9  C   UNL     1      38.293 -11.570   2.903  1.00  0.00     0.014 C 
HETATM   10  C   UNL     1      38.750 -11.344   4.329  1.00  0.00     0.084 C 
HETATM   11  C   UNL     1      39.552 -12.524   4.813  1.00  0.00     0.161 C 
HETATM   12  O   UNL     1      39.598 -12.820   6.006  1.00  0.00    -0.292 OA
ENDROOT
BRANCH   4  13
HETATM   13  C   UNL     1      42.660 -16.289   4.048  1.00  0.00     0.262 C 
HETATM   14  N   UNL     1      42.693 -17.472   3.249  1.00  0.00    -0.309 N 
HETATM   15  H   UNL     1      42.120 -17.443   2.405  1.00  0.00     0.170 HD
HETATM   16  C   UNL     1      43.361 -18.595   3.436  1.00  0.00     0.108 A 
HETATM   17  N   UNL     1      43.260 -19.600   2.561  1.00  0.00    -0.346 N 
HETATM   18  C   UNL     1      44.273 -18.818   4.608  1.00  0.00     0.049 A 
HETATM   19  C   UNL     1      43.956 -20.800   2.700  1.00  0.00     0.007 A 
HETATM   20  H   UNL     1      42.657 -19.499   1.754  1.00  0.00     0.167 HD
HETATM   21  C   UNL     1      43.751 -21.830   1.630  1.00  0.00     0.068 C 
HETATM   22  C   UNL     1      44.773 -20.998   3.747  1.00  0.00     0.025 A 
HETATM   23  C   UNL     1      44.939 -19.972   4.743  1.00  0.00     0.006 A 
HETATM   24  O   UNL     1      43.240 -16.235   5.116  1.00  0.00    -0.267 OA
ENDBRANCH   4  13
BRANCH   1  25
HETATM   25  C   UNL     1      41.304 -13.314   0.216  1.00  0.00     0.042 A 
HETATM   26  C   UNL     1      40.451 -13.883  -0.737  1.00  0.00     0.030 A 
HETATM   27  C   UNL     1      40.483 -13.449  -2.067  1.00  0.00     0.009 A 
HETATM   28  C   UNL     1      41.378 -12.452  -2.468  1.00  0.00    -0.062 A 
HETATM   29  C   UNL     1      41.393 -11.943  -3.881  1.00  0.00     0.048 C 
HETATM   30  C   UNL     1      42.266 -11.919  -1.529  1.00  0.00     0.009 A 
HETATM   31  C   UNL     1      42.231 -12.349  -0.200  1.00  0.00     0.030 A 
ENDBRANCH   1  25
TORSDOF 2
ENDMDL
MODEL 7
REMARK VINA RESULT:      -8.6      3.144      8.154
REMARK  2 active torsions:
REMARK  status: ('A' for Active; 'I' for Inactive)
REMARK    1  A    between atoms: C_5  and  N_6 
REMARK    2  A    between atoms: C_9  and  C_10 
REMARK       I    between atoms: C_10  and  N_11 
ROOT
HETATM    1  N   UNL     1      42.900 -16.586   4.664  1.00  0.00    -0.281 N 
HETATM    2  C   UNL     1      41.984 -16.404   3.604  1.00  0.00     0.268 A 
HETATM    3  O   UNL     1      41.618 -17.266   2.797  1.00  0.00    -0.267 OA
HETATM    4  C   UNL     1      41.354 -15.066   3.472  1.00  0.00     0.101 A 
HETATM    5  C   UNL     1      41.677 -14.101   4.344  1.00  0.00     0.040 A 
HETATM    6  C   UNL     1      42.642 -14.319   5.396  1.00  0.00     0.034 A 
HETATM    7  C   UNL     1      43.236 -15.521   5.541  1.00  0.00     0.034 A 
HETATM    8  C   UNL     1      44.344 -15.718   6.566  1.00  0.00     0.059 C 
HETATM    9  C   UNL     1      45.002 -14.411   6.999  1.00  0.00     0.014 C 
HETATM   10  C   UNL     1      43.957 -13.404   7.431  1.00  0.00     0.084 C 
HETATM   11  C   UNL     1      42.959 -13.180   6.324  1.00  0.00     0.161 C 
HETATM   12  O   UNL     1      42.358 -12.113   6.212  1.00  0.00    -0.292 OA
ENDROOT
BRANCH   4  13
HETATM   13  C   UNL     1      40.344 -14.743   2.435  1.00  0.00     0.262 C 
HETATM   14  N   UNL     1      40.882 -14.444   1.147  1.00  0.00    -0.309 N 
HETATM   15  H   UNL     1      41.900 -14.404   1.099  1.00  0.00     0.170 HD
HETATM   16  C   UNL     1      40.258 -14.220   0.005  1.00  0.00     0.108 A 
HETATM   17  N   UNL     1      40.950 -13.957  -1.107  1.00  0.00    -0.346 N 
HETATM   18  C   UNL     1      38.763 -14.258  -0.130  1.00  0.00     0.049 A 
HETATM   19  C   UNL     1      40.343 -13.731  -2.342  1.00  0.00     0.007 A 
HETATM   20  H   UNL     1      41.960 -13.919  -1.068  1.00  0.00     0.167 HD
HETATM   21  C   UNL     1      41.251 -13.460  -3.504  1.00  0.00     0.068 C 
HETATM   22  C   UNL     1      39.006 -13.766  -2.463  1.00  0.00     0.025 A 
HETATM   23  C   UNL     1      38.181 -14.038  -1.316  1.00  0.00     0.006 A 
HETATM   24  O   UNL     1      39.143 -14.740   2.630  1.00  0.00    -0.267 OA
ENDBRANCH   4  13
BRANCH   1  25
HETATM   25  C   UNL     1      43.460 -17.902   4.817  1.00  0.00     0.042 A 
HETATM   26  C   UNL     1      43.190 -18.660   5.963  1.00  0.00     0.030 A 
HETATM   27  C   UNL     1      43.649 -19.978   6.066  1.00  0.00     0.009 A 
HETATM   28  C   UNL     1      44.398 -20.553   5.035  1.00  0.00    -0.062 A 
HETATM   29  C   UNL     1      44.859 -21.980   5.111  1.00  0.00     0.048 C 
HETATM   30  C   UNL     1      44.713 -19.781   3.913  1.00  0.00     0.009 A 
HETATM   31  C   UNL     1      44.251 -18.466   3.807  1.00  0.00     0.030 A 
ENDBRANCH   1  25
TORSDOF 2
ENDMDL
MODEL 8
REMARK VINA RESULT:      -8.6      3.519      8.429
REMARK  2 active torsions:
REMARK  status: ('A' for Active; 'I' for Inactive)
REMARK    1  A    between atoms: C_5  and  N_6 
REMARK    2  A    between atoms: C_9  and  C_10 
REMARK       I    between atoms: C_10  and  N_11 
ROOT
HETATM    1  N   UNL     1      41.701 -15.036   4.637  1.00  0.00    -0.281 N 
HETATM    2  C   UNL     1      41.423 -14.996   3.253  1.00  0.00     0.268 A 
HETATM    3  O   UNL     1      40.827 -14.095   2.652  1.00  0.00    -0.267 OA
HETATM    4  C   UNL     1      41.942 -16.112   2.423  1.00  0.00     0.101 A 
HETATM    5  C   UNL     1      42.635 -17.097   3.009  1.00  0.00     0.040 A 
HETATM    6  C   UNL     1      42.872 -17.117   4.434  1.00  0.00     0.034 A 
HETATM    7  C   UNL     1      42.410 -16.121   5.217  1.00  0.00     0.034 A 
HETATM    8  C   UNL     1      42.547 -16.202   6.731  1.00  0.00     0.059 C 
HETATM    9  C   UNL     1      42.765 -17.623   7.241  1.00  0.00     0.014 C 
HETATM   10  C   UNL     1      43.906 -18.288   6.500  1.00  0.00     0.084 C 
HETATM   11  C   UNL     1      43.646 -18.266   5.016  1.00  0.00     0.161 C 
HETATM   12  O   UNL     1      44.112 -19.129   4.273  1.00  0.00    -0.292 OA
ENDROOT
BRANCH   4  13
HETATM   13  C   UNL     1      41.764 -16.180   0.951  1.00  0.00     0.262 C 
HETATM   14  N   UNL     1      40.695 -15.385   0.440  1.00  0.00    -0.309 N 
HETATM   15  H   UNL     1      40.119 -14.924   1.145  1.00  0.00     0.170 HD
HETATM   16  C   UNL     1      40.344 -15.150  -0.811  1.00  0.00     0.108 A 
HETATM   17  N   UNL     1      39.300 -14.364  -1.089  1.00  0.00    -0.346 N 
HETATM   18  C   UNL     1      41.083 -15.722  -1.987  1.00  0.00     0.049 A 
HETATM   19  C   UNL     1      38.897 -14.069  -2.390  1.00  0.00     0.007 A 
HETATM   20  H   UNL     1      38.769 -13.956  -0.330  1.00  0.00     0.167 HD
HETATM   21  C   UNL     1      37.714 -13.161  -2.544  1.00  0.00     0.068 C 
HETATM   22  C   UNL     1      39.559 -14.579  -3.442  1.00  0.00     0.025 A 
HETATM   23  C   UNL     1      40.693 -15.440  -3.238  1.00  0.00     0.006 A 
HETATM   24  O   UNL     1      42.468 -16.839   0.209  1.00  0.00    -0.267 OA
ENDBRANCH   4  13
BRANCH   1  25
HETATM   25  C   UNL     1      41.244 -13.921   5.423  1.00  0.00     0.042 A 
HETATM   26  C   UNL     1      42.106 -12.858   5.715  1.00  0.00     0.030 A 
HETATM   27  C   UNL     1      41.634 -11.726   6.390  1.00  0.00     0.009 A 
HETATM   28  C   UNL     1      40.298 -11.647   6.797  1.00  0.00    -0.062 A 
HETATM   29  C   UNL     1      39.765 -10.421   7.481  1.00  0.00     0.048 C 
HETATM   30  C   UNL     1      39.449 -12.730   6.552  1.00  0.00     0.009 A 
HETATM   31  C   UNL     1      39.918 -13.857   5.873  1.00  0.00     0.030 A 
ENDBRANCH   1  25
TORSDOF 2
ENDMDL
MODEL 9
REMARK VINA RESULT:      -8.5      4.891      7.865
REMARK  2 active torsions:
REMARK  status: ('A' for Active; 'I' for Inactive)
REMARK    1  A    between atoms: C_5  and  N_6 
REMARK    2  A    between atoms: C_9  and  C_10 
REMARK       I    between atoms: C_10  and  N_11 
ROOT
HETATM    1  N   UNL     1      42.160 -16.792   2.641  1.00  0.00    -0.281 N 
HETATM    2  C   UNL     1      42.256 -16.106   1.409  1.00  0.00     0.268 A 
HETATM    3  O   UNL     1      42.800 -16.522   0.380  1.00  0.00    -0.267 OA
HETATM    4  C   UNL     1      41.593 -14.781   1.316  1.00  0.00     0.101 A 
HETATM    5  C   UNL     1      40.948 -14.294   2.384  1.00  0.00     0.040 A 
HETATM    6  C   UNL     1      40.899 -15.014   3.636  1.00  0.00     0.034 A 
HETATM    7  C   UNL     1      41.495 -16.218   3.756  1.00  0.00     0.034 A 
HETATM    8  C   UNL     1      41.554 -16.920   5.105  1.00  0.00     0.059 C 
HETATM    9  C   UNL     1      41.354 -15.974   6.285  1.00  0.00     0.014 C 
HETATM   10  C   UNL     1      40.103 -15.142   6.097  1.00  0.00     0.084 C 
HETATM   11  C   UNL     1      40.167 -14.392   4.792  1.00  0.00     0.161 C 
HETATM   12  O   UNL     1      39.578 -13.323   4.640  1.00  0.00    -0.292 OA
ENDROOT
BRANCH   4  13
HETATM   13  C   UNL     1      41.574 -13.968   0.075  1.00  0.00     0.262 C 
HETATM   14  N   UNL     1      42.169 -12.676   0.196  1.00  0.00    -0.309 N 
HETATM   15  H   UNL     1      42.467 -12.420   1.137  1.00  0.00     0.170 HD
HETATM   16  C   UNL     1      42.400 -11.765  -0.732  1.00  0.00     0.108 A 
HETATM   17  N   UNL     1      42.978 -10.603  -0.414  1.00  0.00    -0.346 N 
HETATM   18  C   UNL     1      42.053 -11.967  -2.179  1.00  0.00     0.049 A 
HETATM   19  C   UNL     1      43.261  -9.614  -1.356  1.00  0.00     0.007 A 
HETATM   20  H   UNL     1      43.230 -10.419   0.549  1.00  0.00     0.167 HD
HETATM   21  C   UNL     1      43.924  -8.368  -0.851  1.00  0.00     0.068 C 
HETATM   22  C   UNL     1      42.952  -9.796  -2.650  1.00  0.00     0.025 A 
HETATM   23  C   UNL     1      42.322 -11.015  -3.082  1.00  0.00     0.006 A 
HETATM   24  O   UNL     1      41.110 -14.350  -0.984  1.00  0.00    -0.267 OA
ENDBRANCH   4  13
BRANCH   1  25
HETATM   25  C   UNL     1      42.756 -18.099   2.702  1.00  0.00     0.042 A 
HETATM   26  C   UNL     1      42.288 -19.132   1.880  1.00  0.00     0.030 A 
HETATM   27  C   UNL     1      42.933 -20.374   1.864  1.00  0.00     0.009 A 
HETATM   28  C   UNL     1      44.044 -20.609   2.680  1.00  0.00    -0.062 A 
HETATM   29  C   UNL     1      44.774 -21.920   2.641  1.00  0.00     0.048 C 
HETATM   30  C   UNL     1      44.481 -19.596   3.539  1.00  0.00     0.009 A 
HETATM   31  C   UNL     1      43.840 -18.354   3.552  1.00  0.00     0.030 A 
ENDBRANCH   1  25
TORSDOF 2
ENDMDL
MODEL 10
REMARK VINA RESULT:      -8.4      3.463      7.479
REMARK  2 active torsions:
REMARK  status: ('A' for Active; 'I' for Inactive)
REMARK    1  A    between atoms: C_5  and  N_6 
REMARK    2  A    between atoms: C_9  and  C_10 
REMARK       I    between atoms: C_10  and  N_11 
ROOT
HETATM    1  N   UNL     1      42.878 -16.891   4.810  1.00  0.00    -0.281 N 
HETATM    2  C   UNL     1      41.862 -16.777   3.836  1.00  0.00     0.268 A 
HETATM    3  O   UNL     1      41.446 -17.680   3.103  1.00  0.00    -0.267 OA
HETATM    4  C   UNL     1      41.184 -15.462   3.711  1.00  0.00     0.101 A 
HETATM    5  C   UNL     1      41.559 -14.453   4.509  1.00  0.00     0.040 A 
HETATM    6  C   UNL     1      42.625 -14.602   5.473  1.00  0.00     0.034 A 
HETATM    7  C   UNL     1      43.265 -15.782   5.608  1.00  0.00     0.034 A 
HETATM    8  C   UNL     1      44.469 -15.907   6.530  1.00  0.00     0.059 C 
HETATM    9  C   UNL     1      45.127 -14.567   6.846  1.00  0.00     0.014 C 
HETATM   10  C   UNL     1      44.099 -13.568   7.335  1.00  0.00     0.084 C 
HETATM   11  C   UNL     1      42.996 -13.417   6.321  1.00  0.00     0.161 C 
HETATM   12  O   UNL     1      42.356 -12.371   6.224  1.00  0.00    -0.292 OA
ENDROOT
BRANCH   4  13
HETATM   13  C   UNL     1      40.071 -15.208   2.763  1.00  0.00     0.262 C 
HETATM   14  N   UNL     1      39.545 -13.881   2.798  1.00  0.00    -0.309 N 
HETATM   15  H   UNL     1      39.933 -13.279   3.525  1.00  0.00     0.170 HD
HETATM   16  C   UNL     1      38.638 -13.315   2.025  1.00  0.00     0.108 A 
HETATM   17  N   UNL     1      38.277 -12.043   2.219  1.00  0.00    -0.346 N 
HETATM   18  C   UNL     1      37.970 -14.034   0.888  1.00  0.00     0.049 A 
HETATM   19  C   UNL     1      37.338 -11.390   1.421  1.00  0.00     0.007 A 
HETATM   20  H   UNL     1      38.698 -11.516   2.974  1.00  0.00     0.167 HD
HETATM   21  C   UNL     1      37.046  -9.958   1.753  1.00  0.00     0.068 C 
HETATM   22  C   UNL     1      36.742 -12.033   0.404  1.00  0.00     0.025 A 
HETATM   23  C   UNL     1      37.065 -13.407   0.125  1.00  0.00     0.006 A 
HETATM   24  O   UNL     1      39.629 -16.039   1.992  1.00  0.00    -0.267 OA
ENDBRANCH   4  13
BRANCH   1  25
HETATM   25  C   UNL     1      43.488 -18.185   4.961  1.00  0.00     0.042 A 
HETATM   26  C   UNL     1      43.297 -18.927   6.133  1.00  0.00     0.030 A 
HETATM   27  C   UNL     1      43.803 -20.227   6.239  1.00  0.00     0.009 A 
HETATM   28  C   UNL     1      44.522 -20.799   5.185  1.00  0.00    -0.062 A 
HETATM   29  C   UNL     1      45.033 -22.209   5.266  1.00  0.00     0.048 C 
HETATM   30  C   UNL     1      44.759 -20.040   4.035  1.00  0.00     0.009 A 
HETATM   31  C   UNL     1      44.249 -18.744   3.926  1.00  0.00     0.030 A 
ENDBRANCH   1  25
TORSDOF 2
ENDMDL
