MODEL 1
REMARK VINA RESULT:     -10.6      0.000      0.000
REMARK  6 active torsions:
REMARK  status: ('A' for Active; 'I' for Inactive)
REMARK    1  A    between atoms: C_7  and  N_8 
REMARK       I    between atoms: N_8  and  C_9 
REMARK    2  A    between atoms: C_9  and  C_10 
REMARK    3  A    between atoms: C_10  and  N_11 
REMARK       I    between atoms: N_11  and  C_12 
REMARK    4  A    between atoms: C_12  and  C_13 
REMARK    5  A    between atoms: N_16  and  C_17 
REMARK    6  A    between atoms: C_23  and  O_24 
ROOT
HETATM    1  C   UNL     1      42.656 -14.475   5.959  1.00  0.00     0.080 C 
HETATM    2  C   UNL     1      42.464 -14.519   4.437  1.00  0.00     0.029 C 
HETATM    3  C   UNL     1      43.314 -15.608   3.780  1.00  0.00     0.098 C 
HETATM    4  N   UNL     1      42.983 -16.889   4.409  1.00  0.00    -0.268 NA
HETATM    5  C   UNL     1      43.334 -16.943   5.835  1.00  0.00     0.098 C 
HETATM    6  C   UNL     1      42.538 -15.872   6.584  1.00  0.00     0.029 C 
ENDROOT
BRANCH   1   7
HETATM    7  C   UNL     1      43.956 -13.776   6.346  1.00  0.00     0.222 C 
HETATM    8  N   UNL     1      44.056 -13.497   7.690  1.00  0.00    -0.352 N 
HETATM    9  H   UNL     1      43.288 -13.706   8.315  1.00  0.00     0.162 HD
HETATM   10  O   UNL     1      44.851 -13.493   5.556  1.00  0.00    -0.273 OA
BRANCH   8  11
HETATM   11  C   UNL     1      45.272 -12.964   8.271  1.00  0.00     0.225 C 
BRANCH  11  12
HETATM   12  C   UNL     1      45.014 -11.690   9.081  1.00  0.00     0.239 C 
HETATM   13  N   UNL     1      43.794 -11.722   9.732  1.00  0.00    -0.326 N 
HETATM   14  H   UNL     1      43.327 -12.632   9.745  1.00  0.00     0.169 HD
HETATM   15  O   UNL     1      45.848 -10.791   9.123  1.00  0.00    -0.271 OA
BRANCH  13  16
HETATM   16  C   UNL     1      43.150 -10.673  10.413  1.00  0.00     0.035 A 
HETATM   17  C   UNL     1      42.136  -9.896   9.860  1.00  0.00     0.031 A 
HETATM   18  C   UNL     1      41.514  -8.901  10.621  1.00  0.00     0.022 A 
HETATM   19  C   UNL     1      41.898  -8.681  11.945  1.00  0.00     0.017 A 
HETATM   20  C   UNL     1      42.919  -9.449  12.524  1.00  0.00    -0.043 A 
HETATM   21 BR   UNL     1      40.981  -7.330  12.913  1.00  0.00    -0.051 Br
HETATM   22  C   UNL     1      43.353  -9.266  13.952  1.00  0.00     0.049 C 
HETATM   23  C   UNL     1      43.538 -10.439  11.740  1.00  0.00     0.037 A 
ENDBRANCH  13  16
ENDBRANCH  11  12
ENDBRANCH   8  11
ENDBRANCH   1   7
BRANCH   4  24
HETATM   24  C   UNL     1      43.323 -18.038   3.677  1.00  0.00     0.106 A 
HETATM   25  N   UNL     1      43.815 -19.119   4.323  1.00  0.00    -0.233 NA
HETATM   26  C   UNL     1      44.069 -20.252   3.628  1.00  0.00     0.102 A 
HETATM   27  C   UNL     1      43.853 -20.371   2.247  1.00  0.00    -0.004 A 
HETATM   28  C   UNL     1      44.556 -21.369   4.301  1.00  0.00     0.095 A 
HETATM   29  C   UNL     1      43.343 -19.256   1.585  1.00  0.00     0.017 A 
HETATM   30  C   UNL     1      44.131 -21.581   1.582  1.00  0.00     0.014 A 
HETATM   31  C   UNL     1      43.066 -18.095   2.306  1.00  0.00     0.045 A 
HETATM   32  C   UNL     1      44.619 -22.679   2.291  1.00  0.00     0.004 A 
HETATM   33  C   UNL     1      44.831 -22.575   3.661  1.00  0.00     0.039 A 
BRANCH  28  34
HETATM   34  O   UNL     1      44.767 -21.292   5.657  1.00  0.00    -0.358 OA
HETATM   35  H   UNL     1      45.013 -22.210   5.903  1.00  0.00     0.218 HD
ENDBRANCH  28  34
ENDBRANCH   4  24
TORSDOF 6
ENDMDL
MODEL 2
REMARK VINA RESULT:     -10.0      2.395      2.872
REMARK  6 active torsions:
REMARK  status: ('A' for Active; 'I' for Inactive)
REMARK    1  A    between atoms: C_7  and  N_8 
REMARK       I    between atoms: N_8  and  C_9 
REMARK    2  A    between atoms: C_9  and  C_10 
REMARK    3  A    between atoms: C_10  and  N_11 
REMARK       I    between atoms: N_11  and  C_12 
REMARK    4  A    between atoms: C_12  and  C_13 
REMARK    5  A    between atoms: N_16  and  C_17 
REMARK    6  A    between atoms: C_23  and  O_24 
ROOT
HETATM    1  C   UNL     1      42.597 -13.302   5.327  1.00  0.00     0.080 C 
HETATM    2  C   UNL     1      43.426 -14.385   6.033  1.00  0.00     0.029 C 
HETATM    3  C   UNL     1      43.134 -15.783   5.486  1.00  0.00     0.098 C 
HETATM    4  N   UNL     1      43.373 -15.768   4.041  1.00  0.00    -0.268 NA
HETATM    5  C   UNL     1      42.461 -14.878   3.311  1.00  0.00     0.098 C 
HETATM    6  C   UNL     1      42.669 -13.443   3.800  1.00  0.00     0.029 C 
ENDROOT
BRANCH   1   7
HETATM    7  C   UNL     1      41.160 -13.266   5.837  1.00  0.00     0.222 C 
HETATM    8  N   UNL     1      40.871 -12.158   6.601  1.00  0.00    -0.352 N 
HETATM    9  H   UNL     1      41.594 -11.485   6.821  1.00  0.00     0.162 HD
HETATM   10  O   UNL     1      40.316 -14.124   5.592  1.00  0.00    -0.273 OA
BRANCH   8  11
HETATM   11  C   UNL     1      39.524 -11.876   7.058  1.00  0.00     0.225 C 
BRANCH  11  12
HETATM   12  C   UNL     1      39.514 -11.098   8.377  1.00  0.00     0.239 C 
HETATM   13  N   UNL     1      40.615 -11.387   9.163  1.00  0.00    -0.326 N 
HETATM   14  H   UNL     1      41.360 -11.914   8.700  1.00  0.00     0.169 HD
HETATM   15  O   UNL     1      38.613 -10.306   8.634  1.00  0.00    -0.271 OA
BRANCH  13  16
HETATM   16  C   UNL     1      40.849 -11.005  10.497  1.00  0.00     0.035 A 
HETATM   17  C   UNL     1      39.882 -11.048  11.498  1.00  0.00     0.031 A 
HETATM   18  C   UNL     1      40.209 -10.696  12.810  1.00  0.00     0.022 A 
HETATM   19  C   UNL     1      41.509 -10.303  13.133  1.00  0.00     0.017 A 
HETATM   20  C   UNL     1      42.500 -10.248  12.143  1.00  0.00    -0.043 A 
HETATM   21 BR   UNL     1      41.871  -9.868  14.946  1.00  0.00    -0.051 Br
HETATM   22  C   UNL     1      43.919  -9.854  12.444  1.00  0.00     0.049 C 
HETATM   23  C   UNL     1      42.150 -10.600  10.826  1.00  0.00     0.037 A 
ENDBRANCH  13  16
ENDBRANCH  11  12
ENDBRANCH   8  11
ENDBRANCH   1   7
BRANCH   4  24
HETATM   24  C   UNL     1      43.577 -17.021   3.440  1.00  0.00     0.106 A 
HETATM   25  N   UNL     1      43.968 -18.069   4.199  1.00  0.00    -0.233 NA
HETATM   26  C   UNL     1      44.089 -19.293   3.634  1.00  0.00     0.102 A 
HETATM   27  C   UNL     1      43.834 -19.540   2.277  1.00  0.00    -0.004 A 
HETATM   28  C   UNL     1      44.472 -20.373   4.424  1.00  0.00     0.095 A 
HETATM   29  C   UNL     1      43.428 -18.459   1.498  1.00  0.00     0.017 A 
HETATM   30  C   UNL     1      43.972 -20.839   1.749  1.00  0.00     0.014 A 
HETATM   31  C   UNL     1      43.288 -17.202   2.087  1.00  0.00     0.045 A 
HETATM   32  C   UNL     1      44.358 -21.897   2.573  1.00  0.00     0.004 A 
HETATM   33  C   UNL     1      44.608 -21.664   3.920  1.00  0.00     0.039 A 
BRANCH  28  34
HETATM   34  O   UNL     1      44.719 -20.169   5.760  1.00  0.00    -0.358 OA
HETATM   35  H   UNL     1      45.678 -20.352   5.847  1.00  0.00     0.218 HD
ENDBRANCH  28  34
ENDBRANCH   4  24
TORSDOF 6
ENDMDL
MODEL 3
REMARK VINA RESULT:      -9.7      5.213      9.088
REMARK  6 active torsions:
REMARK  status: ('A' for Active; 'I' for Inactive)
REMARK    1  A    between atoms: C_7  and  N_8 
REMARK       I    between atoms: N_8  and  C_9 
REMARK    2  A    between atoms: C_9  and  C_10 
REMARK    3  A    between atoms: C_10  and  N_11 
REMARK       I    between atoms: N_11  and  C_12 
REMARK    4  A    between atoms: C_12  and  C_13 
REMARK    5  A    between atoms: N_16  and  C_17 
REMARK    6  A    between atoms: C_23  and  O_24 
ROOT
HETATM    1  C   UNL     1      41.899 -13.545   5.435  1.00  0.00     0.080 C 
HETATM    2  C   UNL     1      42.266 -12.612   4.272  1.00  0.00     0.029 C 
HETATM    3  C   UNL     1      42.487 -13.376   2.967  1.00  0.00     0.098 C 
HETATM    4  N   UNL     1      41.278 -14.153   2.681  1.00  0.00    -0.268 NA
HETATM    5  C   UNL     1      41.005 -15.190   3.686  1.00  0.00     0.098 C 
HETATM    6  C   UNL     1      40.780 -14.521   5.044  1.00  0.00     0.029 C 
ENDROOT
BRANCH   1   7
HETATM    7  C   UNL     1      43.124 -14.263   5.993  1.00  0.00     0.222 C 
HETATM    8  N   UNL     1      42.827 -15.197   6.958  1.00  0.00    -0.352 N 
HETATM    9  H   UNL     1      41.873 -15.322   7.274  1.00  0.00     0.162 HD
HETATM   10  O   UNL     1      44.276 -14.057   5.622  1.00  0.00    -0.273 OA
BRANCH   8  11
HETATM   11  C   UNL     1      43.839 -16.079   7.507  1.00  0.00     0.225 C 
BRANCH  11  12
HETATM   12  C   UNL     1      43.798 -17.471   6.870  1.00  0.00     0.239 C 
HETATM   13  N   UNL     1      44.271 -17.466   5.571  1.00  0.00    -0.326 N 
HETATM   14  H   UNL     1      44.747 -16.609   5.279  1.00  0.00     0.169 HD
HETATM   15  O   UNL     1      43.399 -18.442   7.506  1.00  0.00    -0.271 OA
BRANCH  13  16
HETATM   16  C   UNL     1      44.217 -18.509   4.628  1.00  0.00     0.035 A 
HETATM   17  C   UNL     1      43.873 -18.330   3.291  1.00  0.00     0.031 A 
HETATM   18  C   UNL     1      43.890 -19.413   2.407  1.00  0.00     0.022 A 
HETATM   19  C   UNL     1      44.259 -20.683   2.853  1.00  0.00     0.017 A 
HETATM   20  C   UNL     1      44.608 -20.890   4.195  1.00  0.00    -0.043 A 
HETATM   21 BR   UNL     1      44.282 -22.090   1.578  1.00  0.00    -0.051 Br
HETATM   22  C   UNL     1      45.034 -22.233   4.719  1.00  0.00     0.049 C 
HETATM   23  C   UNL     1      44.577 -19.790   5.071  1.00  0.00     0.037 A 
ENDBRANCH  13  16
ENDBRANCH  11  12
ENDBRANCH   8  11
ENDBRANCH   1   7
BRANCH   4  24
HETATM   24  C   UNL     1      41.115 -14.569   1.350  1.00  0.00     0.106 A 
HETATM   25  N   UNL     1      40.598 -13.711   0.442  1.00  0.00    -0.233 NA
HETATM   26  C   UNL     1      40.513 -14.085  -0.856  1.00  0.00     0.102 A 
HETATM   27  C   UNL     1      40.932 -15.340  -1.322  1.00  0.00    -0.004 A 
HETATM   28  C   UNL     1      40.001 -13.190  -1.790  1.00  0.00     0.095 A 
HETATM   29  C   UNL     1      41.466 -16.221  -0.384  1.00  0.00     0.017 A 
HETATM   30  C   UNL     1      40.823 -15.668  -2.688  1.00  0.00     0.014 A 
HETATM   31  C   UNL     1      41.568 -15.827   0.950  1.00  0.00     0.045 A 
HETATM   32  C   UNL     1      40.304 -14.743  -3.595  1.00  0.00     0.004 A 
HETATM   33  C   UNL     1      39.891 -13.494  -3.145  1.00  0.00     0.039 A 
BRANCH  28  34
HETATM   34  O   UNL     1      39.592 -11.946  -1.370  1.00  0.00    -0.358 OA
HETATM   35  H   UNL     1      39.682 -11.392  -2.175  1.00  0.00     0.218 HD
ENDBRANCH  28  34
ENDBRANCH   4  24
TORSDOF 6
ENDMDL
MODEL 4
REMARK VINA RESULT:      -9.6      2.591      3.328
REMARK  6 active torsions:
REMARK  status: ('A' for Active; 'I' for Inactive)
REMARK    1  A    between atoms: C_7  and  N_8 
REMARK       I    between atoms: N_8  and  C_9 
REMARK    2  A    between atoms: C_9  and  C_10 
REMARK    3  A    between atoms: C_10  and  N_11 
REMARK       I    between atoms: N_11  and  C_12 
REMARK    4  A    between atoms: C_12  and  C_13 
REMARK    5  A    between atoms: N_16  and  C_17 
REMARK    6  A    between atoms: C_23  and  O_24 
ROOT
HETATM    1  C   UNL     1      42.477 -13.140   5.022  1.00  0.00     0.080 C 
HETATM    2  C   UNL     1      43.288 -13.762   6.168  1.00  0.00     0.029 C 
HETATM    3  C   UNL     1      43.082 -15.274   6.265  1.00  0.00     0.098 C 
HETATM    4  N   UNL     1      43.425 -15.867   4.970  1.00  0.00    -0.268 NA
HETATM    5  C   UNL     1      42.538 -15.434   3.881  1.00  0.00     0.098 C 
HETATM    6  C   UNL     1      42.663 -13.918   3.712  1.00  0.00     0.029 C 
ENDROOT
BRANCH   1   7
HETATM    7  C   UNL     1      41.006 -12.976   5.394  1.00  0.00     0.222 C 
HETATM    8  N   UNL     1      40.803 -12.247   6.543  1.00  0.00    -0.352 N 
HETATM    9  H   UNL     1      41.591 -11.917   7.086  1.00  0.00     0.162 HD
HETATM   10  O   UNL     1      40.072 -13.429   4.738  1.00  0.00    -0.273 OA
BRANCH   8  11
HETATM   11  C   UNL     1      39.475 -11.865   6.981  1.00  0.00     0.225 C 
BRANCH  11  12
HETATM   12  C   UNL     1      39.505 -11.074   8.292  1.00  0.00     0.239 C 
HETATM   13  N   UNL     1      40.597 -11.400   9.074  1.00  0.00    -0.326 N 
HETATM   14  H   UNL     1      41.317 -11.962   8.613  1.00  0.00     0.169 HD
HETATM   15  O   UNL     1      38.638 -10.243   8.545  1.00  0.00    -0.271 OA
BRANCH  13  16
HETATM   16  C   UNL     1      40.854 -11.014  10.403  1.00  0.00     0.035 A 
HETATM   17  C   UNL     1      39.899 -11.034  11.416  1.00  0.00     0.031 A 
HETATM   18  C   UNL     1      40.249 -10.679  12.722  1.00  0.00     0.022 A 
HETATM   19  C   UNL     1      41.560 -10.307  13.026  1.00  0.00     0.017 A 
HETATM   20  C   UNL     1      42.539 -10.276  12.024  1.00  0.00    -0.043 A 
HETATM   21 BR   UNL     1      41.952  -9.868  14.831  1.00  0.00    -0.051 Br
HETATM   22  C   UNL     1      43.968  -9.905  12.304  1.00  0.00     0.049 C 
HETATM   23  C   UNL     1      42.166 -10.629  10.714  1.00  0.00     0.037 A 
ENDBRANCH  13  16
ENDBRANCH  11  12
ENDBRANCH   8  11
ENDBRANCH   1   7
BRANCH   4  24
HETATM   24  C   UNL     1      43.712 -17.242   4.980  1.00  0.00     0.106 A 
HETATM   25  N   UNL     1      43.646 -17.946   3.828  1.00  0.00    -0.233 NA
HETATM   26  C   UNL     1      43.998 -19.252   3.825  1.00  0.00     0.102 A 
HETATM   27  C   UNL     1      44.430 -19.934   4.972  1.00  0.00    -0.004 A 
HETATM   28  C   UNL     1      43.949 -19.968   2.632  1.00  0.00     0.095 A 
HETATM   29  C   UNL     1      44.500 -19.206   6.158  1.00  0.00     0.017 A 
HETATM   30  C   UNL     1      44.789 -21.295   4.902  1.00  0.00     0.014 A 
HETATM   31  C   UNL     1      44.152 -17.855   6.155  1.00  0.00     0.045 A 
HETATM   32  C   UNL     1      44.727 -21.978   3.687  1.00  0.00     0.004 A 
HETATM   33  C   UNL     1      44.305 -21.311   2.543  1.00  0.00     0.039 A 
BRANCH  28  34
HETATM   34  O   UNL     1      43.542 -19.328   1.485  1.00  0.00    -0.358 OA
HETATM   35  H   UNL     1      42.565 -19.319   1.563  1.00  0.00     0.218 HD
ENDBRANCH  28  34
ENDBRANCH   4  24
TORSDOF 6
ENDMDL
MODEL 5
REMARK VINA RESULT:      -9.4      3.550      5.686
REMARK  6 active torsions:
REMARK  status: ('A' for Active; 'I' for Inactive)
REMARK    1  A    between atoms: C_7  and  N_8 
REMARK       I    between atoms: N_8  and  C_9 
REMARK    2  A    between atoms: C_9  and  C_10 
REMARK    3  A    between atoms: C_10  and  N_11 
REMARK       I    between atoms: N_11  and  C_12 
REMARK    4  A    between atoms: C_12  and  C_13 
REMARK    5  A    between atoms: N_16  and  C_17 
REMARK    6  A    between atoms: C_23  and  O_24 
ROOT
HETATM    1  C   UNL     1      42.720 -14.414   5.786  1.00  0.00     0.080 C 
HETATM    2  C   UNL     1      41.752 -13.330   5.291  1.00  0.00     0.029 C 
HETATM    3  C   UNL     1      42.109 -12.836   3.888  1.00  0.00     0.098 C 
HETATM    4  N   UNL     1      42.139 -13.993   2.989  1.00  0.00    -0.268 NA
HETATM    5  C   UNL     1      43.189 -14.963   3.328  1.00  0.00     0.098 C 
HETATM    6  C   UNL     1      42.927 -15.511   4.732  1.00  0.00     0.029 C 
ENDROOT
BRANCH   1   7
HETATM    7  C   UNL     1      44.040 -13.818   6.267  1.00  0.00     0.222 C 
HETATM    8  N   UNL     1      44.015 -13.405   7.580  1.00  0.00    -0.352 N 
HETATM    9  H   UNL     1      43.161 -13.463   8.119  1.00  0.00     0.162 HD
HETATM   10  O   UNL     1      45.048 -13.719   5.574  1.00  0.00    -0.273 OA
BRANCH   8  11
HETATM   11  C   UNL     1      45.211 -12.943   8.257  1.00  0.00     0.225 C 
BRANCH  11  12
HETATM   12  C   UNL     1      44.952 -11.683   9.087  1.00  0.00     0.239 C 
HETATM   13  N   UNL     1      43.736 -11.730   9.744  1.00  0.00    -0.326 N 
HETATM   14  H   UNL     1      43.272 -12.641   9.746  1.00  0.00     0.169 HD
HETATM   15  O   UNL     1      45.783 -10.781   9.138  1.00  0.00    -0.271 OA
BRANCH  13  16
HETATM   16  C   UNL     1      43.091 -10.693  10.444  1.00  0.00     0.035 A 
HETATM   17  C   UNL     1      42.028  -9.954   9.931  1.00  0.00     0.031 A 
HETATM   18  C   UNL     1      41.412  -8.971  10.711  1.00  0.00     0.022 A 
HETATM   19  C   UNL     1      41.850  -8.724  12.013  1.00  0.00     0.017 A 
HETATM   20  C   UNL     1      42.920  -9.452  12.551  1.00  0.00    -0.043 A 
HETATM   21 BR   UNL     1      40.936  -7.391  13.010  1.00  0.00    -0.051 Br
HETATM   22  C   UNL     1      43.414  -9.240  13.955  1.00  0.00     0.049 C 
HETATM   23  C   UNL     1      43.533 -10.432  11.749  1.00  0.00     0.037 A 
ENDBRANCH  13  16
ENDBRANCH  11  12
ENDBRANCH   8  11
ENDBRANCH   1   7
BRANCH   4  24
HETATM   24  C   UNL     1      42.021 -13.709   1.619  1.00  0.00     0.106 A 
HETATM   25  N   UNL     1      42.406 -12.500   1.153  1.00  0.00    -0.233 NA
HETATM   26  C   UNL     1      42.365 -12.254  -0.177  1.00  0.00     0.102 A 
HETATM   27  C   UNL     1      41.932 -13.199  -1.119  1.00  0.00    -0.004 A 
HETATM   28  C   UNL     1      42.782 -11.015  -0.654  1.00  0.00     0.095 A 
HETATM   29  C   UNL     1      41.538 -14.445  -0.637  1.00  0.00     0.017 A 
HETATM   30  C   UNL     1      41.918 -12.885  -2.493  1.00  0.00     0.014 A 
HETATM   31  C   UNL     1      41.597 -14.701   0.733  1.00  0.00     0.045 A 
HETATM   32  C   UNL     1      42.344 -11.631  -2.932  1.00  0.00     0.004 A 
HETATM   33  C   UNL     1      42.781 -10.689  -2.008  1.00  0.00     0.039 A 
BRANCH  28  34
HETATM   34  O   UNL     1      43.225 -10.070   0.240  1.00  0.00    -0.358 OA
HETATM   35  H   UNL     1      43.552 -10.604   0.995  1.00  0.00     0.218 HD
ENDBRANCH  28  34
ENDBRANCH   4  24
TORSDOF 6
ENDMDL
MODEL 6
REMARK VINA RESULT:      -9.3      1.917      2.188
REMARK  6 active torsions:
REMARK  status: ('A' for Active; 'I' for Inactive)
REMARK    1  A    between atoms: C_7  and  N_8 
REMARK       I    between atoms: N_8  and  C_9 
REMARK    2  A    between atoms: C_9  and  C_10 
REMARK    3  A    between atoms: C_10  and  N_11 
REMARK       I    between atoms: N_11  and  C_12 
REMARK    4  A    between atoms: C_12  and  C_13 
REMARK    5  A    between atoms: N_16  and  C_17 
REMARK    6  A    between atoms: C_23  and  O_24 
ROOT
HETATM    1  C   UNL     1      40.234 -13.347   5.019  1.00  0.00     0.080 C 
HETATM    2  C   UNL     1      40.284 -13.586   3.504  1.00  0.00     0.029 C 
HETATM    3  C   UNL     1      41.413 -14.537   3.107  1.00  0.00     0.098 C 
HETATM    4  N   UNL     1      41.240 -15.788   3.850  1.00  0.00    -0.268 NA
HETATM    5  C   UNL     1      41.378 -15.623   5.303  1.00  0.00     0.098 C 
HETATM    6  C   UNL     1      40.290 -14.668   5.801  1.00  0.00     0.029 C 
ENDROOT
BRANCH   1   7
HETATM    7  C   UNL     1      41.306 -12.361   5.474  1.00  0.00     0.222 C 
HETATM    8  N   UNL     1      41.776 -12.600   6.745  1.00  0.00    -0.352 N 
HETATM    9  H   UNL     1      41.377 -13.341   7.307  1.00  0.00     0.162 HD
HETATM   10  O   UNL     1      41.737 -11.441   4.784  1.00  0.00    -0.273 OA
BRANCH   8  11
HETATM   11  C   UNL     1      42.892 -11.859   7.299  1.00  0.00     0.225 C 
BRANCH  11  12
HETATM   12  C   UNL     1      42.431 -10.729   8.224  1.00  0.00     0.239 C 
HETATM   13  N   UNL     1      42.436 -11.108   9.555  1.00  0.00    -0.326 N 
HETATM   14  H   UNL     1      42.910 -11.991   9.758  1.00  0.00     0.169 HD
HETATM   15  O   UNL     1      42.127  -9.629   7.772  1.00  0.00    -0.271 OA
BRANCH  13  16
HETATM   16  C   UNL     1      41.914 -10.404  10.655  1.00  0.00     0.035 A 
HETATM   17  C   UNL     1      40.578 -10.032  10.775  1.00  0.00     0.031 A 
HETATM   18  C   UNL     1      40.129  -9.375  11.925  1.00  0.00     0.022 A 
HETATM   19  C   UNL     1      41.013  -9.091  12.967  1.00  0.00     0.017 A 
HETATM   20  C   UNL     1      42.364  -9.453  12.870  1.00  0.00    -0.043 A 
HETATM   21 BR   UNL     1      40.312  -8.222  14.503  1.00  0.00    -0.051 Br
HETATM   22  C   UNL     1      43.351  -9.191  13.973  1.00  0.00     0.049 C 
HETATM   23  C   UNL     1      42.799 -10.107  11.702  1.00  0.00     0.037 A 
ENDBRANCH  13  16
ENDBRANCH  11  12
ENDBRANCH   8  11
ENDBRANCH   1   7
BRANCH   4  24
HETATM   24  C   UNL     1      41.896 -16.912   3.322  1.00  0.00     0.106 A 
HETATM   25  N   UNL     1      42.758 -17.606   4.098  1.00  0.00    -0.233 NA
HETATM   26  C   UNL     1      43.331 -18.733   3.615  1.00  0.00     0.102 A 
HETATM   27  C   UNL     1      43.082 -19.229   2.326  1.00  0.00    -0.004 A 
HETATM   28  C   UNL     1      44.201 -19.456   4.425  1.00  0.00     0.095 A 
HETATM   29  C   UNL     1      42.192 -18.512   1.529  1.00  0.00     0.017 A 
HETATM   30  C   UNL     1      43.705 -20.412   1.883  1.00  0.00     0.014 A 
HETATM   31  C   UNL     1      41.590 -17.360   2.037  1.00  0.00     0.045 A 
HETATM   32  C   UNL     1      44.572 -21.109   2.725  1.00  0.00     0.004 A 
HETATM   33  C   UNL     1      44.822 -20.630   4.006  1.00  0.00     0.039 A 
BRANCH  28  34
HETATM   34  O   UNL     1      44.458 -19.007   5.698  1.00  0.00    -0.358 OA
HETATM   35  H   UNL     1      45.420 -18.818   5.685  1.00  0.00     0.218 HD
ENDBRANCH  28  34
ENDBRANCH   4  24
TORSDOF 6
ENDMDL
MODEL 7
REMARK VINA RESULT:      -9.3      5.155      7.542
REMARK  6 active torsions:
REMARK  status: ('A' for Active; 'I' for Inactive)
REMARK    1  A    between atoms: C_7  and  N_8 
REMARK       I    between atoms: N_8  and  C_9 
REMARK    2  A    between atoms: C_9  and  C_10 
REMARK    3  A    between atoms: C_10  and  N_11 
REMARK       I    between atoms: N_11  and  C_12 
REMARK    4  A    between atoms: C_12  and  C_13 
REMARK    5  A    between atoms: N_16  and  C_17 
REMARK    6  A    between atoms: C_23  and  O_24 
ROOT
HETATM    1  C   UNL     1      42.758 -13.566   5.379  1.00  0.00     0.080 C 
HETATM    2  C   UNL     1      43.197 -14.810   6.164  1.00  0.00     0.029 C 
HETATM    3  C   UNL     1      42.862 -16.106   5.425  1.00  0.00     0.098 C 
HETATM    4  N   UNL     1      43.483 -16.050   4.099  1.00  0.00    -0.268 NA
HETATM    5  C   UNL     1      42.943 -14.980   3.250  1.00  0.00     0.098 C 
HETATM    6  C   UNL     1      43.218 -13.630   3.916  1.00  0.00     0.029 C 
ENDROOT
BRANCH   1   7
HETATM    7  C   UNL     1      41.257 -13.319   5.503  1.00  0.00     0.222 C 
HETATM    8  N   UNL     1      40.874 -12.046   5.143  1.00  0.00    -0.352 N 
HETATM    9  H   UNL     1      41.567 -11.358   4.880  1.00  0.00     0.162 HD
HETATM   10  O   UNL     1      40.444 -14.162   5.870  1.00  0.00    -0.273 OA
BRANCH   8  11
HETATM   11  C   UNL     1      39.478 -11.664   5.060  1.00  0.00     0.225 C 
BRANCH  11  12
HETATM   12  C   UNL     1      38.936 -11.769   3.631  1.00  0.00     0.239 C 
HETATM   13  N   UNL     1      39.277 -12.966   3.029  1.00  0.00    -0.326 N 
HETATM   14  H   UNL     1      39.666 -13.677   3.653  1.00  0.00     0.169 HD
HETATM   15  O   UNL     1      38.261 -10.865   3.147  1.00  0.00    -0.271 OA
BRANCH  13  16
HETATM   16  C   UNL     1      39.109 -13.333   1.681  1.00  0.00     0.035 A 
HETATM   17  C   UNL     1      37.869 -13.487   1.067  1.00  0.00     0.031 A 
HETATM   18  C   UNL     1      37.790 -13.808  -0.291  1.00  0.00     0.022 A 
HETATM   19  C   UNL     1      38.951 -13.972  -1.048  1.00  0.00     0.017 A 
HETATM   20  C   UNL     1      40.212 -13.825  -0.452  1.00  0.00    -0.043 A 
HETATM   21 BR   UNL     1      38.749 -14.379  -2.891  1.00  0.00    -0.051 Br
HETATM   22  C   UNL     1      41.491 -13.969  -1.228  1.00  0.00     0.049 C 
HETATM   23  C   UNL     1      40.272 -13.509   0.917  1.00  0.00     0.037 A 
ENDBRANCH  13  16
ENDBRANCH  11  12
ENDBRANCH   8  11
ENDBRANCH   1   7
BRANCH   4  24
HETATM   24  C   UNL     1      43.656 -17.283   3.450  1.00  0.00     0.106 A 
HETATM   25  N   UNL     1      44.027 -18.368   4.166  1.00  0.00    -0.233 NA
HETATM   26  C   UNL     1      44.119 -19.571   3.554  1.00  0.00     0.102 A 
HETATM   27  C   UNL     1      43.852 -19.761   2.190  1.00  0.00    -0.004 A 
HETATM   28  C   UNL     1      44.480 -20.689   4.300  1.00  0.00     0.095 A 
HETATM   29  C   UNL     1      43.467 -18.642   1.455  1.00  0.00     0.017 A 
HETATM   30  C   UNL     1      43.958 -21.042   1.612  1.00  0.00     0.014 A 
HETATM   31  C   UNL     1      43.357 -17.406   2.092  1.00  0.00     0.045 A 
HETATM   32  C   UNL     1      44.324 -22.139   2.394  1.00  0.00     0.004 A 
HETATM   33  C   UNL     1      44.586 -21.963   3.748  1.00  0.00     0.039 A 
BRANCH  28  34
HETATM   34  O   UNL     1      44.737 -20.542   5.642  1.00  0.00    -0.358 OA
HETATM   35  H   UNL     1      44.279 -19.706   5.873  1.00  0.00     0.218 HD
ENDBRANCH  28  34
ENDBRANCH   4  24
TORSDOF 6
ENDMDL
MODEL 8
REMARK VINA RESULT:      -9.3      5.637      8.491
REMARK  6 active torsions:
REMARK  status: ('A' for Active; 'I' for Inactive)
REMARK    1  A    between atoms: C_7  and  N_8 
REMARK       I    between atoms: N_8  and  C_9 
REMARK    2  A    between atoms: C_9  and  C_10 
REMARK    3  A    between atoms: C_10  and  N_11 
REMARK       I    between atoms: N_11  and  C_12 
REMARK    4  A    between atoms: C_12  and  C_13 
REMARK    5  A    between atoms: N_16  and  C_17 
REMARK    6  A    between atoms: C_23  and  O_24 
ROOT
HETATM    1  C   UNL     1      41.834 -13.512   5.131  1.00  0.00     0.080 C 
HETATM    2  C   UNL     1      41.128 -14.821   5.511  1.00  0.00     0.029 C 
HETATM    3  C   UNL     1      41.286 -15.895   4.435  1.00  0.00     0.098 C 
HETATM    4  N   UNL     1      42.717 -16.097   4.196  1.00  0.00    -0.268 NA
HETATM    5  C   UNL     1      43.386 -14.910   3.647  1.00  0.00     0.098 C 
HETATM    6  C   UNL     1      43.271 -13.764   4.654  1.00  0.00     0.029 C 
ENDROOT
BRANCH   1   7
HETATM    7  C   UNL     1      41.023 -12.704   4.121  1.00  0.00     0.222 C 
HETATM    8  N   UNL     1      41.744 -11.709   3.501  1.00  0.00    -0.352 N 
HETATM    9  H   UNL     1      42.706 -11.534   3.764  1.00  0.00     0.162 HD
HETATM   10  O   UNL     1      39.842 -12.911   3.857  1.00  0.00    -0.273 OA
BRANCH   8  11
HETATM   11  C   UNL     1      41.189 -10.928   2.414  1.00  0.00     0.225 C 
BRANCH  11  12
HETATM   12  C   UNL     1      41.358 -11.622   1.060  1.00  0.00     0.239 C 
HETATM   13  N   UNL     1      40.188 -12.223   0.631  1.00  0.00    -0.326 N 
HETATM   14  H   UNL     1      39.347 -11.974   1.157  1.00  0.00     0.169 HD
HETATM   15  O   UNL     1      42.431 -11.591   0.466  1.00  0.00    -0.271 OA
BRANCH  13  16
HETATM   16  C   UNL     1      40.013 -13.091  -0.462  1.00  0.00     0.035 A 
HETATM   17  C   UNL     1      40.804 -14.213  -0.697  1.00  0.00     0.031 A 
HETATM   18  C   UNL     1      40.534 -15.052  -1.783  1.00  0.00     0.022 A 
HETATM   19  C   UNL     1      39.465 -14.779  -2.638  1.00  0.00     0.017 A 
HETATM   20  C   UNL     1      38.655 -13.654  -2.424  1.00  0.00    -0.043 A 
HETATM   21 BR   UNL     1      39.154 -15.987  -4.069  1.00  0.00    -0.051 Br
HETATM   22  C   UNL     1      37.480 -13.329  -3.302  1.00  0.00     0.049 C 
HETATM   23  C   UNL     1      38.948 -12.818  -1.331  1.00  0.00     0.037 A 
ENDBRANCH  13  16
ENDBRANCH  11  12
ENDBRANCH   8  11
ENDBRANCH   1   7
BRANCH   4  24
HETATM   24  C   UNL     1      43.072 -17.308   3.580  1.00  0.00     0.106 A 
HETATM   25  N   UNL     1      43.618 -18.298   4.321  1.00  0.00    -0.233 NA
HETATM   26  C   UNL     1      43.888 -19.492   3.743  1.00  0.00     0.102 A 
HETATM   27  C   UNL     1      43.635 -19.765   2.390  1.00  0.00    -0.004 A 
HETATM   28  C   UNL     1      44.431 -20.515   4.515  1.00  0.00     0.095 A 
HETATM   29  C   UNL     1      43.070 -18.743   1.629  1.00  0.00     0.017 A 
HETATM   30  C   UNL     1      43.933 -21.031   1.849  1.00  0.00     0.014 A 
HETATM   31  C   UNL     1      42.777 -17.520   2.232  1.00  0.00     0.045 A 
HETATM   32  C   UNL     1      44.477 -22.031   2.655  1.00  0.00     0.004 A 
HETATM   33  C   UNL     1      44.726 -21.774   3.998  1.00  0.00     0.039 A 
BRANCH  28  34
HETATM   34  O   UNL     1      44.680 -20.286   5.847  1.00  0.00    -0.358 OA
HETATM   35  H   UNL     1      45.445 -20.869   6.040  1.00  0.00     0.218 HD
ENDBRANCH  28  34
ENDBRANCH   4  24
TORSDOF 6
ENDMDL
MODEL 9
REMARK VINA RESULT:      -9.1      3.966     10.925
REMARK  6 active torsions:
REMARK  status: ('A' for Active; 'I' for Inactive)
REMARK    1  A    between atoms: C_7  and  N_8 
REMARK       I    between atoms: N_8  and  C_9 
REMARK    2  A    between atoms: C_9  and  C_10 
REMARK    3  A    between atoms: C_10  and  N_11 
REMARK       I    between atoms: N_11  and  C_12 
REMARK    4  A    between atoms: C_12  and  C_13 
REMARK    5  A    between atoms: N_16  and  C_17 
REMARK    6  A    between atoms: C_23  and  O_24 
ROOT
HETATM    1  C   UNL     1      40.079 -11.912   4.037  1.00  0.00     0.080 C 
HETATM    2  C   UNL     1      39.289 -12.586   5.167  1.00  0.00     0.029 C 
HETATM    3  C   UNL     1      40.068 -12.609   6.483  1.00  0.00     0.098 C 
HETATM    4  N   UNL     1      40.436 -11.231   6.820  1.00  0.00    -0.268 NA
HETATM    5  C   UNL     1      41.352 -10.620   5.847  1.00  0.00     0.098 C 
HETATM    6  C   UNL     1      40.662 -10.563   4.483  1.00  0.00     0.029 C 
ENDROOT
BRANCH   1   7
HETATM    7  C   UNL     1      41.143 -12.840   3.459  1.00  0.00     0.222 C 
HETATM    8  N   UNL     1      40.654 -14.060   3.054  1.00  0.00    -0.352 N 
HETATM    9  H   UNL     1      39.680 -14.295   3.197  1.00  0.00     0.162 HD
HETATM   10  O   UNL     1      42.329 -12.544   3.341  1.00  0.00    -0.273 OA
BRANCH   8  11
HETATM   11  C   UNL     1      41.482 -15.021   2.352  1.00  0.00     0.225 C 
BRANCH  11  12
HETATM   12  C   UNL     1      41.797 -16.248   3.213  1.00  0.00     0.239 C 
HETATM   13  N   UNL     1      43.033 -16.792   2.916  1.00  0.00    -0.326 N 
HETATM   14  H   UNL     1      43.635 -16.217   2.322  1.00  0.00     0.169 HD
HETATM   15  O   UNL     1      41.006 -16.637   4.067  1.00  0.00    -0.271 OA
BRANCH  13  16
HETATM   16  C   UNL     1      43.573 -18.010   3.371  1.00  0.00     0.035 A 
HETATM   17  C   UNL     1      44.088 -18.200   4.651  1.00  0.00     0.031 A 
HETATM   18  C   UNL     1      44.563 -19.457   5.039  1.00  0.00     0.022 A 
HETATM   19  C   UNL     1      44.520 -20.534   4.153  1.00  0.00     0.017 A 
HETATM   20  C   UNL     1      44.009 -20.367   2.858  1.00  0.00    -0.043 A 
HETATM   21 BR   UNL     1      45.160 -22.210   4.774  1.00  0.00    -0.051 Br
HETATM   22  C   UNL     1      43.921 -21.499   1.874  1.00  0.00     0.049 C 
HETATM   23  C   UNL     1      43.543 -19.093   2.482  1.00  0.00     0.037 A 
ENDBRANCH  13  16
ENDBRANCH  11  12
ENDBRANCH   8  11
ENDBRANCH   1   7
BRANCH   4  24
HETATM   24  C   UNL     1      40.766 -10.996   8.165  1.00  0.00     0.106 A 
HETATM   25  N   UNL     1      42.065 -10.931   8.531  1.00  0.00    -0.233 NA
HETATM   26  C   UNL     1      42.383 -10.627   9.811  1.00  0.00     0.102 A 
HETATM   27  C   UNL     1      41.421 -10.377  10.802  1.00  0.00    -0.004 A 
HETATM   28  C   UNL     1      43.722 -10.541  10.179  1.00  0.00     0.095 A 
HETATM   29  C   UNL     1      40.083 -10.442  10.421  1.00  0.00     0.017 A 
HETATM   30  C   UNL     1      41.816 -10.060  12.117  1.00  0.00     0.014 A 
HETATM   31  C   UNL     1      39.759 -10.739   9.097  1.00  0.00     0.045 A 
HETATM   32  C   UNL     1      43.169  -9.983  12.447  1.00  0.00     0.004 A 
HETATM   33  C   UNL     1      44.130 -10.223  11.472  1.00  0.00     0.039 A 
BRANCH  28  34
HETATM   34  O   UNL     1      44.691 -10.767   9.231  1.00  0.00    -0.358 OA
HETATM   35  H   UNL     1      45.208 -11.513   9.605  1.00  0.00     0.218 HD
ENDBRANCH  28  34
ENDBRANCH   4  24
TORSDOF 6
ENDMDL
MODEL 10
REMARK VINA RESULT:      -9.0      5.189      9.289
REMARK  6 active torsions:
REMARK  status: ('A' for Active; 'I' for Inactive)
REMARK    1  A    between atoms: C_7  and  N_8 
REMARK       I    between atoms: N_8  and  C_9 
REMARK    2  A    between atoms: C_9  and  C_10 
REMARK    3  A    between atoms: C_10  and  N_11 
REMARK       I    between atoms: N_11  and  C_12 
REMARK    4  A    between atoms: C_12  and  C_13 
REMARK    5  A    between atoms: N_16  and  C_17 
REMARK    6  A    between atoms: C_23  and  O_24 
ROOT
HETATM    1  C   UNL     1      43.844 -17.049   7.170  1.00  0.00     0.080 C 
HETATM    2  C   UNL     1      44.362 -15.626   6.920  1.00  0.00     0.029 C 
HETATM    3  C   UNL     1      43.599 -14.923   5.797  1.00  0.00     0.098 C 
HETATM    4  N   UNL     1      42.173 -14.934   6.135  1.00  0.00    -0.268 NA
HETATM    5  C   UNL     1      41.601 -16.286   6.193  1.00  0.00     0.098 C 
HETATM    6  C   UNL     1      42.314 -17.081   7.290  1.00  0.00     0.029 C 
ENDROOT
BRANCH   1   7
HETATM    7  C   UNL     1      44.362 -18.032   6.123  1.00  0.00     0.222 C 
HETATM    8  N   UNL     1      43.431 -18.363   5.165  1.00  0.00    -0.352 N 
HETATM    9  H   UNL     1      42.486 -18.003   5.223  1.00  0.00     0.162 HD
HETATM   10  O   UNL     1      45.502 -18.488   6.106  1.00  0.00    -0.273 OA
BRANCH   8  11
HETATM   11  C   UNL     1      43.775 -19.171   4.012  1.00  0.00     0.225 C 
BRANCH  11  12
HETATM   12  C   UNL     1      43.172 -18.616   2.718  1.00  0.00     0.239 C 
HETATM   13  N   UNL     1      42.843 -17.277   2.827  1.00  0.00    -0.326 N 
HETATM   14  H   UNL     1      43.207 -16.801   3.655  1.00  0.00     0.169 HD
HETATM   15  O   UNL     1      43.044 -19.329   1.728  1.00  0.00    -0.271 OA
BRANCH  13  16
HETATM   16  C   UNL     1      42.115 -16.490   1.915  1.00  0.00     0.035 A 
HETATM   17  C   UNL     1      42.584 -16.128   0.655  1.00  0.00     0.031 A 
HETATM   18  C   UNL     1      41.777 -15.383  -0.210  1.00  0.00     0.022 A 
HETATM   19  C   UNL     1      40.492 -14.999   0.177  1.00  0.00     0.017 A 
HETATM   20  C   UNL     1      39.999 -15.348   1.442  1.00  0.00    -0.043 A 
HETATM   21 BR   UNL     1      39.457 -14.012  -1.072  1.00  0.00    -0.051 Br
HETATM   22  C   UNL     1      38.615 -14.978   1.897  1.00  0.00     0.049 C 
HETATM   23  C   UNL     1      40.828 -16.092   2.301  1.00  0.00     0.037 A 
ENDBRANCH  13  16
ENDBRANCH  11  12
ENDBRANCH   8  11
ENDBRANCH   1   7
BRANCH   4  24
HETATM   24  C   UNL     1      41.377 -13.988   5.469  1.00  0.00     0.106 A 
HETATM   25  N   UNL     1      41.792 -13.481   4.287  1.00  0.00    -0.233 NA
HETATM   26  C   UNL     1      40.989 -12.628   3.608  1.00  0.00     0.102 A 
HETATM   27  C   UNL     1      39.728 -12.228   4.073  1.00  0.00    -0.004 A 
HETATM   28  C   UNL     1      41.412 -12.125   2.382  1.00  0.00     0.095 A 
HETATM   29  C   UNL     1      39.301 -12.754   5.291  1.00  0.00     0.017 A 
HETATM   30  C   UNL     1      38.936 -11.342   3.317  1.00  0.00     0.014 A 
HETATM   31  C   UNL     1      40.124 -13.646   5.980  1.00  0.00     0.045 A 
HETATM   32  C   UNL     1      39.394 -10.858   2.091  1.00  0.00     0.004 A 
HETATM   33  C   UNL     1      40.641 -11.253   1.618  1.00  0.00     0.039 A 
BRANCH  28  34
HETATM   34  O   UNL     1      42.638 -12.506   1.890  1.00  0.00    -0.358 OA
HETATM   35  H   UNL     1      42.836 -11.822   1.215  1.00  0.00     0.218 HD
ENDBRANCH  28  34
ENDBRANCH   4  24
TORSDOF 6
ENDMDL
