MODEL 1
REMARK VINA RESULT:      -7.0      0.000      0.000
REMARK  10 active torsions:
REMARK  status: ('A' for Active; 'I' for Inactive)
REMARK    1  A    between atoms: C_6  and  C_7 
REMARK    2  A    between atoms: C_9  and  C_10 
REMARK    3  A    between atoms: C_10  and  C_11 
REMARK       I    between atoms: C_11  and  N_12 
REMARK    4  A    between atoms: N_12  and  C_13 
REMARK    5  A    between atoms: C_13  and  C_14 
REMARK    6  A    between atoms: C_14  and  N_15 
REMARK    7  A    between atoms: C_26  and  C_27 
REMARK    8  A    between atoms: C_27  and  O_28 
REMARK    9  A    between atoms: O_28  and  C_29 
REMARK   10  A    between atoms: C_29  and  C_30 
ROOT
HETATM    1  C   UNL     1      41.358 -12.925   1.585  1.00  0.00     0.166 C 
HETATM    2  N   UNL     1      40.969 -11.537   1.269  1.00  0.00    -0.318 N 
HETATM    3  C   UNL     1      41.519 -10.531   0.671  1.00  0.00     0.011 C 
HETATM    4  C   UNL     1      39.458 -11.257   1.500  1.00  0.00     0.170 C 
HETATM    5  S   UNL     1      39.114  -9.557   1.467  1.00  0.00    -0.086 SA
HETATM    6  C   UNL     1      40.734  -9.234   0.710  1.00  0.00     0.135 C 
HETATM    7  N   UNL     1      38.550 -12.162   1.599  1.00  0.00    -0.229 NA
HETATM    8  C   UNL     1      38.922 -13.467   1.333  1.00  0.00     0.048 C 
HETATM    9  C   UNL     1      37.755 -14.382   1.047  1.00  0.00     0.071 C 
HETATM   10  C   UNL     1      40.216 -13.852   1.272  1.00  0.00     0.069 C 
ENDROOT
BRANCH   3  11
HETATM   11  C   UNL     1      42.768 -10.665  -0.145  1.00  0.00     0.156 C 
BRANCH  11  12
HETATM   12  C   UNL     1      42.613 -11.080  -1.585  1.00  0.00     0.223 C 
HETATM   13  N   UNL     1      42.144 -12.363  -1.736  1.00  0.00    -0.359 N 
HETATM   14  H   UNL     1      42.022 -12.922  -0.893  1.00  0.00     0.162 HD
HETATM   15  O   UNL     1      42.914 -10.349  -2.521  1.00  0.00    -0.273 OA
BRANCH  13  16
HETATM   16  C   UNL     1      42.182 -13.151  -2.970  1.00  0.00     0.150 C 
BRANCH  16  17
HETATM   17  C   UNL     1      40.869 -13.277  -3.768  1.00  0.00     0.253 C 
BRANCH  17  18
HETATM   18  N   UNL     1      39.792 -14.038  -3.022  1.00  0.00    -0.077 N 
HETATM   19  H   UNL     1      40.233 -14.412  -2.160  1.00  0.00     0.279 HD
HETATM   20  C   UNL     1      38.631 -13.188  -2.583  1.00  0.00     0.269 C 
HETATM   21  C   UNL     1      39.314 -15.226  -3.812  1.00  0.00     0.269 C 
ENDBRANCH  17  18
ENDBRANCH  16  17
ENDBRANCH  13  16
ENDBRANCH  11  12
ENDBRANCH   3  11
BRANCH   1  22
HETATM   22  C   UNL     1      41.901 -13.152   3.020  1.00  0.00    -0.024 C 
HETATM   23  C   UNL     1      41.164 -13.187   4.231  1.00  0.00    -0.053 C 
HETATM   24  C   UNL     1      41.730 -13.808   5.370  1.00  0.00     0.014 C 
HETATM   25  C   UNL     1      39.772 -12.663   4.447  1.00  0.00     0.049 C 
HETATM   26  C   UNL     1      43.018 -14.339   5.369  1.00  0.00    -0.061 C 
HETATM   27  C   UNL     1      43.526 -15.128   6.540  1.00  0.00     0.048 C 
HETATM   28  C   UNL     1      43.797 -14.172   4.232  1.00  0.00     0.007 C 
HETATM   29  C   UNL     1      43.254 -13.576   3.090  1.00  0.00     0.011 C 
ENDBRANCH   1  22
BRANCH  10  30
HETATM   30  C   UNL     1      40.558 -15.114   0.581  1.00  0.00     0.294 C 
HETATM   31  O   UNL     1      40.800 -15.142  -0.613  1.00  0.00    -0.259 OA
BRANCH  30  32
HETATM   32  O   UNL     1      40.699 -16.122   1.462  1.00  0.00    -0.313 OA
BRANCH  32  33
HETATM   33  C   UNL     1      41.990 -16.758   1.482  1.00  0.00     0.217 C 
BRANCH  33  34
HETATM   34  C   UNL     1      42.264 -17.302   2.864  1.00  0.00    -0.034 A 
HETATM   35  C   UNL     1      41.257 -17.323   3.841  1.00  0.00     0.009 A 
HETATM   36  C   UNL     1      41.510 -17.852   5.110  1.00  0.00     0.001 A 
HETATM   37  C   UNL     1      42.771 -18.360   5.416  1.00  0.00     0.000 A 
HETATM   38  C   UNL     1      43.782 -18.334   4.458  1.00  0.00     0.001 A 
HETATM   39  C   UNL     1      43.533 -17.804   3.191  1.00  0.00     0.009 A 
ENDBRANCH  33  34
ENDBRANCH  32  33
ENDBRANCH  30  32
ENDBRANCH  10  30
TORSDOF 10
ENDMDL
MODEL 2
REMARK VINA RESULT:      -7.0      2.320      4.250
REMARK  10 active torsions:
REMARK  status: ('A' for Active; 'I' for Inactive)
REMARK    1  A    between atoms: C_6  and  C_7 
REMARK    2  A    between atoms: C_9  and  C_10 
REMARK    3  A    between atoms: C_10  and  C_11 
REMARK       I    between atoms: C_11  and  N_12 
REMARK    4  A    between atoms: N_12  and  C_13 
REMARK    5  A    between atoms: C_13  and  C_14 
REMARK    6  A    between atoms: C_14  and  N_15 
REMARK    7  A    between atoms: C_26  and  C_27 
REMARK    8  A    between atoms: C_27  and  O_28 
REMARK    9  A    between atoms: O_28  and  C_29 
REMARK   10  A    between atoms: C_29  and  C_30 
ROOT
HETATM    1  C   UNL     1      40.735 -14.853   2.866  1.00  0.00     0.166 C 
HETATM    2  N   UNL     1      40.609 -13.667   1.995  1.00  0.00    -0.318 N 
HETATM    3  C   UNL     1      39.773 -13.260   1.096  1.00  0.00     0.011 C 
HETATM    4  C   UNL     1      41.571 -12.513   2.389  1.00  0.00     0.170 C 
HETATM    5  S   UNL     1      41.650 -11.301   1.150  1.00  0.00    -0.086 SA
HETATM    6  C   UNL     1      40.158 -11.985   0.372  1.00  0.00     0.135 C 
HETATM    7  N   UNL     1      42.158 -12.401   3.527  1.00  0.00    -0.229 NA
HETATM    8  C   UNL     1      41.791 -13.291   4.520  1.00  0.00     0.048 C 
HETATM    9  C   UNL     1      42.181 -12.841   5.909  1.00  0.00     0.071 C 
HETATM   10  C   UNL     1      41.090 -14.416   4.261  1.00  0.00     0.069 C 
ENDROOT
BRANCH   3  11
HETATM   11  C   UNL     1      38.438 -13.907   0.887  1.00  0.00     0.156 C 
BRANCH  11  12
HETATM   12  C   UNL     1      37.725 -13.618  -0.408  1.00  0.00     0.223 C 
HETATM   13  N   UNL     1      38.029 -14.507  -1.410  1.00  0.00    -0.359 N 
HETATM   14  H   UNL     1      38.742 -15.210  -1.216  1.00  0.00     0.162 HD
HETATM   15  O   UNL     1      36.979 -12.656  -0.553  1.00  0.00    -0.273 OA
BRANCH  13  16
HETATM   16  C   UNL     1      37.753 -14.322  -2.836  1.00  0.00     0.150 C 
BRANCH  16  17
HETATM   17  C   UNL     1      38.567 -15.174  -3.830  1.00  0.00     0.253 C 
BRANCH  17  18
HETATM   18  N   UNL     1      40.028 -14.781  -3.892  1.00  0.00    -0.077 N 
HETATM   19  H   UNL     1      40.347 -14.968  -4.863  1.00  0.00     0.279 HD
HETATM   20  C   UNL     1      40.285 -13.323  -3.623  1.00  0.00     0.269 C 
HETATM   21  C   UNL     1      40.867 -15.645  -2.989  1.00  0.00     0.269 C 
ENDBRANCH  17  18
ENDBRANCH  16  17
ENDBRANCH  13  16
ENDBRANCH  11  12
ENDBRANCH   3  11
BRANCH   1  22
HETATM   22  C   UNL     1      41.696 -15.955   2.350  1.00  0.00    -0.024 C 
HETATM   23  C   UNL     1      43.082 -16.091   2.617  1.00  0.00    -0.053 C 
HETATM   24  C   UNL     1      43.705 -17.348   2.425  1.00  0.00     0.014 C 
HETATM   25  C   UNL     1      44.001 -15.027   3.146  1.00  0.00     0.049 C 
HETATM   26  C   UNL     1      43.019 -18.453   1.925  1.00  0.00    -0.061 C 
HETATM   27  C   UNL     1      43.667 -19.808   1.885  1.00  0.00     0.048 C 
HETATM   28  C   UNL     1      41.703 -18.283   1.522  1.00  0.00     0.007 C 
HETATM   29  C   UNL     1      41.062 -17.055   1.716  1.00  0.00     0.011 C 
ENDBRANCH   1  22
BRANCH  10  30
HETATM   30  C   UNL     1      40.372 -15.087   5.367  1.00  0.00     0.294 C 
HETATM   31  O   UNL     1      39.406 -14.575   5.904  1.00  0.00    -0.259 OA
BRANCH  30  32
HETATM   32  O   UNL     1      40.840 -16.335   5.556  1.00  0.00    -0.313 OA
BRANCH  32  33
HETATM   33  C   UNL     1      41.682 -16.519   6.708  1.00  0.00     0.217 C 
BRANCH  33  34
HETATM   34  C   UNL     1      42.876 -17.364   6.332  1.00  0.00    -0.034 A 
HETATM   35  C   UNL     1      44.181 -16.920   6.592  1.00  0.00     0.009 A 
HETATM   36  C   UNL     1      45.281 -17.720   6.266  1.00  0.00     0.001 A 
HETATM   37  C   UNL     1      45.087 -18.966   5.673  1.00  0.00     0.000 A 
HETATM   38  C   UNL     1      43.796 -19.412   5.399  1.00  0.00     0.001 A 
HETATM   39  C   UNL     1      42.696 -18.615   5.723  1.00  0.00     0.009 A 
ENDBRANCH  33  34
ENDBRANCH  32  33
ENDBRANCH  30  32
ENDBRANCH  10  30
TORSDOF 10
ENDMDL
MODEL 3
REMARK VINA RESULT:      -6.8      2.135      4.608
REMARK  10 active torsions:
REMARK  status: ('A' for Active; 'I' for Inactive)
REMARK    1  A    between atoms: C_6  and  C_7 
REMARK    2  A    between atoms: C_9  and  C_10 
REMARK    3  A    between atoms: C_10  and  C_11 
REMARK       I    between atoms: C_11  and  N_12 
REMARK    4  A    between atoms: N_12  and  C_13 
REMARK    5  A    between atoms: C_13  and  C_14 
REMARK    6  A    between atoms: C_14  and  N_15 
REMARK    7  A    between atoms: C_26  and  C_27 
REMARK    8  A    between atoms: C_27  and  O_28 
REMARK    9  A    between atoms: O_28  and  C_29 
REMARK   10  A    between atoms: C_29  and  C_30 
ROOT
HETATM    1  C   UNL     1      40.760 -13.992   1.177  1.00  0.00     0.166 C 
HETATM    2  N   UNL     1      39.972 -12.955   1.871  1.00  0.00    -0.318 N 
HETATM    3  C   UNL     1      38.744 -12.550   1.849  1.00  0.00     0.011 C 
HETATM    4  C   UNL     1      40.715 -12.333   3.086  1.00  0.00     0.170 C 
HETATM    5  S   UNL     1      39.924 -10.893   3.645  1.00  0.00    -0.086 SA
HETATM    6  C   UNL     1      38.441 -11.325   2.688  1.00  0.00     0.135 C 
HETATM    7  N   UNL     1      41.726 -12.861   3.679  1.00  0.00    -0.229 NA
HETATM    8  C   UNL     1      42.083 -14.143   3.302  1.00  0.00     0.048 C 
HETATM    9  C   UNL     1      42.967 -14.844   4.308  1.00  0.00     0.071 C 
HETATM   10  C   UNL     1      41.620 -14.721   2.173  1.00  0.00     0.069 C 
ENDROOT
BRANCH   3  11
HETATM   11  C   UNL     1      37.655 -13.323   1.171  1.00  0.00     0.156 C 
BRANCH  11  12
HETATM   12  C   UNL     1      37.467 -13.102  -0.307  1.00  0.00     0.223 C 
HETATM   13  N   UNL     1      37.957 -14.127  -1.080  1.00  0.00    -0.359 N 
HETATM   14  H   UNL     1      38.454 -14.880  -0.604  1.00  0.00     0.162 HD
HETATM   15  O   UNL     1      36.959 -12.085  -0.765  1.00  0.00    -0.273 OA
BRANCH  13  16
HETATM   16  C   UNL     1      38.204 -14.073  -2.522  1.00  0.00     0.150 C 
BRANCH  16  17
HETATM   17  C   UNL     1      37.179 -14.765  -3.441  1.00  0.00     0.253 C 
BRANCH  17  18
HETATM   18  N   UNL     1      36.708 -13.881  -4.577  1.00  0.00    -0.077 N 
HETATM   19  H   UNL     1      37.355 -14.047  -5.373  1.00  0.00     0.279 HD
HETATM   20  C   UNL     1      35.322 -14.198  -5.070  1.00  0.00     0.269 C 
HETATM   21  C   UNL     1      36.826 -12.423  -4.223  1.00  0.00     0.269 C 
ENDBRANCH  17  18
ENDBRANCH  16  17
ENDBRANCH  13  16
ENDBRANCH  11  12
ENDBRANCH   3  11
BRANCH   1  22
HETATM   22  C   UNL     1      41.587 -13.496  -0.037  1.00  0.00    -0.024 C 
HETATM   23  C   UNL     1      41.686 -14.093  -1.320  1.00  0.00    -0.053 C 
HETATM   24  C   UNL     1      42.128 -13.312  -2.416  1.00  0.00     0.014 C 
HETATM   25  C   UNL     1      41.317 -15.503  -1.683  1.00  0.00     0.049 C 
HETATM   26  C   UNL     1      42.530 -11.985  -2.273  1.00  0.00    -0.061 C 
HETATM   27  C   UNL     1      42.840 -11.142  -3.476  1.00  0.00     0.048 C 
HETATM   28  C   UNL     1      42.577 -11.446  -0.996  1.00  0.00     0.007 C 
HETATM   29  C   UNL     1      42.130 -12.192   0.099  1.00  0.00     0.011 C 
ENDBRANCH   1  22
BRANCH  10  30
HETATM   30  C   UNL     1      41.681 -16.194   2.042  1.00  0.00     0.294 C 
HETATM   31  O   UNL     1      40.678 -16.883   2.114  1.00  0.00    -0.259 OA
BRANCH  30  32
HETATM   32  O   UNL     1      42.918 -16.595   1.698  1.00  0.00    -0.313 OA
BRANCH  32  33
HETATM   33  C   UNL     1      43.010 -17.902   1.104  1.00  0.00     0.217 C 
BRANCH  33  34
HETATM   34  C   UNL     1      43.578 -18.876   2.109  1.00  0.00    -0.034 A 
HETATM   35  C   UNL     1      43.769 -20.225   1.774  1.00  0.00     0.009 A 
HETATM   36  C   UNL     1      44.320 -21.115   2.701  1.00  0.00     0.001 A 
HETATM   37  C   UNL     1      44.680 -20.667   3.971  1.00  0.00     0.000 A 
HETATM   38  C   UNL     1      44.484 -19.332   4.319  1.00  0.00     0.001 A 
HETATM   39  C   UNL     1      43.932 -18.442   3.396  1.00  0.00     0.009 A 
ENDBRANCH  33  34
ENDBRANCH  32  33
ENDBRANCH  30  32
ENDBRANCH  10  30
TORSDOF 10
ENDMDL
MODEL 4
REMARK VINA RESULT:      -6.5      2.837      5.589
REMARK  10 active torsions:
REMARK  status: ('A' for Active; 'I' for Inactive)
REMARK    1  A    between atoms: C_6  and  C_7 
REMARK    2  A    between atoms: C_9  and  C_10 
REMARK    3  A    between atoms: C_10  and  C_11 
REMARK       I    between atoms: C_11  and  N_12 
REMARK    4  A    between atoms: N_12  and  C_13 
REMARK    5  A    between atoms: C_13  and  C_14 
REMARK    6  A    between atoms: C_14  and  N_15 
REMARK    7  A    between atoms: C_26  and  C_27 
REMARK    8  A    between atoms: C_27  and  O_28 
REMARK    9  A    between atoms: O_28  and  C_29 
REMARK   10  A    between atoms: C_29  and  C_30 
ROOT
HETATM    1  C   UNL     1      40.704 -13.713   1.266  1.00  0.00     0.166 C 
HETATM    2  N   UNL     1      40.114 -12.531   1.925  1.00  0.00    -0.318 N 
HETATM    3  C   UNL     1      38.946 -11.977   1.967  1.00  0.00     0.011 C 
HETATM    4  C   UNL     1      41.035 -11.913   3.012  1.00  0.00     0.170 C 
HETATM    5  S   UNL     1      40.478 -10.345   3.501  1.00  0.00    -0.086 SA
HETATM    6  C   UNL     1      38.871 -10.660   2.713  1.00  0.00     0.135 C 
HETATM    7  N   UNL     1      42.026 -12.516   3.566  1.00  0.00    -0.229 NA
HETATM    8  C   UNL     1      42.191 -13.860   3.280  1.00  0.00     0.048 C 
HETATM    9  C   UNL     1      43.075 -14.584   4.269  1.00  0.00     0.071 C 
HETATM   10  C   UNL     1      41.559 -14.463   2.250  1.00  0.00     0.069 C 
ENDROOT
BRANCH   3  11
HETATM   11  C   UNL     1      37.714 -12.658   1.454  1.00  0.00     0.156 C 
BRANCH  11  12
HETATM   12  C   UNL     1      36.865 -11.899   0.468  1.00  0.00     0.223 C 
HETATM   13  N   UNL     1      35.705 -11.403   1.014  1.00  0.00    -0.359 N 
HETATM   14  H   UNL     1      35.496 -11.650   1.980  1.00  0.00     0.162 HD
HETATM   15  O   UNL     1      37.171 -11.777  -0.712  1.00  0.00    -0.273 OA
BRANCH  13  16
HETATM   16  C   UNL     1      34.549 -10.905   0.266  1.00  0.00     0.150 C 
BRANCH  16  17
HETATM   17  C   UNL     1      33.505 -10.081   1.045  1.00  0.00     0.253 C 
BRANCH  17  18
HETATM   18  N   UNL     1      33.400 -10.482   2.502  1.00  0.00    -0.077 N 
HETATM   19  H   UNL     1      34.136 -11.195   2.670  1.00  0.00     0.279 HD
HETATM   20  C   UNL     1      33.656  -9.357   3.469  1.00  0.00     0.269 C 
HETATM   21  C   UNL     1      32.082 -11.146   2.794  1.00  0.00     0.269 C 
ENDBRANCH  17  18
ENDBRANCH  16  17
ENDBRANCH  13  16
ENDBRANCH  11  12
ENDBRANCH   3  11
BRANCH   1  22
HETATM   22  C   UNL     1      41.468 -13.426  -0.053  1.00  0.00    -0.024 C 
HETATM   23  C   UNL     1      41.451 -14.189  -1.248  1.00  0.00    -0.053 C 
HETATM   24  C   UNL     1      41.852 -13.583  -2.463  1.00  0.00     0.014 C 
HETATM   25  C   UNL     1      40.994 -15.612  -1.395  1.00  0.00     0.049 C 
HETATM   26  C   UNL     1      42.324 -12.273  -2.524  1.00  0.00    -0.061 C 
HETATM   27  C   UNL     1      42.590 -11.612  -3.846  1.00  0.00     0.048 C 
HETATM   28  C   UNL     1      42.483 -11.575  -1.336  1.00  0.00     0.007 C 
HETATM   29  C   UNL     1      42.079 -12.147  -0.126  1.00  0.00     0.011 C 
ENDBRANCH   1  22
BRANCH  10  30
HETATM   30  C   UNL     1      41.431 -15.937   2.250  1.00  0.00     0.294 C 
HETATM   31  O   UNL     1      40.379 -16.486   2.527  1.00  0.00    -0.259 OA
BRANCH  30  32
HETATM   32  O   UNL     1      42.549 -16.516   1.774  1.00  0.00    -0.313 OA
BRANCH  32  33
HETATM   33  C   UNL     1      42.422 -17.896   1.384  1.00  0.00     0.217 C 
BRANCH  33  34
HETATM   34  C   UNL     1      43.254 -18.759   2.301  1.00  0.00    -0.034 A 
HETATM   35  C   UNL     1      43.644 -18.297   3.567  1.00  0.00     0.009 A 
HETATM   36  C   UNL     1      44.392 -19.112   4.421  1.00  0.00     0.001 A 
HETATM   37  C   UNL     1      44.762 -20.393   4.017  1.00  0.00     0.000 A 
HETATM   38  C   UNL     1      44.391 -20.860   2.758  1.00  0.00     0.001 A 
HETATM   39  C   UNL     1      43.645 -20.047   1.902  1.00  0.00     0.009 A 
ENDBRANCH  33  34
ENDBRANCH  32  33
ENDBRANCH  30  32
ENDBRANCH  10  30
TORSDOF 10
ENDMDL
MODEL 5
REMARK VINA RESULT:      -6.4      2.634      4.365
REMARK  10 active torsions:
REMARK  status: ('A' for Active; 'I' for Inactive)
REMARK    1  A    between atoms: C_6  and  C_7 
REMARK    2  A    between atoms: C_9  and  C_10 
REMARK    3  A    between atoms: C_10  and  C_11 
REMARK       I    between atoms: C_11  and  N_12 
REMARK    4  A    between atoms: N_12  and  C_13 
REMARK    5  A    between atoms: C_13  and  C_14 
REMARK    6  A    between atoms: C_14  and  N_15 
REMARK    7  A    between atoms: C_26  and  C_27 
REMARK    8  A    between atoms: C_27  and  O_28 
REMARK    9  A    between atoms: O_28  and  C_29 
REMARK   10  A    between atoms: C_29  and  C_30 
ROOT
HETATM    1  C   UNL     1      40.607 -14.260   0.718  1.00  0.00     0.166 C 
HETATM    2  N   UNL     1      41.130 -13.847  -0.599  1.00  0.00    -0.318 N 
HETATM    3  C   UNL     1      40.859 -14.122  -1.833  1.00  0.00     0.011 C 
HETATM    4  C   UNL     1      42.082 -12.623  -0.524  1.00  0.00     0.170 C 
HETATM    5  S   UNL     1      42.945 -12.396  -2.012  1.00  0.00    -0.086 SA
HETATM    6  C   UNL     1      41.792 -13.514  -2.862  1.00  0.00     0.135 C 
HETATM    7  N   UNL     1      42.156 -11.808   0.468  1.00  0.00    -0.229 NA
HETATM    8  C   UNL     1      41.216 -11.948   1.474  1.00  0.00     0.048 C 
HETATM    9  C   UNL     1      41.092 -10.728   2.357  1.00  0.00     0.071 C 
HETATM   10  C   UNL     1      40.445 -13.050   1.597  1.00  0.00     0.069 C 
ENDROOT
BRANCH   3  11
HETATM   11  C   UNL     1      39.619 -14.858  -2.241  1.00  0.00     0.156 C 
BRANCH  11  12
HETATM   12  C   UNL     1      38.361 -14.049  -2.415  1.00  0.00     0.223 C 
HETATM   13  N   UNL     1      37.675 -14.347  -3.568  1.00  0.00    -0.359 N 
HETATM   14  H   UNL     1      38.105 -15.008  -4.214  1.00  0.00     0.162 HD
HETATM   15  O   UNL     1      38.013 -13.185  -1.619  1.00  0.00    -0.273 OA
BRANCH  13  16
HETATM   16  C   UNL     1      36.612 -13.538  -4.168  1.00  0.00     0.150 C 
BRANCH  16  17
HETATM   17  C   UNL     1      35.463 -14.290  -4.868  1.00  0.00     0.253 C 
BRANCH  17  18
HETATM   18  N   UNL     1      34.645 -13.405  -5.786  1.00  0.00    -0.077 N 
HETATM   19  H   UNL     1      33.747 -13.899  -5.956  1.00  0.00     0.279 HD
HETATM   20  C   UNL     1      34.298 -12.064  -5.198  1.00  0.00     0.269 C 
HETATM   21  C   UNL     1      35.308 -13.243  -7.126  1.00  0.00     0.269 C 
ENDBRANCH  17  18
ENDBRANCH  16  17
ENDBRANCH  13  16
ENDBRANCH  11  12
ENDBRANCH   3  11
BRANCH   1  22
HETATM   22  C   UNL     1      41.410 -15.380   1.430  1.00  0.00    -0.024 C 
HETATM   23  C   UNL     1      40.911 -16.587   1.983  1.00  0.00    -0.053 C 
HETATM   24  C   UNL     1      41.800 -17.665   2.210  1.00  0.00     0.014 C 
HETATM   25  C   UNL     1      39.481 -16.890   2.328  1.00  0.00     0.049 C 
HETATM   26  C   UNL     1      43.169 -17.568   1.966  1.00  0.00    -0.061 C 
HETATM   27  C   UNL     1      44.056 -18.776   2.067  1.00  0.00     0.048 C 
HETATM   28  C   UNL     1      43.681 -16.342   1.568  1.00  0.00     0.007 C 
HETATM   29  C   UNL     1      42.821 -15.267   1.322  1.00  0.00     0.011 C 
ENDBRANCH   1  22
BRANCH  10  30
HETATM   30  C   UNL     1      39.201 -12.971   2.393  1.00  0.00     0.294 C 
HETATM   31  O   UNL     1      38.227 -12.354   1.996  1.00  0.00    -0.259 OA
BRANCH  30  32
HETATM   32  O   UNL     1      39.271 -13.769   3.474  1.00  0.00    -0.313 OA
BRANCH  32  33
HETATM   33  C   UNL     1      40.080 -13.282   4.560  1.00  0.00     0.217 C 
BRANCH  33  34
HETATM   34  C   UNL     1      41.082 -14.338   4.959  1.00  0.00    -0.034 A 
HETATM   35  C   UNL     1      40.662 -15.542   5.544  1.00  0.00     0.009 A 
HETATM   36  C   UNL     1      41.593 -16.528   5.886  1.00  0.00     0.001 A 
HETATM   37  C   UNL     1      42.951 -16.317   5.653  1.00  0.00     0.000 A 
HETATM   38  C   UNL     1      43.381 -15.120   5.083  1.00  0.00     0.001 A 
HETATM   39  C   UNL     1      42.453 -14.134   4.742  1.00  0.00     0.009 A 
ENDBRANCH  33  34
ENDBRANCH  32  33
ENDBRANCH  30  32
ENDBRANCH  10  30
TORSDOF 10
ENDMDL
MODEL 6
REMARK VINA RESULT:      -6.3      2.172      4.045
REMARK  10 active torsions:
REMARK  status: ('A' for Active; 'I' for Inactive)
REMARK    1  A    between atoms: C_6  and  C_7 
REMARK    2  A    between atoms: C_9  and  C_10 
REMARK    3  A    between atoms: C_10  and  C_11 
REMARK       I    between atoms: C_11  and  N_12 
REMARK    4  A    between atoms: N_12  and  C_13 
REMARK    5  A    between atoms: C_13  and  C_14 
REMARK    6  A    between atoms: C_14  and  N_15 
REMARK    7  A    between atoms: C_26  and  C_27 
REMARK    8  A    between atoms: C_27  and  O_28 
REMARK    9  A    between atoms: O_28  and  C_29 
REMARK   10  A    between atoms: C_29  and  C_30 
ROOT
HETATM    1  C   UNL     1      41.213 -14.684   0.608  1.00  0.00     0.166 C 
HETATM    2  N   UNL     1      41.621 -13.964  -0.615  1.00  0.00    -0.318 N 
HETATM    3  C   UNL     1      41.440 -14.116  -1.886  1.00  0.00     0.011 C 
HETATM    4  C   UNL     1      42.225 -12.562  -0.327  1.00  0.00     0.170 C 
HETATM    5  S   UNL     1      43.012 -11.909  -1.729  1.00  0.00    -0.086 SA
HETATM    6  C   UNL     1      42.193 -13.148  -2.777  1.00  0.00     0.135 C 
HETATM    7  N   UNL     1      42.079 -11.909   0.771  1.00  0.00    -0.229 NA
HETATM    8  C   UNL     1      41.199 -12.428   1.704  1.00  0.00     0.048 C 
HETATM    9  C   UNL     1      40.757 -11.422   2.741  1.00  0.00     0.071 C 
HETATM   10  C   UNL     1      40.738 -13.695   1.638  1.00  0.00     0.069 C 
ENDROOT
BRANCH   3  11
HETATM   11  C   UNL     1      40.435 -15.076  -2.447  1.00  0.00     0.156 C 
BRANCH  11  12
HETATM   12  C   UNL     1      39.185 -14.492  -3.052  1.00  0.00     0.223 C 
HETATM   13  N   UNL     1      39.063 -13.138  -2.854  1.00  0.00    -0.359 N 
HETATM   14  H   UNL     1      39.764 -12.682  -2.271  1.00  0.00     0.162 HD
HETATM   15  O   UNL     1      38.348 -15.176  -3.629  1.00  0.00    -0.273 OA
BRANCH  13  16
HETATM   16  C   UNL     1      37.843 -12.350  -3.040  1.00  0.00     0.150 C 
BRANCH  16  17
HETATM   17  C   UNL     1      37.637 -11.138  -2.111  1.00  0.00     0.253 C 
BRANCH  17  18
HETATM   18  N   UNL     1      38.784 -10.928  -1.145  1.00  0.00    -0.077 N 
HETATM   19  H   UNL     1      39.286 -11.834  -1.076  1.00  0.00     0.279 HD
HETATM   20  C   UNL     1      39.791  -9.906  -1.598  1.00  0.00     0.269 C 
HETATM   21  C   UNL     1      38.285 -10.606   0.238  1.00  0.00     0.269 C 
ENDBRANCH  17  18
ENDBRANCH  16  17
ENDBRANCH  13  16
ENDBRANCH  11  12
ENDBRANCH   3  11
BRANCH   1  22
HETATM   22  C   UNL     1      42.272 -15.654   1.192  1.00  0.00    -0.024 C 
HETATM   23  C   UNL     1      43.132 -15.433   2.298  1.00  0.00    -0.053 C 
HETATM   24  C   UNL     1      43.723 -16.543   2.949  1.00  0.00     0.014 C 
HETATM   25  C   UNL     1      43.470 -14.108   2.920  1.00  0.00     0.049 C 
HETATM   26  C   UNL     1      43.540 -17.852   2.507  1.00  0.00    -0.061 C 
HETATM   27  C   UNL     1      44.049 -19.014   3.311  1.00  0.00     0.048 C 
HETATM   28  C   UNL     1      42.822 -18.058   1.338  1.00  0.00     0.007 C 
HETATM   29  C   UNL     1      42.216 -16.979   0.687  1.00  0.00     0.011 C 
ENDBRANCH   1  22
BRANCH  10  30
HETATM   30  C   UNL     1      39.509 -14.053   2.380  1.00  0.00     0.294 C 
HETATM   31  O   UNL     1      38.417 -13.622   2.053  1.00  0.00    -0.259 OA
BRANCH  30  32
HETATM   32  O   UNL     1      39.766 -14.990   3.312  1.00  0.00    -0.313 OA
BRANCH  32  33
HETATM   33  C   UNL     1      39.991 -14.500   4.646  1.00  0.00     0.217 C 
BRANCH  33  34
HETATM   34  C   UNL     1      41.032 -15.354   5.329  1.00  0.00    -0.034 A 
HETATM   35  C   UNL     1      40.901 -16.750   5.372  1.00  0.00     0.009 A 
HETATM   36  C   UNL     1      41.883 -17.536   5.983  1.00  0.00     0.001 A 
HETATM   37  C   UNL     1      43.000 -16.936   6.561  1.00  0.00     0.000 A 
HETATM   38  C   UNL     1      43.135 -15.549   6.534  1.00  0.00     0.001 A 
HETATM   39  C   UNL     1      42.156 -14.762   5.926  1.00  0.00     0.009 A 
ENDBRANCH  33  34
ENDBRANCH  32  33
ENDBRANCH  30  32
ENDBRANCH  10  30
TORSDOF 10
ENDMDL
MODEL 7
REMARK VINA RESULT:      -6.3      2.159      4.745
REMARK  10 active torsions:
REMARK  status: ('A' for Active; 'I' for Inactive)
REMARK    1  A    between atoms: C_6  and  C_7 
REMARK    2  A    between atoms: C_9  and  C_10 
REMARK    3  A    between atoms: C_10  and  C_11 
REMARK       I    between atoms: C_11  and  N_12 
REMARK    4  A    between atoms: N_12  and  C_13 
REMARK    5  A    between atoms: C_13  and  C_14 
REMARK    6  A    between atoms: C_14  and  N_15 
REMARK    7  A    between atoms: C_26  and  C_27 
REMARK    8  A    between atoms: C_27  and  O_28 
REMARK    9  A    between atoms: O_28  and  C_29 
REMARK   10  A    between atoms: C_29  and  C_30 
ROOT
HETATM    1  C   UNL     1      41.126 -14.136   0.795  1.00  0.00     0.166 C 
HETATM    2  N   UNL     1      40.411 -13.120   1.592  1.00  0.00    -0.318 N 
HETATM    3  C   UNL     1      39.177 -12.775   1.764  1.00  0.00     0.011 C 
HETATM    4  C   UNL     1      41.309 -12.435   2.658  1.00  0.00     0.170 C 
HETATM    5  S   UNL     1      40.549 -11.021   3.316  1.00  0.00    -0.086 SA
HETATM    6  C   UNL     1      38.953 -11.545   2.622  1.00  0.00     0.135 C 
HETATM    7  N   UNL     1      42.428 -12.901   3.086  1.00  0.00    -0.229 NA
HETATM    8  C   UNL     1      42.783 -14.174   2.677  1.00  0.00     0.048 C 
HETATM    9  C   UNL     1      43.853 -14.807   3.535  1.00  0.00     0.071 C 
HETATM   10  C   UNL     1      42.172 -14.800   1.648  1.00  0.00     0.069 C 
ENDROOT
BRANCH   3  11
HETATM   11  C   UNL     1      38.032 -13.615   1.286  1.00  0.00     0.156 C 
BRANCH  11  12
HETATM   12  C   UNL     1      37.434 -13.271  -0.053  1.00  0.00     0.223 C 
HETATM   13  N   UNL     1      37.973 -13.989  -1.092  1.00  0.00    -0.359 N 
HETATM   14  H   UNL     1      38.753 -14.610  -0.881  1.00  0.00     0.162 HD
HETATM   15  O   UNL     1      36.577 -12.406  -0.193  1.00  0.00    -0.273 OA
BRANCH  13  16
HETATM   16  C   UNL     1      37.834 -13.676  -2.516  1.00  0.00     0.150 C 
BRANCH  16  17
HETATM   17  C   UNL     1      38.453 -12.354  -3.012  1.00  0.00     0.253 C 
BRANCH  17  18
HETATM   18  N   UNL     1      37.961 -11.945  -4.384  1.00  0.00    -0.077 N 
HETATM   19  H   UNL     1      38.375 -12.615  -5.062  1.00  0.00     0.279 HD
HETATM   20  C   UNL     1      36.468 -12.026  -4.551  1.00  0.00     0.269 C 
HETATM   21  C   UNL     1      38.466 -10.580  -4.764  1.00  0.00     0.269 C 
ENDBRANCH  17  18
ENDBRANCH  16  17
ENDBRANCH  13  16
ENDBRANCH  11  12
ENDBRANCH   3  11
BRANCH   1  22
HETATM   22  C   UNL     1      41.718 -13.631  -0.547  1.00  0.00    -0.024 C 
HETATM   23  C   UNL     1      41.543 -14.192  -1.837  1.00  0.00    -0.053 C 
HETATM   24  C   UNL     1      41.792 -13.394  -2.980  1.00  0.00     0.014 C 
HETATM   25  C   UNL     1      41.058 -15.579  -2.153  1.00  0.00     0.049 C 
HETATM   26  C   UNL     1      42.263 -12.086  -2.889  1.00  0.00    -0.061 C 
HETATM   27  C   UNL     1      42.364 -11.218  -4.110  1.00  0.00     0.048 C 
HETATM   28  C   UNL     1      42.578 -11.586  -1.634  1.00  0.00     0.007 C 
HETATM   29  C   UNL     1      42.326 -12.350  -0.490  1.00  0.00     0.011 C 
ENDBRANCH   1  22
BRANCH  10  30
HETATM   30  C   UNL     1      42.285 -16.270   1.532  1.00  0.00     0.294 C 
HETATM   31  O   UNL     1      43.110 -16.792   0.802  1.00  0.00    -0.259 OA
BRANCH  30  32
HETATM   32  O   UNL     1      41.486 -16.885   2.423  1.00  0.00    -0.313 OA
BRANCH  32  33
HETATM   33  C   UNL     1      42.019 -18.081   3.021  1.00  0.00     0.217 C 
BRANCH  33  34
HETATM   34  C   UNL     1      42.174 -17.877   4.509  1.00  0.00    -0.034 A 
HETATM   35  C   UNL     1      43.208 -18.508   5.217  1.00  0.00     0.009 A 
HETATM   36  C   UNL     1      43.363 -18.293   6.590  1.00  0.00     0.001 A 
HETATM   37  C   UNL     1      42.483 -17.451   7.268  1.00  0.00     0.000 A 
HETATM   38  C   UNL     1      41.446 -16.828   6.578  1.00  0.00     0.001 A 
HETATM   39  C   UNL     1      41.288 -17.042   5.207  1.00  0.00     0.009 A 
ENDBRANCH  33  34
ENDBRANCH  32  33
ENDBRANCH  30  32
ENDBRANCH  10  30
TORSDOF 10
ENDMDL
MODEL 8
REMARK VINA RESULT:      -6.1      4.160      8.126
REMARK  10 active torsions:
REMARK  status: ('A' for Active; 'I' for Inactive)
REMARK    1  A    between atoms: C_6  and  C_7 
REMARK    2  A    between atoms: C_9  and  C_10 
REMARK    3  A    between atoms: C_10  and  C_11 
REMARK       I    between atoms: C_11  and  N_12 
REMARK    4  A    between atoms: N_12  and  C_13 
REMARK    5  A    between atoms: C_13  and  C_14 
REMARK    6  A    between atoms: C_14  and  N_15 
REMARK    7  A    between atoms: C_26  and  C_27 
REMARK    8  A    between atoms: C_27  and  O_28 
REMARK    9  A    between atoms: O_28  and  C_29 
REMARK   10  A    between atoms: C_29  and  C_30 
ROOT
HETATM    1  C   UNL     1      42.407 -13.622   4.513  1.00  0.00     0.166 C 
HETATM    2  N   UNL     1      42.865 -14.615   5.505  1.00  0.00    -0.318 N 
HETATM    3  C   UNL     1      43.968 -14.860   6.133  1.00  0.00     0.011 C 
HETATM    4  C   UNL     1      41.704 -15.437   6.129  1.00  0.00     0.170 C 
HETATM    5  S   UNL     1      42.297 -16.813   7.003  1.00  0.00    -0.086 SA
HETATM    6  C   UNL     1      43.973 -16.112   6.988  1.00  0.00     0.135 C 
HETATM    7  N   UNL     1      40.464 -15.097   6.102  1.00  0.00    -0.229 NA
HETATM    8  C   UNL     1      40.163 -13.839   5.611  1.00  0.00     0.048 C 
HETATM    9  C   UNL     1      38.787 -13.352   6.003  1.00  0.00     0.071 C 
HETATM   10  C   UNL     1      41.052 -13.103   4.910  1.00  0.00     0.069 C 
ENDROOT
BRANCH   3  11
HETATM   11  C   UNL     1      45.116 -13.896   6.150  1.00  0.00     0.156 C 
BRANCH  11  12
HETATM   12  C   UNL     1      45.388 -13.168   7.440  1.00  0.00     0.223 C 
HETATM   13  N   UNL     1      44.248 -12.841   8.134  1.00  0.00    -0.359 N 
HETATM   14  H   UNL     1      43.353 -13.044   7.692  1.00  0.00     0.162 HD
HETATM   15  O   UNL     1      46.519 -12.870   7.806  1.00  0.00    -0.273 OA
BRANCH  13  16
HETATM   16  C   UNL     1      44.160 -11.882   9.237  1.00  0.00     0.150 C 
BRANCH  16  17
HETATM   17  C   UNL     1      42.870 -11.047   9.345  1.00  0.00     0.253 C 
BRANCH  17  18
HETATM   18  N   UNL     1      42.013 -11.428  10.534  1.00  0.00    -0.077 N 
HETATM   19  H   UNL     1      41.864 -12.455  10.478  1.00  0.00     0.279 HD
HETATM   20  C   UNL     1      42.653 -11.154  11.868  1.00  0.00     0.269 C 
HETATM   21  C   UNL     1      40.652 -10.791  10.456  1.00  0.00     0.269 C 
ENDBRANCH  17  18
ENDBRANCH  16  17
ENDBRANCH  13  16
ENDBRANCH  11  12
ENDBRANCH   3  11
BRANCH   1  22
HETATM   22  C   UNL     1      42.427 -14.099   3.038  1.00  0.00    -0.024 C 
HETATM   23  C   UNL     1      42.231 -15.416   2.550  1.00  0.00    -0.053 C 
HETATM   24  C   UNL     1      41.868 -15.607   1.195  1.00  0.00     0.014 C 
HETATM   25  C   UNL     1      42.320 -16.688   3.345  1.00  0.00     0.049 C 
HETATM   26  C   UNL     1      41.752 -14.548   0.297  1.00  0.00    -0.061 C 
HETATM   27  C   UNL     1      41.212 -14.769  -1.087  1.00  0.00     0.048 C 
HETATM   28  C   UNL     1      42.089 -13.276   0.734  1.00  0.00     0.007 C 
HETATM   29  C   UNL     1      42.435 -13.060   2.071  1.00  0.00     0.011 C 
ENDBRANCH   1  22
BRANCH  10  30
HETATM   30  C   UNL     1      40.841 -11.644   4.788  1.00  0.00     0.294 C 
HETATM   31  O   UNL     1      41.089 -10.884   5.708  1.00  0.00    -0.259 OA
BRANCH  30  32
HETATM   32  O   UNL     1      40.502 -11.311   3.528  1.00  0.00    -0.313 OA
BRANCH  32  33
HETATM   33  C   UNL     1      39.091 -11.213   3.265  1.00  0.00     0.217 C 
BRANCH  33  34
HETATM   34  C   UNL     1      38.729 -12.113   2.107  1.00  0.00    -0.034 A 
HETATM   35  C   UNL     1      38.654 -13.504   2.274  1.00  0.00     0.009 A 
HETATM   36  C   UNL     1      38.292 -14.328   1.205  1.00  0.00     0.001 A 
HETATM   37  C   UNL     1      38.007 -13.772  -0.041  1.00  0.00     0.000 A 
HETATM   38  C   UNL     1      38.089 -12.393  -0.222  1.00  0.00     0.001 A 
HETATM   39  C   UNL     1      38.452 -11.568   0.844  1.00  0.00     0.009 A 
ENDBRANCH  33  34
ENDBRANCH  32  33
ENDBRANCH  30  32
ENDBRANCH  10  30
TORSDOF 10
ENDMDL
MODEL 9
REMARK VINA RESULT:      -6.0      3.508      5.646
REMARK  10 active torsions:
REMARK  status: ('A' for Active; 'I' for Inactive)
REMARK    1  A    between atoms: C_6  and  C_7 
REMARK    2  A    between atoms: C_9  and  C_10 
REMARK    3  A    between atoms: C_10  and  C_11 
REMARK       I    between atoms: C_11  and  N_12 
REMARK    4  A    between atoms: N_12  and  C_13 
REMARK    5  A    between atoms: C_13  and  C_14 
REMARK    6  A    between atoms: C_14  and  N_15 
REMARK    7  A    between atoms: C_26  and  C_27 
REMARK    8  A    between atoms: C_27  and  O_28 
REMARK    9  A    between atoms: O_28  and  C_29 
REMARK   10  A    between atoms: C_29  and  C_30 
ROOT
HETATM    1  C   UNL     1      39.156 -12.733   2.358  1.00  0.00     0.166 C 
HETATM    2  N   UNL     1      38.875 -11.667   1.377  1.00  0.00    -0.318 N 
HETATM    3  C   UNL     1      37.871 -11.328   0.635  1.00  0.00     0.011 C 
HETATM    4  C   UNL     1      39.938 -10.534   1.382  1.00  0.00     0.170 C 
HETATM    5  S   UNL     1      39.776  -9.504  -0.004  1.00  0.00    -0.086 SA
HETATM    6  C   UNL     1      38.123 -10.186  -0.330  1.00  0.00     0.135 C 
HETATM    7  N   UNL     1      40.771 -10.312   2.335  1.00  0.00    -0.229 NA
HETATM    8  C   UNL     1      40.609 -11.039   3.501  1.00  0.00     0.048 C 
HETATM    9  C   UNL     1      41.319 -10.437   4.692  1.00  0.00     0.071 C 
HETATM   10  C   UNL     1      39.832 -12.141   3.565  1.00  0.00     0.069 C 
ENDROOT
BRANCH   3  11
HETATM   11  C   UNL     1      36.502 -11.909   0.818  1.00  0.00     0.156 C 
BRANCH  11  12
HETATM   12  C   UNL     1      35.328 -10.982   0.643  1.00  0.00     0.223 C 
HETATM   13  N   UNL     1      35.099 -10.178   1.733  1.00  0.00    -0.359 N 
HETATM   14  H   UNL     1      35.675 -10.331   2.560  1.00  0.00     0.162 HD
HETATM   15  O   UNL     1      34.630 -10.982  -0.364  1.00  0.00    -0.273 OA
BRANCH  13  16
HETATM   16  C   UNL     1      33.879  -9.412   1.994  1.00  0.00     0.150 C 
BRANCH  16  17
HETATM   17  C   UNL     1      32.892  -9.987   3.029  1.00  0.00     0.253 C 
BRANCH  17  18
HETATM   18  N   UNL     1      31.541 -10.330   2.436  1.00  0.00    -0.077 N 
HETATM   19  H   UNL     1      30.850  -9.695   2.881  1.00  0.00     0.279 HD
HETATM   20  C   UNL     1      31.446 -10.104   0.952  1.00  0.00     0.269 C 
HETATM   21  C   UNL     1      31.128 -11.733   2.789  1.00  0.00     0.269 C 
ENDBRANCH  17  18
ENDBRANCH  16  17
ENDBRANCH  13  16
ENDBRANCH  11  12
ENDBRANCH   3  11
BRANCH   1  22
HETATM   22  C   UNL     1      39.937 -13.953   1.806  1.00  0.00    -0.024 C 
HETATM   23  C   UNL     1      41.283 -13.991   1.360  1.00  0.00    -0.053 C 
HETATM   24  C   UNL     1      41.955 -15.235   1.288  1.00  0.00     0.014 C 
HETATM   25  C   UNL     1      42.135 -12.812   0.983  1.00  0.00     0.049 C 
HETATM   26  C   UNL     1      41.326 -16.442   1.584  1.00  0.00    -0.061 C 
HETATM   27  C   UNL     1      42.108 -17.722   1.652  1.00  0.00     0.048 C 
HETATM   28  C   UNL     1      39.969 -16.423   1.874  1.00  0.00     0.007 C 
HETATM   29  C   UNL     1      39.288 -15.205   1.967  1.00  0.00     0.011 C 
ENDBRANCH   1  22
BRANCH  10  30
HETATM   30  C   UNL     1      39.361 -12.614   4.885  1.00  0.00     0.294 C 
HETATM   31  O   UNL     1      38.519 -12.002   5.519  1.00  0.00    -0.259 OA
BRANCH  30  32
HETATM   32  O   UNL     1      39.869 -13.827   5.171  1.00  0.00    -0.313 OA
BRANCH  32  33
HETATM   33  C   UNL     1      41.305 -13.908   5.220  1.00  0.00     0.217 C 
BRANCH  33  34
HETATM   34  C   UNL     1      41.730 -15.357   5.214  1.00  0.00    -0.034 A 
HETATM   35  C   UNL     1      40.799 -16.380   5.444  1.00  0.00     0.009 A 
HETATM   36  C   UNL     1      41.195 -17.721   5.410  1.00  0.00     0.001 A 
HETATM   37  C   UNL     1      42.524 -18.050   5.151  1.00  0.00     0.000 A 
HETATM   38  C   UNL     1      43.460 -17.042   4.932  1.00  0.00     0.001 A 
HETATM   39  C   UNL     1      43.068 -15.702   4.967  1.00  0.00     0.009 A 
ENDBRANCH  33  34
ENDBRANCH  32  33
ENDBRANCH  30  32
ENDBRANCH  10  30
TORSDOF 10
ENDMDL
MODEL 10
REMARK VINA RESULT:      -5.9      2.336      4.879
REMARK  10 active torsions:
REMARK  status: ('A' for Active; 'I' for Inactive)
REMARK    1  A    between atoms: C_6  and  C_7 
REMARK    2  A    between atoms: C_9  and  C_10 
REMARK    3  A    between atoms: C_10  and  C_11 
REMARK       I    between atoms: C_11  and  N_12 
REMARK    4  A    between atoms: N_12  and  C_13 
REMARK    5  A    between atoms: C_13  and  C_14 
REMARK    6  A    between atoms: C_14  and  N_15 
REMARK    7  A    between atoms: C_26  and  C_27 
REMARK    8  A    between atoms: C_27  and  O_28 
REMARK    9  A    between atoms: O_28  and  C_29 
REMARK   10  A    between atoms: C_29  and  C_30 
ROOT
HETATM    1  C   UNL     1      40.833 -13.724   0.839  1.00  0.00     0.166 C 
HETATM    2  N   UNL     1      40.203 -12.576   1.519  1.00  0.00    -0.318 N 
HETATM    3  C   UNL     1      39.008 -12.090   1.607  1.00  0.00     0.011 C 
HETATM    4  C   UNL     1      41.130 -11.900   2.567  1.00  0.00     0.170 C 
HETATM    5  S   UNL     1      40.502 -10.365   3.075  1.00  0.00    -0.086 SA
HETATM    6  C   UNL     1      38.886 -10.776   2.353  1.00  0.00     0.135 C 
HETATM    7  N   UNL     1      42.176 -12.443   3.082  1.00  0.00    -0.229 NA
HETATM    8  C   UNL     1      42.407 -13.776   2.792  1.00  0.00     0.048 C 
HETATM    9  C   UNL     1      43.370 -14.443   3.746  1.00  0.00     0.071 C 
HETATM   10  C   UNL     1      41.770 -14.419   1.790  1.00  0.00     0.069 C 
ENDROOT
BRANCH   3  11
HETATM   11  C   UNL     1      37.797 -12.843   1.146  1.00  0.00     0.156 C 
BRANCH  11  12
HETATM   12  C   UNL     1      36.826 -12.113   0.256  1.00  0.00     0.223 C 
HETATM   13  N   UNL     1      37.207 -12.088  -1.064  1.00  0.00    -0.359 N 
HETATM   14  H   UNL     1      38.116 -12.485  -1.299  1.00  0.00     0.162 HD
HETATM   15  O   UNL     1      35.818 -11.565   0.685  1.00  0.00    -0.273 OA
BRANCH  13  16
HETATM   16  C   UNL     1      36.656 -11.213  -2.101  1.00  0.00     0.150 C 
BRANCH  16  17
HETATM   17  C   UNL     1      36.439 -11.825  -3.499  1.00  0.00     0.253 C 
BRANCH  17  18
HETATM   18  N   UNL     1      36.749 -10.860  -4.624  1.00  0.00    -0.077 N 
HETATM   19  H   UNL     1      36.269  -9.968  -4.393  1.00  0.00     0.279 HD
HETATM   20  C   UNL     1      38.211 -10.540  -4.775  1.00  0.00     0.269 C 
HETATM   21  C   UNL     1      36.170 -11.335  -5.929  1.00  0.00     0.269 C 
ENDBRANCH  17  18
ENDBRANCH  16  17
ENDBRANCH  13  16
ENDBRANCH  11  12
ENDBRANCH   3  11
BRANCH   1  22
HETATM   22  C   UNL     1      41.526 -13.399  -0.509  1.00  0.00    -0.024 C 
HETATM   23  C   UNL     1      41.434 -14.120  -1.727  1.00  0.00    -0.053 C 
HETATM   24  C   UNL     1      41.774 -13.476  -2.942  1.00  0.00     0.014 C 
HETATM   25  C   UNL     1      40.953 -15.533  -1.897  1.00  0.00     0.049 C 
HETATM   26  C   UNL     1      42.255 -12.169  -2.985  1.00  0.00    -0.061 C 
HETATM   27  C   UNL     1      42.455 -11.465  -4.296  1.00  0.00     0.048 C 
HETATM   28  C   UNL     1      42.489 -11.514  -1.784  1.00  0.00     0.007 C 
HETATM   29  C   UNL     1      42.146 -12.124  -0.573  1.00  0.00     0.011 C 
ENDBRANCH   1  22
BRANCH  10  30
HETATM   30  C   UNL     1      41.728 -15.898   1.797  1.00  0.00     0.294 C 
HETATM   31  O   UNL     1      40.683 -16.506   1.953  1.00  0.00    -0.259 OA
BRANCH  30  32
HETATM   32  O   UNL     1      42.927 -16.414   1.470  1.00  0.00    -0.313 OA
BRANCH  32  33
HETATM   33  C   UNL     1      42.920 -17.788   1.041  1.00  0.00     0.217 C 
BRANCH  33  34
HETATM   34  C   UNL     1      43.531 -18.656   2.115  1.00  0.00    -0.034 A 
HETATM   35  C   UNL     1      43.822 -18.132   3.384  1.00  0.00     0.009 A 
HETATM   36  C   UNL     1      44.363 -18.948   4.382  1.00  0.00     0.001 A 
HETATM   37  C   UNL     1      44.622 -20.292   4.121  1.00  0.00     0.000 A 
HETATM   38  C   UNL     1      44.348 -20.821   2.861  1.00  0.00     0.001 A 
HETATM   39  C   UNL     1      43.810 -20.008   1.862  1.00  0.00     0.009 A 
ENDBRANCH  33  34
ENDBRANCH  32  33
ENDBRANCH  30  32
ENDBRANCH  10  30
TORSDOF 10
ENDMDL
