MODEL 1
REMARK VINA RESULT:      -8.3      0.000      0.000
REMARK  5 active torsions:
REMARK  status: ('A' for Active; 'I' for Inactive)
REMARK    1  A    between atoms: O_2  and  C_3 
REMARK    2  A    between atoms: C_7  and  C_9 
REMARK    3  A    between atoms: C_9  and  N_11 
REMARK       I    between atoms: N_11  and  C_12 
REMARK       I    between atoms: C_12  and  N_14 
REMARK    4  A    between atoms: N_14  and  C_15 
REMARK    5  A    between atoms: C_18  and  C_21 
ROOT
HETATM    1  N   UNL     1      44.345 -13.694   8.117  1.00  0.00    -0.335 N 
HETATM    2  C   UNL     1      43.978 -14.332   6.985  1.00  0.00     0.322 C 
HETATM    3  O   UNL     1      44.132 -13.998   5.826  1.00  0.00    -0.247 OA
HETATM    4  N   UNL     1      43.330 -15.531   7.288  1.00  0.00    -0.289 N 
HETATM    5  H   UNL     1      44.140 -14.079   9.028  1.00  0.00     0.165 HD
HETATM    6  H   UNL     1      43.129 -15.847   8.221  1.00  0.00     0.172 HD
ENDROOT
BRANCH   1   7
HETATM    7  C   UNL     1      44.951 -12.367   8.111  1.00  0.00     0.115 C 
HETATM    8  C   UNL     1      46.478 -12.423   8.187  1.00  0.00     0.037 C 
BRANCH   7   9
HETATM    9  C   UNL     1      44.348 -11.568   9.252  1.00  0.00    -0.033 A 
HETATM   10  C   UNL     1      45.080 -11.347  10.426  1.00  0.00     0.009 A 
HETATM   11  C   UNL     1      44.550 -10.561  11.450  1.00  0.00     0.003 A 
HETATM   12  C   UNL     1      43.288  -9.977  11.316  1.00  0.00     0.037 A 
HETATM   13  C   UNL     1      42.547 -10.180  10.155  1.00  0.00     0.068 A 
HETATM   14  C   UNL     1      43.079 -10.974   9.135  1.00  0.00     0.046 A 
BRANCH  13  15
HETATM   15  O   UNL     1      41.313  -9.660   9.880  1.00  0.00    -0.356 OA
HETATM   16  C   UNL     1      40.278 -10.586   9.570  1.00  0.00     0.210 C 
ENDBRANCH  13  15
ENDBRANCH   7   9
ENDBRANCH   1   7
BRANCH   4  17
HETATM   17  C   UNL     1      42.893 -16.341   6.339  1.00  0.00     0.153 A 
HETATM   18  N   UNL     1      43.611 -17.250   5.676  1.00  0.00    -0.335 N 
HETATM   19  H   UNL     1      44.603 -17.352   5.904  1.00  0.00     0.168 HD
HETATM   20  C   UNL     1      42.893 -17.975   4.741  1.00  0.00     0.051 A 
HETATM   21  C   UNL     1      41.575 -17.569   4.688  1.00  0.00     0.083 A 
HETATM   22  S   UNL     1      41.244 -16.321   5.828  1.00  0.00    -0.063 SA
BRANCH  20  23
HETATM   23  C   UNL     1      43.477 -19.034   3.922  1.00  0.00    -0.006 A 
HETATM   24  C   UNL     1      43.097 -19.220   2.587  1.00  0.00     0.033 A 
HETATM   25  C   UNL     1      43.678 -20.251   1.864  1.00  0.00     0.117 A 
HETATM   26  N   UNL     1      44.591 -21.095   2.379  1.00  0.00    -0.273 NA
HETATM   27  C   UNL     1      44.949 -20.909   3.662  1.00  0.00     0.117 A 
HETATM   28  C   UNL     1      44.429 -19.905   4.465  1.00  0.00     0.033 A 
ENDBRANCH  20  23
ENDBRANCH   4  17
TORSDOF 5
ENDMDL
MODEL 2
REMARK VINA RESULT:      -8.3      2.506      9.769
REMARK  5 active torsions:
REMARK  status: ('A' for Active; 'I' for Inactive)
REMARK    1  A    between atoms: O_2  and  C_3 
REMARK    2  A    between atoms: C_7  and  C_9 
REMARK    3  A    between atoms: C_9  and  N_11 
REMARK       I    between atoms: N_11  and  C_12 
REMARK       I    between atoms: C_12  and  N_14 
REMARK    4  A    between atoms: N_14  and  C_15 
REMARK    5  A    between atoms: C_18  and  C_21 
ROOT
HETATM    1  N   UNL     1      43.745 -15.908   5.692  1.00  0.00    -0.335 N 
HETATM    2  C   UNL     1      43.728 -14.682   6.259  1.00  0.00     0.322 C 
HETATM    3  O   UNL     1      42.961 -13.756   6.074  1.00  0.00    -0.247 OA
HETATM    4  N   UNL     1      44.781 -14.549   7.166  1.00  0.00    -0.289 N 
HETATM    5  H   UNL     1      44.455 -16.587   5.927  1.00  0.00     0.165 HD
HETATM    6  H   UNL     1      45.477 -15.255   7.336  1.00  0.00     0.172 HD
ENDROOT
BRANCH   1   7
HETATM    7  C   UNL     1      42.824 -16.296   4.630  1.00  0.00     0.115 C 
HETATM    8  C   UNL     1      41.384 -16.433   5.128  1.00  0.00     0.037 C 
BRANCH   7   9
HETATM    9  C   UNL     1      43.340 -17.578   4.002  1.00  0.00    -0.033 A 
HETATM   10  C   UNL     1      43.353 -17.729   2.610  1.00  0.00     0.009 A 
HETATM   11  C   UNL     1      43.884 -18.883   2.031  1.00  0.00     0.003 A 
HETATM   12  C   UNL     1      44.417 -19.897   2.830  1.00  0.00     0.037 A 
HETATM   13  C   UNL     1      44.418 -19.763   4.216  1.00  0.00     0.068 A 
HETATM   14  C   UNL     1      43.879 -18.609   4.792  1.00  0.00     0.046 A 
BRANCH  13  15
HETATM   15  O   UNL     1      44.919 -20.662   5.116  1.00  0.00    -0.356 OA
HETATM   16  C   UNL     1      44.854 -22.037   4.758  1.00  0.00     0.210 C 
ENDBRANCH  13  15
ENDBRANCH   7   9
ENDBRANCH   1   7
BRANCH   4  17
HETATM   17  C   UNL     1      44.960 -13.438   7.861  1.00  0.00     0.153 A 
HETATM   18  N   UNL     1      44.067 -12.843   8.654  1.00  0.00    -0.335 N 
HETATM   19  H   UNL     1      43.141 -13.266   8.753  1.00  0.00     0.168 HD
HETATM   20  C   UNL     1      44.528 -11.695   9.275  1.00  0.00     0.051 A 
HETATM   21  C   UNL     1      45.827 -11.407   8.907  1.00  0.00     0.083 A 
HETATM   22  S   UNL     1      46.464 -12.590   7.829  1.00  0.00    -0.063 SA
BRANCH  20  23
HETATM   23  C   UNL     1      43.724 -10.902  10.201  1.00  0.00    -0.006 A 
HETATM   24  C   UNL     1      44.199 -10.557  11.472  1.00  0.00     0.033 A 
HETATM   25  C   UNL     1      43.384  -9.812  12.310  1.00  0.00     0.117 A 
HETATM   26  N   UNL     1      42.147  -9.404  11.972  1.00  0.00    -0.273 NA
HETATM   27  C   UNL     1      41.699  -9.741  10.750  1.00  0.00     0.117 A 
HETATM   28  C   UNL     1      42.440 -10.479   9.839  1.00  0.00     0.033 A 
ENDBRANCH  20  23
ENDBRANCH   4  17
TORSDOF 5
ENDMDL
MODEL 3
REMARK VINA RESULT:      -8.2      2.789      9.791
REMARK  5 active torsions:
REMARK  status: ('A' for Active; 'I' for Inactive)
REMARK    1  A    between atoms: O_2  and  C_3 
REMARK    2  A    between atoms: C_7  and  C_9 
REMARK    3  A    between atoms: C_9  and  N_11 
REMARK       I    between atoms: N_11  and  C_12 
REMARK       I    between atoms: C_12  and  N_14 
REMARK    4  A    between atoms: N_14  and  C_15 
REMARK    5  A    between atoms: C_18  and  C_21 
ROOT
HETATM    1  N   UNL     1      44.371 -16.268   6.003  1.00  0.00    -0.335 N 
HETATM    2  C   UNL     1      44.350 -15.485   7.103  1.00  0.00     0.322 C 
HETATM    3  O   UNL     1      43.968 -15.744   8.228  1.00  0.00    -0.247 OA
HETATM    4  N   UNL     1      44.848 -14.215   6.808  1.00  0.00    -0.289 N 
HETATM    5  H   UNL     1      44.704 -15.920   5.115  1.00  0.00     0.165 HD
HETATM    6  H   UNL     1      45.139 -13.918   5.892  1.00  0.00     0.172 HD
ENDROOT
BRANCH   1   7
HETATM    7  C   UNL     1      43.815 -17.616   5.986  1.00  0.00     0.115 C 
HETATM    8  C   UNL     1      44.573 -18.571   6.912  1.00  0.00     0.037 C 
BRANCH   7   9
HETATM    9  C   UNL     1      43.797 -18.103   4.549  1.00  0.00    -0.033 A 
HETATM   10  C   UNL     1      43.486 -17.220   3.506  1.00  0.00     0.009 A 
HETATM   11  C   UNL     1      43.529 -17.652   2.180  1.00  0.00     0.003 A 
HETATM   12  C   UNL     1      43.892 -18.966   1.873  1.00  0.00     0.037 A 
HETATM   13  C   UNL     1      44.209 -19.857   2.894  1.00  0.00     0.068 A 
HETATM   14  C   UNL     1      44.158 -19.422   4.222  1.00  0.00     0.046 A 
BRANCH  13  15
HETATM   15  O   UNL     1      44.596 -21.160   2.742  1.00  0.00    -0.356 OA
HETATM   16  C   UNL     1      43.971 -21.899   1.698  1.00  0.00     0.210 C 
ENDBRANCH  13  15
ENDBRANCH   7   9
ENDBRANCH   1   7
BRANCH   4  17
HETATM   17  C   UNL     1      44.943 -13.276   7.733  1.00  0.00     0.153 A 
HETATM   18  N   UNL     1      43.971 -12.860   8.548  1.00  0.00    -0.335 N 
HETATM   19  H   UNL     1      43.049 -13.294   8.470  1.00  0.00     0.168 HD
HETATM   20  C   UNL     1      44.354 -11.869   9.436  1.00  0.00     0.051 A 
HETATM   21  C   UNL     1      45.675 -11.511   9.257  1.00  0.00     0.083 A 
HETATM   22  S   UNL     1      46.427 -12.440   8.017  1.00  0.00    -0.063 SA
BRANCH  20  23
HETATM   23  C   UNL     1      43.455 -11.288  10.429  1.00  0.00    -0.006 A 
HETATM   24  C   UNL     1      42.428 -10.409  10.061  1.00  0.00     0.033 A 
HETATM   25  C   UNL     1      41.615  -9.880  11.051  1.00  0.00     0.117 A 
HETATM   26  N   UNL     1      41.760 -10.160  12.360  1.00  0.00    -0.273 NA
HETATM   27  C   UNL     1      42.750 -11.004  12.703  1.00  0.00     0.117 A 
HETATM   28  C   UNL     1      43.612 -11.588  11.787  1.00  0.00     0.033 A 
ENDBRANCH  20  23
ENDBRANCH   4  17
TORSDOF 5
ENDMDL
MODEL 4
REMARK VINA RESULT:      -8.1      5.883      9.304
REMARK  5 active torsions:
REMARK  status: ('A' for Active; 'I' for Inactive)
REMARK    1  A    between atoms: O_2  and  C_3 
REMARK    2  A    between atoms: C_7  and  C_9 
REMARK    3  A    between atoms: C_9  and  N_11 
REMARK       I    between atoms: N_11  and  C_12 
REMARK       I    between atoms: C_12  and  N_14 
REMARK    4  A    between atoms: N_14  and  C_15 
REMARK    5  A    between atoms: C_18  and  C_21 
ROOT
HETATM    1  N   UNL     1      42.209 -16.536   3.294  1.00  0.00    -0.335 N 
HETATM    2  C   UNL     1      41.394 -16.041   2.338  1.00  0.00     0.322 C 
HETATM    3  O   UNL     1      40.201 -16.214   2.176  1.00  0.00    -0.247 OA
HETATM    4  N   UNL     1      42.111 -15.236   1.452  1.00  0.00    -0.289 N 
HETATM    5  H   UNL     1      43.197 -16.323   3.305  1.00  0.00     0.165 HD
HETATM    6  H   UNL     1      43.104 -15.085   1.500  1.00  0.00     0.172 HD
ENDROOT
BRANCH   1   7
HETATM    7  C   UNL     1      41.756 -17.493   4.297  1.00  0.00     0.115 C 
HETATM    8  C   UNL     1      41.332 -16.813   5.602  1.00  0.00     0.037 C 
BRANCH   7   9
HETATM    9  C   UNL     1      42.860 -18.511   4.512  1.00  0.00    -0.033 A 
HETATM   10  C   UNL     1      43.233 -18.887   5.809  1.00  0.00     0.009 A 
HETATM   11  C   UNL     1      44.207 -19.868   6.006  1.00  0.00     0.003 A 
HETATM   12  C   UNL     1      44.815 -20.494   4.915  1.00  0.00     0.037 A 
HETATM   13  C   UNL     1      44.454 -20.138   3.618  1.00  0.00     0.068 A 
HETATM   14  C   UNL     1      43.483 -19.149   3.426  1.00  0.00     0.046 A 
BRANCH  13  15
HETATM   15  O   UNL     1      44.949 -20.675   2.463  1.00  0.00    -0.356 OA
HETATM   16  C   UNL     1      44.391 -21.912   2.036  1.00  0.00     0.210 C 
ENDBRANCH  13  15
ENDBRANCH   7   9
ENDBRANCH   1   7
BRANCH   4  17
HETATM   17  C   UNL     1      41.522 -14.624   0.439  1.00  0.00     0.153 A 
HETATM   18  N   UNL     1      40.760 -15.191  -0.499  1.00  0.00    -0.335 N 
HETATM   19  H   UNL     1      40.599 -16.200  -0.454  1.00  0.00     0.168 HD
HETATM   20  C   UNL     1      40.255 -14.308  -1.437  1.00  0.00     0.051 A 
HETATM   21  C   UNL     1      40.683 -13.017  -1.199  1.00  0.00     0.083 A 
HETATM   22  S   UNL     1      41.671 -12.919   0.209  1.00  0.00    -0.063 SA
BRANCH  20  23
HETATM   23  C   UNL     1      39.381 -14.712  -2.535  1.00  0.00    -0.006 A 
HETATM   24  C   UNL     1      38.129 -14.116  -2.731  1.00  0.00     0.033 A 
HETATM   25  C   UNL     1      37.340 -14.551  -3.784  1.00  0.00     0.117 A 
HETATM   26  N   UNL     1      37.707 -15.529  -4.633  1.00  0.00    -0.273 NA
HETATM   27  C   UNL     1      38.911 -16.096  -4.435  1.00  0.00     0.117 A 
HETATM   28  C   UNL     1      39.774 -15.727  -3.415  1.00  0.00     0.033 A 
ENDBRANCH  20  23
ENDBRANCH   4  17
TORSDOF 5
ENDMDL
MODEL 5
REMARK VINA RESULT:      -7.6      5.320      8.677
REMARK  5 active torsions:
REMARK  status: ('A' for Active; 'I' for Inactive)
REMARK    1  A    between atoms: O_2  and  C_3 
REMARK    2  A    between atoms: C_7  and  C_9 
REMARK    3  A    between atoms: C_9  and  N_11 
REMARK       I    between atoms: N_11  and  C_12 
REMARK       I    between atoms: C_12  and  N_14 
REMARK    4  A    between atoms: N_14  and  C_15 
REMARK    5  A    between atoms: C_18  and  C_21 
ROOT
HETATM    1  N   UNL     1      43.048 -19.399   2.055  1.00  0.00    -0.335 N 
HETATM    2  C   UNL     1      42.946 -18.089   1.743  1.00  0.00     0.322 C 
HETATM    3  O   UNL     1      43.784 -17.211   1.813  1.00  0.00    -0.247 OA
HETATM    4  N   UNL     1      41.657 -17.792   1.295  1.00  0.00    -0.289 N 
HETATM    5  H   UNL     1      42.260 -20.025   1.963  1.00  0.00     0.165 HD
HETATM    6  H   UNL     1      40.904 -18.457   1.253  1.00  0.00     0.172 HD
ENDROOT
BRANCH   1   7
HETATM    7  C   UNL     1      44.250 -19.975   2.647  1.00  0.00     0.115 C 
HETATM    8  C   UNL     1      44.577 -21.357   2.075  1.00  0.00     0.037 C 
BRANCH   7   9
HETATM    9  C   UNL     1      44.066 -20.005   4.153  1.00  0.00    -0.033 A 
HETATM   10  C   UNL     1      44.437 -21.138   4.889  1.00  0.00     0.009 A 
HETATM   11  C   UNL     1      44.325 -21.143   6.280  1.00  0.00     0.003 A 
HETATM   12  C   UNL     1      43.852 -20.017   6.958  1.00  0.00     0.037 A 
HETATM   13  C   UNL     1      43.483 -18.879   6.245  1.00  0.00     0.068 A 
HETATM   14  C   UNL     1      43.590 -18.882   4.851  1.00  0.00     0.046 A 
BRANCH  13  15
HETATM   15  O   UNL     1      43.022 -17.706   6.774  1.00  0.00    -0.356 OA
HETATM   16  C   UNL     1      43.326 -17.452   8.141  1.00  0.00     0.210 C 
ENDBRANCH  13  15
ENDBRANCH   7   9
ENDBRANCH   1   7
BRANCH   4  17
HETATM   17  C   UNL     1      41.320 -16.572   0.913  1.00  0.00     0.153 A 
HETATM   18  N   UNL     1      41.755 -15.929  -0.173  1.00  0.00    -0.335 N 
HETATM   19  H   UNL     1      42.418 -16.405  -0.790  1.00  0.00     0.168 HD
HETATM   20  C   UNL     1      41.224 -14.662  -0.338  1.00  0.00     0.051 A 
HETATM   21  C   UNL     1      40.366 -14.334   0.692  1.00  0.00     0.083 A 
HETATM   22  S   UNL     1      40.203 -15.621   1.824  1.00  0.00    -0.063 SA
BRANCH  20  23
HETATM   23  C   UNL     1      41.547 -13.795  -1.468  1.00  0.00    -0.006 A 
HETATM   24  C   UNL     1      41.051 -14.053  -2.752  1.00  0.00     0.033 A 
HETATM   25  C   UNL     1      41.403 -13.201  -3.788  1.00  0.00     0.117 A 
HETATM   26  N   UNL     1      42.207 -12.134  -3.630  1.00  0.00    -0.273 NA
HETATM   27  C   UNL     1      42.680 -11.896  -2.394  1.00  0.00     0.117 A 
HETATM   28  C   UNL     1      42.382 -12.686  -1.294  1.00  0.00     0.033 A 
ENDBRANCH  20  23
ENDBRANCH   4  17
TORSDOF 5
ENDMDL
MODEL 6
REMARK VINA RESULT:      -7.5      6.990     10.182
REMARK  5 active torsions:
REMARK  status: ('A' for Active; 'I' for Inactive)
REMARK    1  A    between atoms: O_2  and  C_3 
REMARK    2  A    between atoms: C_7  and  C_9 
REMARK    3  A    between atoms: C_9  and  N_11 
REMARK       I    between atoms: N_11  and  C_12 
REMARK       I    between atoms: C_12  and  N_14 
REMARK    4  A    between atoms: N_14  and  C_15 
REMARK    5  A    between atoms: C_18  and  C_21 
ROOT
HETATM    1  N   UNL     1      42.066 -16.775   1.341  1.00  0.00    -0.335 N 
HETATM    2  C   UNL     1      41.319 -15.815   0.754  1.00  0.00     0.322 C 
HETATM    3  O   UNL     1      40.414 -15.149   1.218  1.00  0.00    -0.247 OA
HETATM    4  N   UNL     1      41.708 -15.638  -0.575  1.00  0.00    -0.289 N 
HETATM    5  H   UNL     1      42.786 -17.267   0.831  1.00  0.00     0.165 HD
HETATM    6  H   UNL     1      42.416 -16.183  -1.037  1.00  0.00     0.172 HD
ENDROOT
BRANCH   1   7
HETATM    7  C   UNL     1      41.816 -17.246   2.699  1.00  0.00     0.115 C 
HETATM    8  C   UNL     1      41.957 -16.131   3.738  1.00  0.00     0.037 C 
BRANCH   7   9
HETATM    9  C   UNL     1      42.750 -18.410   2.974  1.00  0.00    -0.033 A 
HETATM   10  C   UNL     1      43.007 -19.362   1.980  1.00  0.00     0.009 A 
HETATM   11  C   UNL     1      43.912 -20.399   2.213  1.00  0.00     0.003 A 
HETATM   12  C   UNL     1      44.581 -20.495   3.436  1.00  0.00     0.037 A 
HETATM   13  C   UNL     1      44.344 -19.555   4.435  1.00  0.00     0.068 A 
HETATM   14  C   UNL     1      43.430 -18.523   4.199  1.00  0.00     0.046 A 
BRANCH  13  15
HETATM   15  O   UNL     1      44.936 -19.515   5.667  1.00  0.00    -0.356 OA
HETATM   16  C   UNL     1      45.123 -18.230   6.250  1.00  0.00     0.210 C 
ENDBRANCH  13  15
ENDBRANCH   7   9
ENDBRANCH   1   7
BRANCH   4  17
HETATM   17  C   UNL     1      41.131 -14.737  -1.352  1.00  0.00     0.153 A 
HETATM   18  N   UNL     1      39.925 -14.829  -1.918  1.00  0.00    -0.335 N 
HETATM   19  H   UNL     1      39.370 -15.672  -1.751  1.00  0.00     0.168 HD
HETATM   20  C   UNL     1      39.563 -13.727  -2.673  1.00  0.00     0.051 A 
HETATM   21  C   UNL     1      40.560 -12.774  -2.690  1.00  0.00     0.083 A 
HETATM   22  S   UNL     1      41.913 -13.246  -1.734  1.00  0.00    -0.063 SA
BRANCH  20  23
HETATM   23  C   UNL     1      38.279 -13.610  -3.360  1.00  0.00    -0.006 A 
HETATM   24  C   UNL     1      37.683 -12.363  -3.588  1.00  0.00     0.033 A 
HETATM   25  C   UNL     1      36.458 -12.317  -4.234  1.00  0.00     0.117 A 
HETATM   26  N   UNL     1      35.797 -13.412  -4.653  1.00  0.00    -0.273 NA
HETATM   27  C   UNL     1      36.377 -14.605  -4.428  1.00  0.00     0.117 A 
HETATM   28  C   UNL     1      37.602 -14.755  -3.795  1.00  0.00     0.033 A 
ENDBRANCH  20  23
ENDBRANCH   4  17
TORSDOF 5
ENDMDL
MODEL 7
REMARK VINA RESULT:      -7.5      3.728      9.629
REMARK  5 active torsions:
REMARK  status: ('A' for Active; 'I' for Inactive)
REMARK    1  A    between atoms: O_2  and  C_3 
REMARK    2  A    between atoms: C_7  and  C_9 
REMARK    3  A    between atoms: C_9  and  N_11 
REMARK       I    between atoms: N_11  and  C_12 
REMARK       I    between atoms: C_12  and  N_14 
REMARK    4  A    between atoms: N_14  and  C_15 
REMARK    5  A    between atoms: C_18  and  C_21 
ROOT
HETATM    1  N   UNL     1      43.563 -16.278   5.413  1.00  0.00    -0.335 N 
HETATM    2  C   UNL     1      42.411 -15.656   5.746  1.00  0.00     0.322 C 
HETATM    3  O   UNL     1      41.502 -16.043   6.455  1.00  0.00    -0.247 OA
HETATM    4  N   UNL     1      42.339 -14.402   5.137  1.00  0.00    -0.289 N 
HETATM    5  H   UNL     1      44.235 -15.845   4.795  1.00  0.00     0.165 HD
HETATM    6  H   UNL     1      43.031 -14.037   4.505  1.00  0.00     0.172 HD
ENDROOT
BRANCH   1   7
HETATM    7  C   UNL     1      43.865 -17.645   5.820  1.00  0.00     0.115 C 
HETATM    8  C   UNL     1      45.139 -17.734   6.664  1.00  0.00     0.037 C 
BRANCH   7   9
HETATM    9  C   UNL     1      43.943 -18.504   4.571  1.00  0.00    -0.033 A 
HETATM   10  C   UNL     1      43.747 -17.934   3.306  1.00  0.00     0.009 A 
HETATM   11  C   UNL     1      43.878 -18.710   2.154  1.00  0.00     0.003 A 
HETATM   12  C   UNL     1      44.215 -20.063   2.245  1.00  0.00     0.037 A 
HETATM   13  C   UNL     1      44.419 -20.648   3.492  1.00  0.00     0.068 A 
HETATM   14  C   UNL     1      44.279 -19.867   4.644  1.00  0.00     0.046 A 
BRANCH  13  15
HETATM   15  O   UNL     1      44.768 -21.948   3.731  1.00  0.00    -0.356 OA
HETATM   16  C   UNL     1      45.029 -22.307   5.083  1.00  0.00     0.210 C 
ENDBRANCH  13  15
ENDBRANCH   7   9
ENDBRANCH   1   7
BRANCH   4  17
HETATM   17  C   UNL     1      41.308 -13.597   5.329  1.00  0.00     0.153 A 
HETATM   18  N   UNL     1      41.141 -12.746   6.344  1.00  0.00    -0.335 N 
HETATM   19  H   UNL     1      41.868 -12.691   7.061  1.00  0.00     0.168 HD
HETATM   20  C   UNL     1      39.969 -12.011   6.287  1.00  0.00     0.051 A 
HETATM   21  C   UNL     1      39.212 -12.349   5.183  1.00  0.00     0.083 A 
HETATM   22  S   UNL     1      39.989 -13.544   4.216  1.00  0.00    -0.063 SA
BRANCH  20  23
HETATM   23  C   UNL     1      39.599 -11.009   7.283  1.00  0.00    -0.006 A 
HETATM   24  C   UNL     1      39.335 -11.361   8.612  1.00  0.00     0.033 A 
HETATM   25  C   UNL     1      38.976 -10.366   9.508  1.00  0.00     0.117 A 
HETATM   26  N   UNL     1      38.860  -9.069   9.169  1.00  0.00    -0.273 NA
HETATM   27  C   UNL     1      39.115  -8.741   7.890  1.00  0.00     0.117 A 
HETATM   28  C   UNL     1      39.485  -9.662   6.922  1.00  0.00     0.033 A 
ENDBRANCH  20  23
ENDBRANCH   4  17
TORSDOF 5
ENDMDL
MODEL 8
REMARK VINA RESULT:      -7.3      6.497      9.771
REMARK  5 active torsions:
REMARK  status: ('A' for Active; 'I' for Inactive)
REMARK    1  A    between atoms: O_2  and  C_3 
REMARK    2  A    between atoms: C_7  and  C_9 
REMARK    3  A    between atoms: C_9  and  N_11 
REMARK       I    between atoms: N_11  and  C_12 
REMARK       I    between atoms: C_12  and  N_14 
REMARK    4  A    between atoms: N_14  and  C_15 
REMARK    5  A    between atoms: C_18  and  C_21 
ROOT
HETATM    1  N   UNL     1      40.809 -16.867   1.928  1.00  0.00    -0.335 N 
HETATM    2  C   UNL     1      41.361 -15.975   1.077  1.00  0.00     0.322 C 
HETATM    3  O   UNL     1      42.352 -15.285   1.218  1.00  0.00    -0.247 OA
HETATM    4  N   UNL     1      40.614 -15.896  -0.100  1.00  0.00    -0.289 N 
HETATM    5  H   UNL     1      39.965 -17.369   1.690  1.00  0.00     0.165 HD
HETATM    6  H   UNL     1      39.762 -16.403  -0.267  1.00  0.00     0.172 HD
ENDROOT
BRANCH   1   7
HETATM    7  C   UNL     1      41.315 -17.083   3.279  1.00  0.00     0.115 C 
HETATM    8  C   UNL     1      41.808 -15.789   3.931  1.00  0.00     0.037 C 
BRANCH   7   9
HETATM    9  C   UNL     1      42.400 -18.143   3.212  1.00  0.00    -0.033 A 
HETATM   10  C   UNL     1      42.603 -18.875   2.036  1.00  0.00     0.009 A 
HETATM   11  C   UNL     1      43.640 -19.806   1.955  1.00  0.00     0.003 A 
HETATM   12  C   UNL     1      44.493 -20.014   3.042  1.00  0.00     0.037 A 
HETATM   13  C   UNL     1      44.310 -19.293   4.218  1.00  0.00     0.068 A 
HETATM   14  C   UNL     1      43.266 -18.366   4.297  1.00  0.00     0.046 A 
BRANCH  13  15
HETATM   15  O   UNL     1      45.074 -19.379   5.348  1.00  0.00    -0.356 OA
HETATM   16  C   UNL     1      45.043 -18.266   6.234  1.00  0.00     0.210 C 
ENDBRANCH  13  15
ENDBRANCH   7   9
ENDBRANCH   1   7
BRANCH   4  17
HETATM   17  C   UNL     1      40.970 -15.101  -1.094  1.00  0.00     0.153 A 
HETATM   18  N   UNL     1      41.396 -13.840  -0.990  1.00  0.00    -0.335 N 
HETATM   19  H   UNL     1      41.463 -13.421  -0.060  1.00  0.00     0.168 HD
HETATM   20  C   UNL     1      41.717 -13.244  -2.198  1.00  0.00     0.051 A 
HETATM   21  C   UNL     1      41.497 -14.098  -3.259  1.00  0.00     0.083 A 
HETATM   22  S   UNL     1      40.933 -15.639  -2.734  1.00  0.00    -0.063 SA
BRANCH  20  23
HETATM   23  C   UNL     1      42.224 -11.879  -2.312  1.00  0.00    -0.006 A 
HETATM   24  C   UNL     1      41.929 -11.080  -3.424  1.00  0.00     0.033 A 
HETATM   25  C   UNL     1      42.450  -9.796  -3.481  1.00  0.00     0.117 A 
HETATM   26  N   UNL     1      43.235  -9.271  -2.522  1.00  0.00    -0.273 NA
HETATM   27  C   UNL     1      43.513 -10.046  -1.459  1.00  0.00     0.117 A 
HETATM   28  C   UNL     1      43.036 -11.340  -1.308  1.00  0.00     0.033 A 
ENDBRANCH  20  23
ENDBRANCH   4  17
TORSDOF 5
ENDMDL
MODEL 9
REMARK VINA RESULT:      -7.3      3.428      9.470
REMARK  5 active torsions:
REMARK  status: ('A' for Active; 'I' for Inactive)
REMARK    1  A    between atoms: O_2  and  C_3 
REMARK    2  A    between atoms: C_7  and  C_9 
REMARK    3  A    between atoms: C_9  and  N_11 
REMARK       I    between atoms: N_11  and  C_12 
REMARK       I    between atoms: C_12  and  N_14 
REMARK    4  A    between atoms: N_14  and  C_15 
REMARK    5  A    between atoms: C_18  and  C_21 
ROOT
HETATM    1  N   UNL     1      42.484 -16.677   3.069  1.00  0.00    -0.335 N 
HETATM    2  C   UNL     1      42.319 -15.407   3.495  1.00  0.00     0.322 C 
HETATM    3  O   UNL     1      43.118 -14.490   3.519  1.00  0.00    -0.247 OA
HETATM    4  N   UNL     1      41.018 -15.215   3.966  1.00  0.00    -0.289 N 
HETATM    5  H   UNL     1      41.733 -17.351   3.119  1.00  0.00     0.165 HD
HETATM    6  H   UNL     1      40.321 -15.937   4.017  1.00  0.00     0.172 HD
ENDROOT
BRANCH   1   7
HETATM    7  C   UNL     1      43.772 -17.195   2.619  1.00  0.00     0.115 C 
HETATM    8  C   UNL     1      43.779 -17.521   1.123  1.00  0.00     0.037 C 
BRANCH   7   9
HETATM    9  C   UNL     1      44.120 -18.401   3.472  1.00  0.00    -0.033 A 
HETATM   10  C   UNL     1      44.255 -18.271   4.860  1.00  0.00     0.009 A 
HETATM   11  C   UNL     1      44.515 -19.391   5.651  1.00  0.00     0.003 A 
HETATM   12  C   UNL     1      44.635 -20.657   5.071  1.00  0.00     0.037 A 
HETATM   13  C   UNL     1      44.498 -20.808   3.694  1.00  0.00     0.068 A 
HETATM   14  C   UNL     1      44.245 -19.681   2.905  1.00  0.00     0.046 A 
BRANCH  13  15
HETATM   15  O   UNL     1      44.573 -21.981   2.996  1.00  0.00    -0.356 OA
HETATM   16  C   UNL     1      44.186 -21.941   1.627  1.00  0.00     0.210 C 
ENDBRANCH  13  15
ENDBRANCH   7   9
ENDBRANCH   1   7
BRANCH   4  17
HETATM   17  C   UNL     1      40.612 -14.042   4.420  1.00  0.00     0.153 A 
HETATM   18  N   UNL     1      40.849 -13.532   5.632  1.00  0.00    -0.335 N 
HETATM   19  H   UNL     1      41.397 -14.084   6.296  1.00  0.00     0.168 HD
HETATM   20  C   UNL     1      40.315 -12.272   5.836  1.00  0.00     0.051 A 
HETATM   21  C   UNL     1      39.625 -11.828   4.727  1.00  0.00     0.083 A 
HETATM   22  S   UNL     1      39.686 -12.967   3.437  1.00  0.00    -0.063 SA
BRANCH  20  23
HETATM   23  C   UNL     1      40.474 -11.523   7.080  1.00  0.00    -0.006 A 
HETATM   24  C   UNL     1      41.652 -10.820   7.365  1.00  0.00     0.033 A 
HETATM   25  C   UNL     1      41.748 -10.138   8.568  1.00  0.00     0.117 A 
HETATM   26  N   UNL     1      40.768 -10.117   9.490  1.00  0.00    -0.273 NA
HETATM   27  C   UNL     1      39.642 -10.797   9.208  1.00  0.00     0.117 A 
HETATM   28  C   UNL     1      39.448 -11.505   8.031  1.00  0.00     0.033 A 
ENDBRANCH  20  23
ENDBRANCH   4  17
TORSDOF 5
ENDMDL
MODEL 10
REMARK VINA RESULT:      -7.3      4.265      9.109
REMARK  5 active torsions:
REMARK  status: ('A' for Active; 'I' for Inactive)
REMARK    1  A    between atoms: O_2  and  C_3 
REMARK    2  A    between atoms: C_7  and  C_9 
REMARK    3  A    between atoms: C_9  and  N_11 
REMARK       I    between atoms: N_11  and  C_12 
REMARK       I    between atoms: C_12  and  N_14 
REMARK    4  A    between atoms: N_14  and  C_15 
REMARK    5  A    between atoms: C_18  and  C_21 
ROOT
HETATM    1  N   UNL     1      42.323 -17.220   3.110  1.00  0.00    -0.335 N 
HETATM    2  C   UNL     1      42.040 -15.907   3.249  1.00  0.00     0.322 C 
HETATM    3  O   UNL     1      42.766 -14.941   3.111  1.00  0.00    -0.247 OA
HETATM    4  N   UNL     1      40.703 -15.731   3.611  1.00  0.00    -0.289 N 
HETATM    5  H   UNL     1      41.622 -17.930   3.270  1.00  0.00     0.165 HD
HETATM    6  H   UNL     1      40.058 -16.484   3.784  1.00  0.00     0.172 HD
ENDROOT
BRANCH   1   7
HETATM    7  C   UNL     1      43.670 -17.709   2.837  1.00  0.00     0.115 C 
HETATM    8  C   UNL     1      43.877 -18.054   1.360  1.00  0.00     0.037 C 
BRANCH   7   9
HETATM    9  C   UNL     1      43.935 -18.894   3.746  1.00  0.00    -0.033 A 
HETATM   10  C   UNL     1      44.489 -20.073   3.230  1.00  0.00     0.009 A 
HETATM   11  C   UNL     1      44.790 -21.141   4.077  1.00  0.00     0.003 A 
HETATM   12  C   UNL     1      44.552 -21.046   5.451  1.00  0.00     0.037 A 
HETATM   13  C   UNL     1      44.006 -19.881   5.984  1.00  0.00     0.068 A 
HETATM   14  C   UNL     1      43.700 -18.817   5.130  1.00  0.00     0.046 A 
BRANCH  13  15
HETATM   15  O   UNL     1      43.737 -19.643   7.303  1.00  0.00    -0.356 OA
HETATM   16  C   UNL     1      43.659 -18.281   7.708  1.00  0.00     0.210 C 
ENDBRANCH  13  15
ENDBRANCH   7   9
ENDBRANCH   1   7
BRANCH   4  17
HETATM   17  C   UNL     1      40.185 -14.528   3.787  1.00  0.00     0.153 A 
HETATM   18  N   UNL     1      40.161 -13.831   4.926  1.00  0.00    -0.335 N 
HETATM   19  H   UNL     1      40.578 -14.246   5.762  1.00  0.00     0.168 HD
HETATM   20  C   UNL     1      39.566 -12.586   4.821  1.00  0.00     0.051 A 
HETATM   21  C   UNL     1      39.101 -12.351   3.543  1.00  0.00     0.083 A 
HETATM   22  S   UNL     1      39.448 -13.666   2.485  1.00  0.00    -0.063 SA
BRANCH  20  23
HETATM   23  C   UNL     1      39.454 -11.651   5.938  1.00  0.00    -0.006 A 
HETATM   24  C   UNL     1      39.415 -12.099   7.265  1.00  0.00     0.033 A 
HETATM   25  C   UNL     1      39.295 -11.165   8.282  1.00  0.00     0.117 A 
HETATM   26  N   UNL     1      39.207  -9.839   8.066  1.00  0.00    -0.273 NA
HETATM   27  C   UNL     1      39.244  -9.420   6.788  1.00  0.00     0.117 A 
HETATM   28  C   UNL     1      39.366 -10.275   5.704  1.00  0.00     0.033 A 
ENDBRANCH  20  23
ENDBRANCH   4  17
TORSDOF 5
ENDMDL
