MODEL 1
REMARK VINA RESULT:      -9.4      0.000      0.000
REMARK  8 active torsions:
REMARK  status: ('A' for Active; 'I' for Inactive)
REMARK    1  A    between atoms: C_4  and  C_5 
REMARK    2  A    between atoms: C_5  and  N_6 
REMARK    3  A    between atoms: C_5  and  C_32 
REMARK       I    between atoms: N_10  and  C_11 
REMARK    4  A    between atoms: C_11  and  C_12 
REMARK    5  A    between atoms: C_13  and  N_14 
REMARK    6  A    between atoms: N_14  and  C_15 
REMARK    7  A    between atoms: C_15  and  N_16 
REMARK       I    between atoms: N_16  and  C_17 
REMARK    8  A    between atoms: C_17  and  C_18 
ROOT
HETATM    1  N   UNL     1      40.918 -13.228  -0.576  1.00  0.00    -0.056 N 
HETATM    2  H   UNL     1      40.020 -12.756  -0.435  1.00  0.00     0.281 HD
HETATM    3  C   UNL     1      40.761 -14.642  -0.012  1.00  0.00     0.256 C 
HETATM    4  C   UNL     1      40.410 -14.573   1.482  1.00  0.00     0.154 C 
HETATM    5  N   UNL     1      41.425 -13.796   2.197  1.00  0.00    -0.345 N 
HETATM    6  C   UNL     1      42.603 -14.362   2.722  1.00  0.00     0.256 C 
HETATM    7  O   UNL     1      43.606 -13.678   2.912  1.00  0.00    -0.267 OA
HETATM    8  C   UNL     1      41.526 -12.410   1.725  1.00  0.00     0.154 C 
HETATM    9  C   UNL     1      41.926 -12.400   0.231  1.00  0.00     0.256 C 
ENDROOT
BRANCH   6  10
HETATM   10  C   UNL     1      42.703 -15.836   2.874  1.00  0.00     0.058 A 
HETATM   11  C   UNL     1      41.816 -16.632   3.621  1.00  0.00     0.049 A 
HETATM   12  C   UNL     1      41.851 -18.023   3.448  1.00  0.00     0.030 A 
HETATM   13  C   UNL     1      42.811 -18.617   2.626  1.00  0.00     0.002 A 
HETATM   14  C   UNL     1      43.738 -17.829   1.951  1.00  0.00     0.001 A 
HETATM   15  C   UNL     1      43.681 -16.442   2.066  1.00  0.00     0.019 A 
BRANCH  11  16
HETATM   16  N   UNL     1      40.830 -16.142   4.505  1.00  0.00    -0.337 N 
HETATM   17  H   UNL     1      39.882 -16.473   4.360  1.00  0.00     0.168 HD
BRANCH  16  18
HETATM   18  C   UNL     1      40.966 -15.287   5.548  1.00  0.00     0.157 C 
HETATM   19  S   UNL     1      40.034 -13.898   5.575  1.00  0.00    -0.047 SA
BRANCH  18  20
HETATM   20  N   UNL     1      41.743 -15.585   6.626  1.00  0.00    -0.199 NA
HETATM   21  C   UNL     1      43.132 -15.634   6.546  1.00  0.00     0.261 C 
HETATM   22  O   UNL     1      43.847 -14.653   6.378  1.00  0.00    -0.271 OA
HETATM   23  H   UNL     1      41.378 -16.427   7.062  1.00  0.00     0.139 HD
BRANCH  21  24
HETATM   24  C   UNL     1      43.676 -16.966   6.730  1.00  0.00     0.137 A 
HETATM   25  O   UNL     1      43.304 -17.698   7.828  1.00  0.00    -0.318 OA
HETATM   26  C   UNL     1      43.907 -18.911   7.720  1.00  0.00     0.143 A 
HETATM   27  C   UNL     1      44.665 -18.974   6.575  1.00  0.00     0.027 A 
HETATM   28  C   UNL     1      44.523 -17.718   5.939  1.00  0.00     0.044 A 
ENDBRANCH  21  24
ENDBRANCH  18  20
ENDBRANCH  16  18
ENDBRANCH  11  16
ENDBRANCH   6  10
BRANCH   1  29
HETATM   29  C   UNL     1      41.108 -13.246  -2.096  1.00  0.00     0.254 C 
BRANCH  29  30
HETATM   30  C   UNL     1      41.452 -11.896  -2.722  1.00  0.00    -0.023 A 
HETATM   31  C   UNL     1      42.253 -11.865  -3.882  1.00  0.00     0.009 A 
HETATM   32  C   UNL     1      42.641 -10.657  -4.465  1.00  0.00     0.001 A 
HETATM   33  C   UNL     1      42.233  -9.452  -3.905  1.00  0.00     0.000 A 
HETATM   34  C   UNL     1      41.433  -9.455  -2.766  1.00  0.00     0.001 A 
HETATM   35  C   UNL     1      41.049 -10.663  -2.179  1.00  0.00     0.009 A 
ENDBRANCH  29  30
BRANCH  29  36
HETATM   36  C   UNL     1      40.094 -14.146  -2.800  1.00  0.00    -0.023 A 
HETATM   37  C   UNL     1      38.770 -13.672  -2.944  1.00  0.00     0.009 A 
HETATM   38  C   UNL     1      37.787 -14.442  -3.568  1.00  0.00     0.001 A 
HETATM   39  C   UNL     1      38.104 -15.700  -4.063  1.00  0.00     0.000 A 
HETATM   40  C   UNL     1      39.401 -16.187  -3.934  1.00  0.00     0.001 A 
HETATM   41  C   UNL     1      40.388 -15.418  -3.310  1.00  0.00     0.009 A 
ENDBRANCH  29  36
ENDBRANCH   1  29
TORSDOF 8
ENDMDL
MODEL 2
REMARK VINA RESULT:      -9.4      2.732      8.756
REMARK  8 active torsions:
REMARK  status: ('A' for Active; 'I' for Inactive)
REMARK    1  A    between atoms: C_4  and  C_5 
REMARK    2  A    between atoms: C_5  and  N_6 
REMARK    3  A    between atoms: C_5  and  C_32 
REMARK       I    between atoms: N_10  and  C_11 
REMARK    4  A    between atoms: C_11  and  C_12 
REMARK    5  A    between atoms: C_13  and  N_14 
REMARK    6  A    between atoms: N_14  and  C_15 
REMARK    7  A    between atoms: C_15  and  N_16 
REMARK       I    between atoms: N_16  and  C_17 
REMARK    8  A    between atoms: C_17  and  C_18 
ROOT
HETATM    1  N   UNL     1      42.752 -17.224   2.923  1.00  0.00    -0.056 N 
HETATM    2  H   UNL     1      42.229 -17.919   2.379  1.00  0.00     0.281 HD
HETATM    3  C   UNL     1      41.735 -16.515   3.819  1.00  0.00     0.256 C 
HETATM    4  C   UNL     1      40.660 -15.836   2.954  1.00  0.00     0.154 C 
HETATM    5  N   UNL     1      41.292 -14.925   1.999  1.00  0.00    -0.345 N 
HETATM    6  C   UNL     1      41.594 -13.581   2.295  1.00  0.00     0.256 C 
HETATM    7  O   UNL     1      42.479 -12.981   1.690  1.00  0.00    -0.267 OA
HETATM    8  C   UNL     1      42.206 -15.606   1.073  1.00  0.00     0.154 C 
HETATM    9  C   UNL     1      43.348 -16.275   1.873  1.00  0.00     0.256 C 
ENDROOT
BRANCH   6  10
HETATM   10  C   UNL     1      40.969 -12.934   3.476  1.00  0.00     0.058 A 
HETATM   11  C   UNL     1      39.641 -12.474   3.536  1.00  0.00     0.049 A 
HETATM   12  C   UNL     1      39.096 -12.151   4.787  1.00  0.00     0.030 A 
HETATM   13  C   UNL     1      39.883 -12.190   5.941  1.00  0.00     0.002 A 
HETATM   14  C   UNL     1      41.219 -12.569   5.864  1.00  0.00     0.001 A 
HETATM   15  C   UNL     1      41.761 -12.950   4.638  1.00  0.00     0.019 A 
BRANCH  11  16
HETATM   16  N   UNL     1      38.768 -12.362   2.432  1.00  0.00    -0.337 N 
HETATM   17  H   UNL     1      37.904 -12.893   2.479  1.00  0.00     0.168 HD
BRANCH  16  18
HETATM   18  C   UNL     1      38.908 -11.628   1.303  1.00  0.00     0.157 C 
HETATM   19  S   UNL     1      39.570 -10.095   1.418  1.00  0.00    -0.047 SA
BRANCH  18  20
HETATM   20  N   UNL     1      38.643 -12.143   0.070  1.00  0.00    -0.199 NA
HETATM   21  C   UNL     1      38.838 -13.490  -0.225  1.00  0.00     0.261 C 
HETATM   22  O   UNL     1      38.158 -14.401   0.235  1.00  0.00    -0.271 OA
HETATM   23  H   UNL     1      39.090 -11.555  -0.628  1.00  0.00     0.139 HD
BRANCH  21  24
HETATM   24  C   UNL     1      39.903 -13.725  -1.181  1.00  0.00     0.137 A 
HETATM   25  O   UNL     1      40.958 -12.852  -1.240  1.00  0.00    -0.318 OA
HETATM   26  C   UNL     1      41.824 -13.338  -2.167  1.00  0.00     0.143 A 
HETATM   27  C   UNL     1      41.345 -14.505  -2.712  1.00  0.00     0.027 A 
HETATM   28  C   UNL     1      40.103 -14.753  -2.083  1.00  0.00     0.044 A 
ENDBRANCH  21  24
ENDBRANCH  18  20
ENDBRANCH  16  18
ENDBRANCH  11  16
ENDBRANCH   6  10
BRANCH   1  29
HETATM   29  C   UNL     1      43.748 -18.049   3.743  1.00  0.00     0.254 C 
BRANCH  29  30
HETATM   30  C   UNL     1      43.905 -19.502   3.301  1.00  0.00    -0.023 A 
HETATM   31  C   UNL     1      44.686 -20.374   4.088  1.00  0.00     0.009 A 
HETATM   32  C   UNL     1      44.907 -21.698   3.703  1.00  0.00     0.001 A 
HETATM   33  C   UNL     1      44.346 -22.182   2.527  1.00  0.00     0.000 A 
HETATM   34  C   UNL     1      43.562 -21.346   1.739  1.00  0.00     0.001 A 
HETATM   35  C   UNL     1      43.345 -20.019   2.120  1.00  0.00     0.009 A 
ENDBRANCH  29  30
BRANCH  29  36
HETATM   36  C   UNL     1      43.670 -17.738   5.237  1.00  0.00    -0.023 A 
HETATM   37  C   UNL     1      44.044 -16.445   5.669  1.00  0.00     0.009 A 
HETATM   38  C   UNL     1      44.007 -16.090   7.018  1.00  0.00     0.001 A 
HETATM   39  C   UNL     1      43.595 -17.017   7.966  1.00  0.00     0.000 A 
HETATM   40  C   UNL     1      43.221 -18.296   7.565  1.00  0.00     0.001 A 
HETATM   41  C   UNL     1      43.256 -18.655   6.214  1.00  0.00     0.009 A 
ENDBRANCH  29  36
ENDBRANCH   1  29
TORSDOF 8
ENDMDL
MODEL 3
REMARK VINA RESULT:      -9.3      3.382      9.140
REMARK  8 active torsions:
REMARK  status: ('A' for Active; 'I' for Inactive)
REMARK    1  A    between atoms: C_4  and  C_5 
REMARK    2  A    between atoms: C_5  and  N_6 
REMARK    3  A    between atoms: C_5  and  C_32 
REMARK       I    between atoms: N_10  and  C_11 
REMARK    4  A    between atoms: C_11  and  C_12 
REMARK    5  A    between atoms: C_13  and  N_14 
REMARK    6  A    between atoms: N_14  and  C_15 
REMARK    7  A    between atoms: C_15  and  N_16 
REMARK       I    between atoms: N_16  and  C_17 
REMARK    8  A    between atoms: C_17  and  C_18 
ROOT
HETATM    1  N   UNL     1      42.407 -17.521   2.360  1.00  0.00    -0.056 N 
HETATM    2  H   UNL     1      41.867 -18.361   2.128  1.00  0.00     0.281 HD
HETATM    3  C   UNL     1      41.446 -16.565   3.069  1.00  0.00     0.256 C 
HETATM    4  C   UNL     1      40.272 -16.219   2.139  1.00  0.00     0.154 C 
HETATM    5  N   UNL     1      40.779 -15.669   0.881  1.00  0.00    -0.345 N 
HETATM    6  C   UNL     1      41.051 -14.300   0.689  1.00  0.00     0.256 C 
HETATM    7  O   UNL     1      41.853 -13.925  -0.162  1.00  0.00    -0.267 OA
HETATM    8  C   UNL     1      41.634 -16.609   0.145  1.00  0.00     0.154 C 
HETATM    9  C   UNL     1      42.868 -16.966   1.005  1.00  0.00     0.256 C 
ENDROOT
BRANCH   6  10
HETATM   10  C   UNL     1      40.508 -13.305   1.649  1.00  0.00     0.058 A 
HETATM   11  C   UNL     1      39.157 -12.922   1.737  1.00  0.00     0.049 A 
HETATM   12  C   UNL     1      38.733 -12.200   2.862  1.00  0.00     0.030 A 
HETATM   13  C   UNL     1      39.650 -11.783   3.830  1.00  0.00     0.002 A 
HETATM   14  C   UNL     1      40.999 -12.097   3.697  1.00  0.00     0.001 A 
HETATM   15  C   UNL     1      41.428 -12.863   2.616  1.00  0.00     0.019 A 
BRANCH  11  16
HETATM   16  N   UNL     1      38.154 -13.257   0.802  1.00  0.00    -0.337 N 
HETATM   17  H   UNL     1      37.693 -14.152   0.929  1.00  0.00     0.168 HD
BRANCH  16  18
HETATM   18  C   UNL     1      37.697 -12.543  -0.255  1.00  0.00     0.157 C 
HETATM   19  S   UNL     1      36.386 -11.527  -0.031  1.00  0.00    -0.047 SA
BRANCH  18  20
HETATM   20  N   UNL     1      38.344 -12.534  -1.453  1.00  0.00    -0.199 NA
HETATM   21  C   UNL     1      37.781 -13.083  -2.602  1.00  0.00     0.261 C 
HETATM   22  O   UNL     1      36.815 -12.609  -3.190  1.00  0.00    -0.271 OA
HETATM   23  H   UNL     1      39.287 -12.886  -1.312  1.00  0.00     0.139 HD
BRANCH  21  24
HETATM   24  C   UNL     1      38.478 -14.261  -3.083  1.00  0.00     0.137 A 
HETATM   25  O   UNL     1      39.755 -14.509  -2.650  1.00  0.00    -0.318 OA
HETATM   26  C   UNL     1      40.140 -15.689  -3.203  1.00  0.00     0.143 A 
HETATM   27  C   UNL     1      39.137 -16.204  -3.989  1.00  0.00     0.027 A 
HETATM   28  C   UNL     1      38.068 -15.281  -3.919  1.00  0.00     0.044 A 
ENDBRANCH  21  24
ENDBRANCH  18  20
ENDBRANCH  16  18
ENDBRANCH  11  16
ENDBRANCH   6  10
BRANCH   1  29
HETATM   29  C   UNL     1      43.505 -18.020   3.304  1.00  0.00     0.254 C 
BRANCH  29  30
HETATM   30  C   UNL     1      43.882 -19.490   3.140  1.00  0.00    -0.023 A 
HETATM   31  C   UNL     1      43.449 -20.181   1.988  1.00  0.00     0.009 A 
HETATM   32  C   UNL     1      43.720 -21.540   1.812  1.00  0.00     0.001 A 
HETATM   33  C   UNL     1      44.434 -22.237   2.779  1.00  0.00     0.000 A 
HETATM   34  C   UNL     1      44.882 -21.577   3.919  1.00  0.00     0.001 A 
HETATM   35  C   UNL     1      44.607 -20.218   4.099  1.00  0.00     0.009 A 
ENDBRANCH  29  30
BRANCH  29  36
HETATM   36  C   UNL     1      43.365 -17.449   4.714  1.00  0.00    -0.023 A 
HETATM   37  C   UNL     1      42.681 -18.221   5.680  1.00  0.00     0.009 A 
HETATM   38  C   UNL     1      42.506 -17.761   6.987  1.00  0.00     0.001 A 
HETATM   39  C   UNL     1      43.011 -16.522   7.358  1.00  0.00     0.000 A 
HETATM   40  C   UNL     1      43.688 -15.745   6.424  1.00  0.00     0.001 A 
HETATM   41  C   UNL     1      43.866 -16.202   5.114  1.00  0.00     0.009 A 
ENDBRANCH  29  36
ENDBRANCH   1  29
TORSDOF 8
ENDMDL
MODEL 4
REMARK VINA RESULT:      -9.2      1.892      2.964
REMARK  8 active torsions:
REMARK  status: ('A' for Active; 'I' for Inactive)
REMARK    1  A    between atoms: C_4  and  C_5 
REMARK    2  A    between atoms: C_5  and  N_6 
REMARK    3  A    between atoms: C_5  and  C_32 
REMARK       I    between atoms: N_10  and  C_11 
REMARK    4  A    between atoms: C_11  and  C_12 
REMARK    5  A    between atoms: C_13  and  N_14 
REMARK    6  A    between atoms: N_14  and  C_15 
REMARK    7  A    between atoms: C_15  and  N_16 
REMARK       I    between atoms: N_16  and  C_17 
REMARK    8  A    between atoms: C_17  and  C_18 
ROOT
HETATM    1  N   UNL     1      40.995 -13.599  -0.346  1.00  0.00    -0.056 N 
HETATM    2  H   UNL     1      40.051 -13.249  -0.155  1.00  0.00     0.281 HD
HETATM    3  C   UNL     1      41.028 -15.053   0.131  1.00  0.00     0.256 C 
HETATM    4  C   UNL     1      40.716 -15.117   1.635  1.00  0.00     0.154 C 
HETATM    5  N   UNL     1      41.651 -14.266   2.374  1.00  0.00    -0.345 N 
HETATM    6  C   UNL     1      42.905 -14.713   2.835  1.00  0.00     0.256 C 
HETATM    7  O   UNL     1      43.823 -13.924   3.045  1.00  0.00    -0.267 OA
HETATM    8  C   UNL     1      41.569 -12.851   1.988  1.00  0.00     0.154 C 
HETATM    9  C   UNL     1      41.920 -12.703   0.489  1.00  0.00     0.256 C 
ENDROOT
BRANCH   6  10
HETATM   10  C   UNL     1      43.186 -16.170   2.891  1.00  0.00     0.058 A 
HETATM   11  C   UNL     1      42.605 -17.070   3.802  1.00  0.00     0.049 A 
HETATM   12  C   UNL     1      42.733 -18.446   3.564  1.00  0.00     0.030 A 
HETATM   13  C   UNL     1      43.504 -18.919   2.500  1.00  0.00     0.002 A 
HETATM   14  C   UNL     1      44.144 -18.024   1.648  1.00  0.00     0.001 A 
HETATM   15  C   UNL     1      43.980 -16.653   1.835  1.00  0.00     0.019 A 
BRANCH  11  16
HETATM   16  N   UNL     1      41.835 -16.705   4.928  1.00  0.00    -0.337 N 
HETATM   17  H   UNL     1      40.920 -17.136   5.014  1.00  0.00     0.168 HD
BRANCH  16  18
HETATM   18  C   UNL     1      42.147 -15.857   5.938  1.00  0.00     0.157 C 
HETATM   19  S   UNL     1      43.749 -15.711   6.398  1.00  0.00    -0.047 SA
BRANCH  18  20
HETATM   20  N   UNL     1      41.218 -15.036   6.502  1.00  0.00    -0.199 NA
HETATM   21  C   UNL     1      40.388 -14.223   5.736  1.00  0.00     0.261 C 
HETATM   22  O   UNL     1      39.489 -14.641   5.014  1.00  0.00    -0.271 OA
HETATM   23  H   UNL     1      41.669 -14.498   7.237  1.00  0.00     0.139 HD
BRANCH  21  24
HETATM   24  C   UNL     1      40.648 -12.806   5.905  1.00  0.00     0.137 A 
HETATM   25  O   UNL     1      39.691 -12.011   6.481  1.00  0.00    -0.318 OA
HETATM   26  C   UNL     1      40.214 -10.760   6.569  1.00  0.00     0.143 A 
HETATM   27  C   UNL     1      41.488 -10.731   6.056  1.00  0.00     0.027 A 
HETATM   28  C   UNL     1      41.767 -12.048   5.621  1.00  0.00     0.044 A 
ENDBRANCH  21  24
ENDBRANCH  18  20
ENDBRANCH  16  18
ENDBRANCH  11  16
ENDBRANCH   6  10
BRANCH   1  29
HETATM   29  C   UNL     1      41.140 -13.502  -1.868  1.00  0.00     0.254 C 
BRANCH  29  30
HETATM   30  C   UNL     1      41.530 -12.123  -2.394  1.00  0.00    -0.023 A 
HETATM   31  C   UNL     1      42.252 -12.033  -3.603  1.00  0.00     0.009 A 
HETATM   32  C   UNL     1      42.681 -10.802  -4.103  1.00  0.00     0.001 A 
HETATM   33  C   UNL     1      42.392  -9.632  -3.410  1.00  0.00     0.000 A 
HETATM   34  C   UNL     1      41.672  -9.692  -2.221  1.00  0.00     0.001 A 
HETATM   35  C   UNL     1      41.247 -10.924  -1.717  1.00  0.00     0.009 A 
ENDBRANCH  29  30
BRANCH  29  36
HETATM   36  C   UNL     1      40.063 -14.294  -2.607  1.00  0.00    -0.023 A 
HETATM   37  C   UNL     1      38.730 -13.827  -2.543  1.00  0.00     0.009 A 
HETATM   38  C   UNL     1      37.692 -14.503  -3.186  1.00  0.00     0.001 A 
HETATM   39  C   UNL     1      37.961 -15.658  -3.908  1.00  0.00     0.000 A 
HETATM   40  C   UNL     1      39.265 -16.137  -3.985  1.00  0.00     0.001 A 
HETATM   41  C   UNL     1      40.308 -15.462  -3.343  1.00  0.00     0.009 A 
ENDBRANCH  29  36
ENDBRANCH   1  29
TORSDOF 8
ENDMDL
MODEL 5
REMARK VINA RESULT:      -9.1      2.810      8.443
REMARK  8 active torsions:
REMARK  status: ('A' for Active; 'I' for Inactive)
REMARK    1  A    between atoms: C_4  and  C_5 
REMARK    2  A    between atoms: C_5  and  N_6 
REMARK    3  A    between atoms: C_5  and  C_32 
REMARK       I    between atoms: N_10  and  C_11 
REMARK    4  A    between atoms: C_11  and  C_12 
REMARK    5  A    between atoms: C_13  and  N_14 
REMARK    6  A    between atoms: N_14  and  C_15 
REMARK    7  A    between atoms: C_15  and  N_16 
REMARK       I    between atoms: N_16  and  C_17 
REMARK    8  A    between atoms: C_17  and  C_18 
ROOT
HETATM    1  N   UNL     1      41.653 -16.866   3.004  1.00  0.00    -0.056 N 
HETATM    2  H   UNL     1      41.141 -17.494   2.375  1.00  0.00     0.281 HD
HETATM    3  C   UNL     1      40.621 -15.907   3.599  1.00  0.00     0.256 C 
HETATM    4  C   UNL     1      39.934 -15.114   2.476  1.00  0.00     0.154 C 
HETATM    5  N   UNL     1      40.940 -14.420   1.670  1.00  0.00    -0.345 N 
HETATM    6  C   UNL     1      41.430 -13.137   1.981  1.00  0.00     0.256 C 
HETATM    7  O   UNL     1      42.533 -12.765   1.589  1.00  0.00    -0.267 OA
HETATM    8  C   UNL     1      41.887 -15.335   1.020  1.00  0.00     0.154 C 
HETATM    9  C   UNL     1      42.654 -16.137   2.097  1.00  0.00     0.256 C 
ENDROOT
BRANCH   6  10
HETATM   10  C   UNL     1      40.693 -12.288   2.951  1.00  0.00     0.058 A 
HETATM   11  C   UNL     1      39.384 -11.806   2.770  1.00  0.00     0.049 A 
HETATM   12  C   UNL     1      38.706 -11.266   3.872  1.00  0.00     0.030 A 
HETATM   13  C   UNL     1      39.348 -11.117   5.104  1.00  0.00     0.002 A 
HETATM   14  C   UNL     1      40.671 -11.523   5.256  1.00  0.00     0.001 A 
HETATM   15  C   UNL     1      41.340 -12.115   4.187  1.00  0.00     0.019 A 
BRANCH  11  16
HETATM   16  N   UNL     1      38.652 -11.873   1.564  1.00  0.00    -0.337 N 
HETATM   17  H   UNL     1      37.825 -12.461   1.565  1.00  0.00     0.168 HD
BRANCH  16  18
HETATM   18  C   UNL     1      38.886 -11.246   0.386  1.00  0.00     0.157 C 
HETATM   19  S   UNL     1      39.591  -9.729   0.410  1.00  0.00    -0.047 SA
BRANCH  18  20
HETATM   20  N   UNL     1      38.680 -11.862  -0.811  1.00  0.00    -0.199 NA
HETATM   21  C   UNL     1      38.736 -13.246  -0.950  1.00  0.00     0.261 C 
HETATM   22  O   UNL     1      37.909 -14.019  -0.480  1.00  0.00    -0.271 OA
HETATM   23  H   UNL     1      39.261 -11.407  -1.511  1.00  0.00     0.139 HD
BRANCH  21  24
HETATM   24  C   UNL     1      39.851 -13.702  -1.757  1.00  0.00     0.137 A 
HETATM   25  O   UNL     1      41.040 -13.021  -1.708  1.00  0.00    -0.318 OA
HETATM   26  C   UNL     1      41.915 -13.690  -2.504  1.00  0.00     0.143 A 
HETATM   27  C   UNL     1      41.311 -14.787  -3.071  1.00  0.00     0.027 A 
HETATM   28  C   UNL     1      39.978 -14.792  -2.596  1.00  0.00     0.044 A 
ENDBRANCH  21  24
ENDBRANCH  18  20
ENDBRANCH  16  18
ENDBRANCH  11  16
ENDBRANCH   6  10
BRANCH   1  29
HETATM   29  C   UNL     1      42.245 -17.791   4.071  1.00  0.00     0.254 C 
BRANCH  29  30
HETATM   30  C   UNL     1      42.759 -17.088   5.325  1.00  0.00    -0.023 A 
HETATM   31  C   UNL     1      43.533 -15.917   5.182  1.00  0.00     0.009 A 
HETATM   32  C   UNL     1      44.073 -15.264   6.292  1.00  0.00     0.001 A 
HETATM   33  C   UNL     1      43.846 -15.761   7.570  1.00  0.00     0.000 A 
HETATM   34  C   UNL     1      43.077 -16.908   7.739  1.00  0.00     0.001 A 
HETATM   35  C   UNL     1      42.541 -17.566   6.629  1.00  0.00     0.009 A 
ENDBRANCH  29  30
BRANCH  29  36
HETATM   36  C   UNL     1      43.078 -18.920   3.467  1.00  0.00    -0.023 A 
HETATM   37  C   UNL     1      44.159 -19.429   4.222  1.00  0.00     0.009 A 
HETATM   38  C   UNL     1      44.969 -20.455   3.732  1.00  0.00     0.001 A 
HETATM   39  C   UNL     1      44.718 -20.996   2.478  1.00  0.00     0.000 A 
HETATM   40  C   UNL     1      43.659 -20.512   1.717  1.00  0.00     0.001 A 
HETATM   41  C   UNL     1      42.844 -19.485   2.205  1.00  0.00     0.009 A 
ENDBRANCH  29  36
ENDBRANCH   1  29
TORSDOF 8
ENDMDL
MODEL 6
REMARK VINA RESULT:      -9.0      3.389      8.566
REMARK  8 active torsions:
REMARK  status: ('A' for Active; 'I' for Inactive)
REMARK    1  A    between atoms: C_4  and  C_5 
REMARK    2  A    between atoms: C_5  and  N_6 
REMARK    3  A    between atoms: C_5  and  C_32 
REMARK       I    between atoms: N_10  and  C_11 
REMARK    4  A    between atoms: C_11  and  C_12 
REMARK    5  A    between atoms: C_13  and  N_14 
REMARK    6  A    between atoms: N_14  and  C_15 
REMARK    7  A    between atoms: C_15  and  N_16 
REMARK       I    between atoms: N_16  and  C_17 
REMARK    8  A    between atoms: C_17  and  C_18 
ROOT
HETATM    1  N   UNL     1      43.371 -13.643   5.724  1.00  0.00    -0.056 N 
HETATM    2  H   UNL     1      43.370 -12.648   5.968  1.00  0.00     0.281 HD
HETATM    3  C   UNL     1      43.620 -13.724   4.217  1.00  0.00     0.256 C 
HETATM    4  C   UNL     1      42.508 -12.979   3.462  1.00  0.00     0.154 C 
HETATM    5  N   UNL     1      41.201 -13.520   3.841  1.00  0.00    -0.345 N 
HETATM    6  C   UNL     1      40.603 -14.621   3.197  1.00  0.00     0.256 C 
HETATM    7  O   UNL     1      39.768 -15.316   3.771  1.00  0.00    -0.267 OA
HETATM    8  C   UNL     1      40.910 -13.370   5.273  1.00  0.00     0.154 C 
HETATM    9  C   UNL     1      41.967 -14.139   6.099  1.00  0.00     0.256 C 
ENDROOT
BRANCH   6  10
HETATM   10  C   UNL     1      41.120 -15.066   1.878  1.00  0.00     0.058 A 
HETATM   11  C   UNL     1      42.195 -15.953   1.691  1.00  0.00     0.049 A 
HETATM   12  C   UNL     1      42.394 -16.512   0.420  1.00  0.00     0.030 A 
HETATM   13  C   UNL     1      41.603 -16.122  -0.664  1.00  0.00     0.002 A 
HETATM   14  C   UNL     1      40.591 -15.182  -0.489  1.00  0.00     0.001 A 
HETATM   15  C   UNL     1      40.342 -14.661   0.779  1.00  0.00     0.019 A 
BRANCH  11  16
HETATM   16  N   UNL     1      43.077 -16.389   2.704  1.00  0.00    -0.337 N 
HETATM   17  H   UNL     1      43.711 -15.695   3.086  1.00  0.00     0.168 HD
BRANCH  16  18
HETATM   18  C   UNL     1      43.196 -17.618   3.263  1.00  0.00     0.157 C 
HETATM   19  S   UNL     1      42.041 -18.114   4.366  1.00  0.00    -0.047 SA
BRANCH  18  20
HETATM   20  N   UNL     1      44.153 -18.501   2.863  1.00  0.00    -0.199 NA
HETATM   21  C   UNL     1      43.836 -19.772   2.394  1.00  0.00     0.261 C 
HETATM   22  O   UNL     1      43.275 -19.992   1.326  1.00  0.00    -0.271 OA
HETATM   23  H   UNL     1      44.865 -18.552   3.587  1.00  0.00     0.139 HD
BRANCH  21  24
HETATM   24  C   UNL     1      44.279 -20.840   3.270  1.00  0.00     0.137 A 
HETATM   25  O   UNL     1      44.669 -20.542   4.550  1.00  0.00    -0.318 OA
HETATM   26  C   UNL     1      44.973 -21.718   5.157  1.00  0.00     0.143 A 
HETATM   27  C   UNL     1      44.792 -22.770   4.292  1.00  0.00     0.027 A 
HETATM   28  C   UNL     1      44.351 -22.205   3.072  1.00  0.00     0.044 A 
ENDBRANCH  21  24
ENDBRANCH  18  20
ENDBRANCH  16  18
ENDBRANCH  11  16
ENDBRANCH   6  10
BRANCH   1  29
HETATM   29  C   UNL     1      44.539 -14.232   6.522  1.00  0.00     0.254 C 
BRANCH  29  30
HETATM   30  C   UNL     1      44.381 -15.698   6.916  1.00  0.00    -0.023 A 
HETATM   31  C   UNL     1      43.518 -16.029   7.981  1.00  0.00     0.009 A 
HETATM   32  C   UNL     1      43.377 -17.349   8.417  1.00  0.00     0.001 A 
HETATM   33  C   UNL     1      44.089 -18.367   7.795  1.00  0.00     0.000 A 
HETATM   34  C   UNL     1      44.939 -18.068   6.735  1.00  0.00     0.001 A 
HETATM   35  C   UNL     1      45.086 -16.748   6.301  1.00  0.00     0.009 A 
ENDBRANCH  29  30
BRANCH  29  36
HETATM   36  C   UNL     1      45.096 -13.249   7.550  1.00  0.00    -0.023 A 
HETATM   37  C   UNL     1      44.266 -12.877   8.633  1.00  0.00     0.009 A 
HETATM   38  C   UNL     1      44.702 -11.977   9.607  1.00  0.00     0.001 A 
HETATM   39  C   UNL     1      45.976 -11.431   9.524  1.00  0.00     0.000 A 
HETATM   40  C   UNL     1      46.811 -11.783   8.468  1.00  0.00     0.001 A 
HETATM   41  C   UNL     1      46.378 -12.684   7.490  1.00  0.00     0.009 A 
ENDBRANCH  29  36
ENDBRANCH   1  29
TORSDOF 8
ENDMDL
MODEL 7
REMARK VINA RESULT:      -9.0      3.050      8.313
REMARK  8 active torsions:
REMARK  status: ('A' for Active; 'I' for Inactive)
REMARK    1  A    between atoms: C_4  and  C_5 
REMARK    2  A    between atoms: C_5  and  N_6 
REMARK    3  A    between atoms: C_5  and  C_32 
REMARK       I    between atoms: N_10  and  C_11 
REMARK    4  A    between atoms: C_11  and  C_12 
REMARK    5  A    between atoms: C_13  and  N_14 
REMARK    6  A    between atoms: N_14  and  C_15 
REMARK    7  A    between atoms: C_15  and  N_16 
REMARK       I    between atoms: N_16  and  C_17 
REMARK    8  A    between atoms: C_17  and  C_18 
ROOT
HETATM    1  N   UNL     1      43.093 -17.786   2.489  1.00  0.00    -0.056 N 
HETATM    2  H   UNL     1      43.776 -18.210   1.854  1.00  0.00     0.281 HD
HETATM    3  C   UNL     1      41.784 -17.667   1.707  1.00  0.00     0.256 C 
HETATM    4  C   UNL     1      41.994 -16.786   0.465  1.00  0.00     0.154 C 
HETATM    5  N   UNL     1      42.526 -15.482   0.865  1.00  0.00    -0.345 N 
HETATM    6  C   UNL     1      41.709 -14.394   1.231  1.00  0.00     0.256 C 
HETATM    7  O   UNL     1      42.134 -13.498   1.957  1.00  0.00    -0.267 OA
HETATM    8  C   UNL     1      43.826 -15.573   1.540  1.00  0.00     0.154 C 
HETATM    9  C   UNL     1      43.680 -16.410   2.832  1.00  0.00     0.256 C 
ENDROOT
BRANCH   6  10
HETATM   10  C   UNL     1      40.263 -14.419   0.896  1.00  0.00     0.058 A 
HETATM   11  C   UNL     1      39.219 -14.522   1.834  1.00  0.00     0.049 A 
HETATM   12  C   UNL     1      37.909 -14.245   1.417  1.00  0.00     0.030 A 
HETATM   13  C   UNL     1      37.630 -13.969   0.076  1.00  0.00     0.002 A 
HETATM   14  C   UNL     1      38.656 -13.947  -0.863  1.00  0.00     0.001 A 
HETATM   15  C   UNL     1      39.971 -14.162  -0.455  1.00  0.00     0.019 A 
BRANCH  11  16
HETATM   16  N   UNL     1      39.383 -14.827   3.203  1.00  0.00    -0.337 N 
HETATM   17  H   UNL     1      39.203 -15.787   3.480  1.00  0.00     0.168 HD
BRANCH  16  18
HETATM   18  C   UNL     1      39.763 -14.017   4.220  1.00  0.00     0.157 C 
HETATM   19  S   UNL     1      40.095 -14.701   5.710  1.00  0.00    -0.047 SA
BRANCH  18  20
HETATM   20  N   UNL     1      40.001 -12.689   4.033  1.00  0.00    -0.199 NA
HETATM   21  C   UNL     1      38.980 -11.744   4.061  1.00  0.00     0.261 C 
HETATM   22  O   UNL     1      38.361 -11.428   5.071  1.00  0.00    -0.271 OA
HETATM   23  H   UNL     1      40.570 -12.579   3.198  1.00  0.00     0.139 HD
BRANCH  21  24
HETATM   24  C   UNL     1      38.738 -11.116   2.776  1.00  0.00     0.137 A 
HETATM   25  O   UNL     1      39.756 -11.042   1.861  1.00  0.00    -0.318 OA
HETATM   26  C   UNL     1      39.244 -10.467   0.742  1.00  0.00     0.143 A 
HETATM   27  C   UNL     1      37.915 -10.163   0.919  1.00  0.00     0.027 A 
HETATM   28  C   UNL     1      37.589 -10.574   2.233  1.00  0.00     0.044 A 
ENDBRANCH  21  24
ENDBRANCH  18  20
ENDBRANCH  16  18
ENDBRANCH  11  16
ENDBRANCH   6  10
BRANCH   1  29
HETATM   29  C   UNL     1      42.972 -18.785   3.644  1.00  0.00     0.254 C 
BRANCH  29  30
HETATM   30  C   UNL     1      43.191 -18.197   5.036  1.00  0.00    -0.023 A 
HETATM   31  C   UNL     1      44.509 -18.071   5.523  1.00  0.00     0.009 A 
HETATM   32  C   UNL     1      44.764 -17.589   6.809  1.00  0.00     0.001 A 
HETATM   33  C   UNL     1      43.709 -17.216   7.633  1.00  0.00     0.000 A 
HETATM   34  C   UNL     1      42.401 -17.320   7.172  1.00  0.00     0.001 A 
HETATM   35  C   UNL     1      42.144 -17.807   5.888  1.00  0.00     0.009 A 
ENDBRANCH  29  30
BRANCH  29  36
HETATM   36  C   UNL     1      43.595 -20.139   3.310  1.00  0.00    -0.023 A 
HETATM   37  C   UNL     1      44.187 -20.877   4.361  1.00  0.00     0.009 A 
HETATM   38  C   UNL     1      44.783 -22.118   4.131  1.00  0.00     0.001 A 
HETATM   39  C   UNL     1      44.801 -22.651   2.849  1.00  0.00     0.000 A 
HETATM   40  C   UNL     1      44.224 -21.943   1.799  1.00  0.00     0.001 A 
HETATM   41  C   UNL     1      43.625 -20.700   2.025  1.00  0.00     0.009 A 
ENDBRANCH  29  36
ENDBRANCH   1  29
TORSDOF 8
ENDMDL
MODEL 8
REMARK VINA RESULT:      -8.8      2.423      3.345
REMARK  8 active torsions:
REMARK  status: ('A' for Active; 'I' for Inactive)
REMARK    1  A    between atoms: C_4  and  C_5 
REMARK    2  A    between atoms: C_5  and  N_6 
REMARK    3  A    between atoms: C_5  and  C_32 
REMARK       I    between atoms: N_10  and  C_11 
REMARK    4  A    between atoms: C_11  and  C_12 
REMARK    5  A    between atoms: C_13  and  N_14 
REMARK    6  A    between atoms: N_14  and  C_15 
REMARK    7  A    between atoms: C_15  and  N_16 
REMARK       I    between atoms: N_16  and  C_17 
REMARK    8  A    between atoms: C_17  and  C_18 
ROOT
HETATM    1  N   UNL     1      39.335 -12.701   0.868  1.00  0.00    -0.056 N 
HETATM    2  H   UNL     1      38.557 -12.426   1.477  1.00  0.00     0.281 HD
HETATM    3  C   UNL     1      39.531 -14.205   1.062  1.00  0.00     0.256 C 
HETATM    4  C   UNL     1      39.858 -14.505   2.534  1.00  0.00     0.154 C 
HETATM    5  N   UNL     1      41.029 -13.732   2.950  1.00  0.00    -0.345 N 
HETATM    6  C   UNL     1      42.353 -14.185   2.789  1.00  0.00     0.256 C 
HETATM    7  O   UNL     1      43.292 -13.395   2.726  1.00  0.00    -0.267 OA
HETATM    8  C   UNL     1      40.825 -12.281   2.853  1.00  0.00     0.154 C 
HETATM    9  C   UNL     1      40.537 -11.897   1.383  1.00  0.00     0.256 C 
ENDROOT
BRANCH   6  10
HETATM   10  C   UNL     1      42.605 -15.620   2.502  1.00  0.00     0.058 A 
HETATM   11  C   UNL     1      42.794 -16.617   3.476  1.00  0.00     0.049 A 
HETATM   12  C   UNL     1      42.734 -17.962   3.084  1.00  0.00     0.030 A 
HETATM   13  C   UNL     1      42.588 -18.308   1.738  1.00  0.00     0.002 A 
HETATM   14  C   UNL     1      42.482 -17.316   0.768  1.00  0.00     0.001 A 
HETATM   15  C   UNL     1      42.481 -15.975   1.147  1.00  0.00     0.019 A 
BRANCH  11  16
HETATM   16  N   UNL     1      42.984 -16.382   4.855  1.00  0.00    -0.337 N 
HETATM   17  H   UNL     1      43.676 -15.684   5.107  1.00  0.00     0.168 HD
BRANCH  16  18
HETATM   18  C   UNL     1      42.357 -16.951   5.913  1.00  0.00     0.157 C 
HETATM   19  S   UNL     1      40.753 -16.570   6.197  1.00  0.00    -0.047 SA
BRANCH  18  20
HETATM   20  N   UNL     1      42.955 -17.909   6.674  1.00  0.00    -0.199 NA
HETATM   21  C   UNL     1      44.271 -18.310   6.459  1.00  0.00     0.261 C 
HETATM   22  O   UNL     1      45.250 -17.608   6.684  1.00  0.00    -0.271 OA
HETATM   23  H   UNL     1      42.337 -18.715   6.719  1.00  0.00     0.139 HD
BRANCH  21  24
HETATM   24  C   UNL     1      44.390 -19.675   5.982  1.00  0.00     0.137 A 
HETATM   25  O   UNL     1      45.081 -19.925   4.825  1.00  0.00    -0.318 OA
HETATM   26  C   UNL     1      45.085 -21.272   4.647  1.00  0.00     0.143 A 
HETATM   27  C   UNL     1      44.405 -21.896   5.666  1.00  0.00     0.027 A 
HETATM   28  C   UNL     1      43.949 -20.867   6.524  1.00  0.00     0.044 A 
ENDBRANCH  21  24
ENDBRANCH  18  20
ENDBRANCH  16  18
ENDBRANCH  11  16
ENDBRANCH   6  10
BRANCH   1  29
HETATM   29  C   UNL     1      38.848 -12.373  -0.547  1.00  0.00     0.254 C 
BRANCH  29  30
HETATM   30  C   UNL     1      37.459 -11.744  -0.624  1.00  0.00    -0.023 A 
HETATM   31  C   UNL     1      36.590 -11.869   0.481  1.00  0.00     0.009 A 
HETATM   32  C   UNL     1      35.291 -11.360   0.444  1.00  0.00     0.001 A 
HETATM   33  C   UNL     1      34.831 -10.708  -0.695  1.00  0.00     0.000 A 
HETATM   34  C   UNL     1      35.672 -10.562  -1.794  1.00  0.00     0.001 A 
HETATM   35  C   UNL     1      36.971 -11.076  -1.760  1.00  0.00     0.009 A 
ENDBRANCH  29  30
BRANCH  29  36
HETATM   36  C   UNL     1      39.224 -13.455  -1.557  1.00  0.00    -0.023 A 
HETATM   37  C   UNL     1      38.180 -14.123  -2.237  1.00  0.00     0.009 A 
HETATM   38  C   UNL     1      38.446 -15.128  -3.168  1.00  0.00     0.001 A 
HETATM   39  C   UNL     1      39.759 -15.487  -3.443  1.00  0.00     0.000 A 
HETATM   40  C   UNL     1      40.803 -14.843  -2.787  1.00  0.00     0.001 A 
HETATM   41  C   UNL     1      40.541 -13.835  -1.854  1.00  0.00     0.009 A 
ENDBRANCH  29  36
ENDBRANCH   1  29
TORSDOF 8
ENDMDL
MODEL 9
REMARK VINA RESULT:      -8.8      3.879      7.074
REMARK  8 active torsions:
REMARK  status: ('A' for Active; 'I' for Inactive)
REMARK    1  A    between atoms: C_4  and  C_5 
REMARK    2  A    between atoms: C_5  and  N_6 
REMARK    3  A    between atoms: C_5  and  C_32 
REMARK       I    between atoms: N_10  and  C_11 
REMARK    4  A    between atoms: C_11  and  C_12 
REMARK    5  A    between atoms: C_13  and  N_14 
REMARK    6  A    between atoms: N_14  and  C_15 
REMARK    7  A    between atoms: C_15  and  N_16 
REMARK       I    between atoms: N_16  and  C_17 
REMARK    8  A    between atoms: C_17  and  C_18 
ROOT
HETATM    1  N   UNL     1      42.591 -16.152   4.238  1.00  0.00    -0.056 N 
HETATM    2  H   UNL     1      43.068 -16.747   4.923  1.00  0.00     0.281 HD
HETATM    3  C   UNL     1      42.936 -14.706   4.600  1.00  0.00     0.256 C 
HETATM    4  C   UNL     1      42.450 -14.394   6.025  1.00  0.00     0.154 C 
HETATM    5  N   UNL     1      41.016 -14.670   6.133  1.00  0.00    -0.345 N 
HETATM    6  C   UNL     1      40.020 -13.724   5.819  1.00  0.00     0.256 C 
HETATM    7  O   UNL     1      38.889 -14.077   5.495  1.00  0.00    -0.267 OA
HETATM    8  C   UNL     1      40.680 -16.076   5.874  1.00  0.00     0.154 C 
HETATM    9  C   UNL     1      41.099 -16.450   4.433  1.00  0.00     0.256 C 
ENDROOT
BRANCH   6  10
HETATM   10  C   UNL     1      40.387 -12.291   5.693  1.00  0.00     0.058 A 
HETATM   11  C   UNL     1      40.621 -11.420   6.772  1.00  0.00     0.049 A 
HETATM   12  C   UNL     1      41.235 -10.185   6.519  1.00  0.00     0.030 A 
HETATM   13  C   UNL     1      41.519  -9.782   5.212  1.00  0.00     0.002 A 
HETATM   14  C   UNL     1      41.211 -10.615   4.141  1.00  0.00     0.001 A 
HETATM   15  C   UNL     1      40.655 -11.870   4.378  1.00  0.00     0.019 A 
BRANCH  11  16
HETATM   16  N   UNL     1      40.343 -11.708   8.126  1.00  0.00    -0.337 N 
HETATM   17  H   UNL     1      40.266 -12.689   8.376  1.00  0.00     0.168 HD
BRANCH  16  18
HETATM   18  C   UNL     1      40.172 -10.855   9.164  1.00  0.00     0.157 C 
HETATM   19  S   UNL     1      38.798  -9.901   9.202  1.00  0.00    -0.047 SA
BRANCH  18  20
HETATM   20  N   UNL     1      41.019 -10.840  10.231  1.00  0.00    -0.199 NA
HETATM   21  C   UNL     1      42.053  -9.914  10.342  1.00  0.00     0.261 C 
HETATM   22  O   UNL     1      41.885  -8.715  10.536  1.00  0.00    -0.271 OA
HETATM   23  H   UNL     1      41.365 -11.784  10.380  1.00  0.00     0.139 HD
BRANCH  21  24
HETATM   24  C   UNL     1      43.373 -10.507  10.255  1.00  0.00     0.137 A 
HETATM   25  O   UNL     1      43.844 -10.925   9.038  1.00  0.00    -0.318 OA
HETATM   26  C   UNL     1      45.110 -11.379   9.235  1.00  0.00     0.143 A 
HETATM   27  C   UNL     1      45.462 -11.267  10.559  1.00  0.00     0.027 A 
HETATM   28  C   UNL     1      44.341 -10.712  11.220  1.00  0.00     0.044 A 
ENDBRANCH  21  24
ENDBRANCH  18  20
ENDBRANCH  16  18
ENDBRANCH  11  16
ENDBRANCH   6  10
BRANCH   1  29
HETATM   29  C   UNL     1      43.200 -16.556   2.891  1.00  0.00     0.254 C 
BRANCH  29  30
HETATM   30  C   UNL     1      42.510 -15.963   1.665  1.00  0.00    -0.023 A 
HETATM   31  C   UNL     1      42.413 -14.561   1.548  1.00  0.00     0.009 A 
HETATM   32  C   UNL     1      41.746 -13.967   0.475  1.00  0.00     0.001 A 
HETATM   33  C   UNL     1      41.168 -14.759  -0.510  1.00  0.00     0.000 A 
HETATM   34  C   UNL     1      41.259 -16.145  -0.424  1.00  0.00     0.001 A 
HETATM   35  C   UNL     1      41.921 -16.741   0.653  1.00  0.00     0.009 A 
ENDBRANCH  29  30
BRANCH  29  36
HETATM   36  C   UNL     1      43.623 -18.024   2.860  1.00  0.00    -0.023 A 
HETATM   37  C   UNL     1      44.135 -18.595   4.048  1.00  0.00     0.009 A 
HETATM   38  C   UNL     1      44.550 -19.927   4.094  1.00  0.00     0.001 A 
HETATM   39  C   UNL     1      44.461 -20.719   2.957  1.00  0.00     0.000 A 
HETATM   40  C   UNL     1      43.959 -20.179   1.777  1.00  0.00     0.001 A 
HETATM   41  C   UNL     1      43.542 -18.846   1.727  1.00  0.00     0.009 A 
ENDBRANCH  29  36
ENDBRANCH   1  29
TORSDOF 8
ENDMDL
MODEL 10
REMARK VINA RESULT:      -8.7      2.464      3.552
REMARK  8 active torsions:
REMARK  status: ('A' for Active; 'I' for Inactive)
REMARK    1  A    between atoms: C_4  and  C_5 
REMARK    2  A    between atoms: C_5  and  N_6 
REMARK    3  A    between atoms: C_5  and  C_32 
REMARK       I    between atoms: N_10  and  C_11 
REMARK    4  A    between atoms: C_11  and  C_12 
REMARK    5  A    between atoms: C_13  and  N_14 
REMARK    6  A    between atoms: N_14  and  C_15 
REMARK    7  A    between atoms: C_15  and  N_16 
REMARK       I    between atoms: N_16  and  C_17 
REMARK    8  A    between atoms: C_17  and  C_18 
ROOT
HETATM    1  N   UNL     1      39.266 -13.483   1.250  1.00  0.00    -0.056 N 
HETATM    2  H   UNL     1      38.493 -13.326   1.904  1.00  0.00     0.281 HD
HETATM    3  C   UNL     1      39.709 -14.936   1.438  1.00  0.00     0.256 C 
HETATM    4  C   UNL     1      40.166 -15.160   2.888  1.00  0.00     0.154 C 
HETATM    5  N   UNL     1      41.223 -14.206   3.229  1.00  0.00    -0.345 N 
HETATM    6  C   UNL     1      42.590 -14.448   2.989  1.00  0.00     0.256 C 
HETATM    7  O   UNL     1      43.387 -13.521   2.866  1.00  0.00    -0.267 OA
HETATM    8  C   UNL     1      40.786 -12.807   3.139  1.00  0.00     0.154 C 
HETATM    9  C   UNL     1      40.354 -12.493   1.688  1.00  0.00     0.256 C 
ENDROOT
BRANCH   6  10
HETATM   10  C   UNL     1      43.048 -15.829   2.693  1.00  0.00     0.058 A 
HETATM   11  C   UNL     1      43.268 -16.830   3.656  1.00  0.00     0.049 A 
HETATM   12  C   UNL     1      43.417 -18.157   3.226  1.00  0.00     0.030 A 
HETATM   13  C   UNL     1      43.445 -18.468   1.865  1.00  0.00     0.002 A 
HETATM   14  C   UNL     1      43.307 -17.461   0.914  1.00  0.00     0.001 A 
HETATM   15  C   UNL     1      43.100 -16.146   1.324  1.00  0.00     0.019 A 
BRANCH  11  16
HETATM   16  N   UNL     1      43.294 -16.624   5.052  1.00  0.00    -0.337 N 
HETATM   17  H   UNL     1      43.942 -15.924   5.398  1.00  0.00     0.168 HD
BRANCH  16  18
HETATM   18  C   UNL     1      42.558 -17.225   6.019  1.00  0.00     0.157 C 
HETATM   19  S   UNL     1      40.959 -16.771   6.210  1.00  0.00    -0.047 SA
BRANCH  18  20
HETATM   20  N   UNL     1      43.043 -18.267   6.751  1.00  0.00    -0.199 NA
HETATM   21  C   UNL     1      44.352 -18.720   6.614  1.00  0.00     0.261 C 
HETATM   22  O   UNL     1      45.340 -18.088   6.973  1.00  0.00    -0.271 OA
HETATM   23  H   UNL     1      42.387 -19.040   6.683  1.00  0.00     0.139 HD
BRANCH  21  24
HETATM   24  C   UNL     1      44.449 -20.051   6.046  1.00  0.00     0.137 A 
HETATM   25  O   UNL     1      45.133 -20.233   4.872  1.00  0.00    -0.318 OA
HETATM   26  C   UNL     1      45.116 -21.564   4.604  1.00  0.00     0.143 A 
HETATM   27  C   UNL     1      44.429 -22.245   5.581  1.00  0.00     0.027 A 
HETATM   28  C   UNL     1      43.992 -21.270   6.508  1.00  0.00     0.044 A 
ENDBRANCH  21  24
ENDBRANCH  18  20
ENDBRANCH  16  18
ENDBRANCH  11  16
ENDBRANCH   6  10
BRANCH   1  29
HETATM   29  C   UNL     1      38.650 -13.255  -0.134  1.00  0.00     0.254 C 
BRANCH  29  30
HETATM   30  C   UNL     1      39.572 -13.561  -1.312  1.00  0.00    -0.023 A 
HETATM   31  C   UNL     1      39.059 -14.284  -2.409  1.00  0.00     0.009 A 
HETATM   32  C   UNL     1      39.872 -14.637  -3.489  1.00  0.00     0.001 A 
HETATM   33  C   UNL     1      41.213 -14.271  -3.499  1.00  0.00     0.000 A 
HETATM   34  C   UNL     1      41.740 -13.548  -2.433  1.00  0.00     0.001 A 
HETATM   35  C   UNL     1      40.929 -13.199  -1.350  1.00  0.00     0.009 A 
ENDBRANCH  29  30
BRANCH  29  36
HETATM   36  C   UNL     1      37.782 -12.000  -0.185  1.00  0.00    -0.023 A 
HETATM   37  C   UNL     1      36.579 -11.990   0.557  1.00  0.00     0.009 A 
HETATM   38  C   UNL     1      35.730 -10.882   0.552  1.00  0.00     0.001 A 
HETATM   39  C   UNL     1      36.065  -9.758  -0.192  1.00  0.00     0.000 A 
HETATM   40  C   UNL     1      37.244  -9.743  -0.929  1.00  0.00     0.001 A 
HETATM   41  C   UNL     1      38.097 -10.852  -0.926  1.00  0.00     0.009 A 
ENDBRANCH  29  36
ENDBRANCH   1  29
TORSDOF 8
ENDMDL
