MODEL 1
REMARK VINA RESULT:      -9.0      0.000      0.000
REMARK  8 active torsions:
REMARK  status: ('A' for Active; 'I' for Inactive)
REMARK    1  A    between atoms: C_6  and  N_7 
REMARK       I    between atoms: N_7  and  C_8 
REMARK    2  A    between atoms: C_8  and  C_9 
REMARK    3  A    between atoms: C_9  and  N_10 
REMARK    4  A    between atoms: C_13  and  C_14 
REMARK       I    between atoms: C_14  and  N_15 
REMARK    5  A    between atoms: N_15  and  C_16 
REMARK    6  A    between atoms: C_16  and  C_17 
REMARK    7  A    between atoms: C_19  and  O_20 
REMARK    8  A    between atoms: C_26  and  N_27 
ROOT
HETATM    1  N   UNL     1      44.305 -13.644   7.144  1.00  0.00    -0.248 N 
HETATM    2  N   UNL     1      43.410 -12.733   6.706  1.00  0.00     0.007 NA
HETATM    3  N   UNL     1      42.491 -13.378   6.008  1.00  0.00    -0.150 NA
HETATM    4  C   UNL     1      42.847 -14.705   5.935  1.00  0.00     0.186 A 
HETATM    5  C   UNL     1      44.000 -14.907   6.685  1.00  0.00     0.151 A 
ENDROOT
BRANCH   1   6
HETATM    6  C   UNL     1      45.454 -13.180   7.889  1.00  0.00     0.251 C 
BRANCH   6   7
HETATM    7  C   UNL     1      45.150 -12.007   8.804  1.00  0.00     0.241 C 
HETATM    8  N   UNL     1      43.951 -12.114   9.488  1.00  0.00    -0.326 N 
HETATM    9  H   UNL     1      43.524 -13.042   9.500  1.00  0.00     0.169 HD
HETATM   10  O   UNL     1      45.902 -11.036   8.821  1.00  0.00    -0.271 OA
BRANCH   8  11
HETATM   11  C   UNL     1      43.287 -11.132  10.249  1.00  0.00     0.036 A 
HETATM   12  C   UNL     1      43.644 -10.772  11.548  1.00  0.00     0.053 A 
HETATM   13  C   UNL     1      42.955  -9.747  12.212  1.00  0.00     0.042 A 
HETATM   14  C   UNL     1      41.894  -9.068  11.593  1.00  0.00    -0.040 A 
HETATM   15 CL   UNL     1      43.465  -9.338  13.813  1.00  0.00    -0.084 Cl
HETATM   16  C   UNL     1      41.153  -7.953  12.273  1.00  0.00     0.050 C 
HETATM   17  C   UNL     1      41.539  -9.440  10.290  1.00  0.00     0.011 A 
HETATM   18  C   UNL     1      42.229 -10.459   9.628  1.00  0.00     0.030 A 
ENDBRANCH   8  11
ENDBRANCH   6   7
ENDBRANCH   1   6
BRANCH   5  19
HETATM   19  N   UNL     1      44.730 -16.016   6.975  1.00  0.00    -0.382 N 
HETATM   20  H   UNL     1      45.457 -16.309   6.322  1.00  0.00     0.157 HD
HETATM   21  H   UNL     1      44.300 -16.835   7.406  1.00  0.00     0.157 HD
ENDBRANCH   5  19
BRANCH   4  22
HETATM   22  C   UNL     1      42.070 -15.659   5.156  1.00  0.00     0.275 C 
HETATM   23  N   UNL     1      42.734 -16.208   4.079  1.00  0.00    -0.351 N 
HETATM   24  H   UNL     1      43.677 -15.901   3.871  1.00  0.00     0.163 HD
HETATM   25  O   UNL     1      40.899 -15.926   5.414  1.00  0.00    -0.266 OA
BRANCH  23  26
HETATM   26  C   UNL     1      42.081 -17.141   3.192  1.00  0.00     0.161 C 
BRANCH  26  27
HETATM   27  C   UNL     1      42.854 -18.430   3.083  1.00  0.00    -0.038 A 
HETATM   28  C   UNL     1      43.558 -18.926   4.196  1.00  0.00     0.045 A 
HETATM   29  C   UNL     1      44.298 -20.106   4.103  1.00  0.00     0.068 A 
HETATM   30  C   UNL     1      44.333 -20.796   2.890  1.00  0.00     0.037 A 
HETATM   31  C   UNL     1      43.638 -20.316   1.779  1.00  0.00     0.003 A 
HETATM   32  C   UNL     1      42.900 -19.137   1.874  1.00  0.00     0.009 A 
BRANCH  29  33
HETATM   33  O   UNL     1      45.023 -20.684   5.108  1.00  0.00    -0.356 OA
HETATM   34  C   UNL     1      45.000 -22.104   5.186  1.00  0.00     0.210 C 
ENDBRANCH  29  33
ENDBRANCH  26  27
ENDBRANCH  23  26
ENDBRANCH   4  22
TORSDOF 8
ENDMDL
MODEL 2
REMARK VINA RESULT:      -8.8      3.243     10.658
REMARK  8 active torsions:
REMARK  status: ('A' for Active; 'I' for Inactive)
REMARK    1  A    between atoms: C_6  and  N_7 
REMARK       I    between atoms: N_7  and  C_8 
REMARK    2  A    between atoms: C_8  and  C_9 
REMARK    3  A    between atoms: C_9  and  N_10 
REMARK    4  A    between atoms: C_13  and  C_14 
REMARK       I    between atoms: C_14  and  N_15 
REMARK    5  A    between atoms: N_15  and  C_16 
REMARK    6  A    between atoms: C_16  and  C_17 
REMARK    7  A    between atoms: C_19  and  O_20 
REMARK    8  A    between atoms: C_26  and  N_27 
ROOT
HETATM    1  N   UNL     1      43.228 -14.285   6.120  1.00  0.00    -0.248 N 
HETATM    2  N   UNL     1      44.293 -15.050   6.443  1.00  0.00     0.007 NA
HETATM    3  N   UNL     1      44.914 -14.467   7.453  1.00  0.00    -0.150 NA
HETATM    4  C   UNL     1      44.282 -13.275   7.726  1.00  0.00     0.186 A 
HETATM    5  C   UNL     1      43.173 -13.150   6.897  1.00  0.00     0.151 A 
ENDROOT
BRANCH   1   6
HETATM    6  C   UNL     1      42.411 -14.679   4.994  1.00  0.00     0.251 C 
BRANCH   6   7
HETATM    7  C   UNL     1      42.380 -16.180   4.763  1.00  0.00     0.241 C 
HETATM    8  N   UNL     1      43.522 -16.686   4.165  1.00  0.00    -0.326 N 
HETATM    9  H   UNL     1      44.337 -16.071   4.163  1.00  0.00     0.169 HD
HETATM   10  O   UNL     1      41.363 -16.817   5.024  1.00  0.00    -0.271 OA
BRANCH   8  11
HETATM   11  C   UNL     1      43.736 -17.977   3.641  1.00  0.00     0.036 A 
HETATM   12  C   UNL     1      44.282 -19.037   4.364  1.00  0.00     0.053 A 
HETATM   13  C   UNL     1      44.413 -20.302   3.774  1.00  0.00     0.042 A 
HETATM   14  C   UNL     1      44.006 -20.529   2.450  1.00  0.00    -0.040 A 
HETATM   15 CL   UNL     1      45.078 -21.576   4.736  1.00  0.00    -0.084 Cl
HETATM   16  C   UNL     1      44.115 -21.879   1.800  1.00  0.00     0.050 C 
HETATM   17  C   UNL     1      43.464 -19.457   1.729  1.00  0.00     0.011 A 
HETATM   18  C   UNL     1      43.330 -18.198   2.321  1.00  0.00     0.030 A 
ENDBRANCH   8  11
ENDBRANCH   6   7
ENDBRANCH   1   6
BRANCH   5  19
HETATM   19  N   UNL     1      42.203 -12.203   6.790  1.00  0.00    -0.382 N 
HETATM   20  H   UNL     1      42.464 -11.221   6.884  1.00  0.00     0.157 HD
HETATM   21  H   UNL     1      41.272 -12.353   7.179  1.00  0.00     0.157 HD
ENDBRANCH   5  19
BRANCH   4  22
HETATM   22  C   UNL     1      44.790 -12.360   8.740  1.00  0.00     0.275 C 
HETATM   23  N   UNL     1      44.237 -12.516   9.994  1.00  0.00    -0.351 N 
HETATM   24  H   UNL     1      43.506 -13.205  10.129  1.00  0.00     0.163 HD
HETATM   25  O   UNL     1      45.619 -11.490   8.490  1.00  0.00    -0.266 OA
BRANCH  23  26
HETATM   26  C   UNL     1      44.613 -11.658  11.091  1.00  0.00     0.161 C 
BRANCH  26  27
HETATM   27  C   UNL     1      43.437 -10.863  11.596  1.00  0.00    -0.038 A 
HETATM   28  C   UNL     1      42.160 -11.064  11.040  1.00  0.00     0.045 A 
HETATM   29  C   UNL     1      41.065 -10.318  11.481  1.00  0.00     0.068 A 
HETATM   30  C   UNL     1      41.248  -9.367  12.487  1.00  0.00     0.037 A 
HETATM   31  C   UNL     1      42.509  -9.159  13.048  1.00  0.00     0.003 A 
HETATM   32  C   UNL     1      43.600  -9.905  12.605  1.00  0.00     0.009 A 
BRANCH  29  33
HETATM   33  O   UNL     1      39.782 -10.419  11.019  1.00  0.00    -0.356 OA
HETATM   34  C   UNL     1      38.955  -9.270  11.157  1.00  0.00     0.210 C 
ENDBRANCH  29  33
ENDBRANCH  26  27
ENDBRANCH  23  26
ENDBRANCH   4  22
TORSDOF 8
ENDMDL
MODEL 3
REMARK VINA RESULT:      -8.7      5.610      9.618
REMARK  8 active torsions:
REMARK  status: ('A' for Active; 'I' for Inactive)
REMARK    1  A    between atoms: C_6  and  N_7 
REMARK       I    between atoms: N_7  and  C_8 
REMARK    2  A    between atoms: C_8  and  C_9 
REMARK    3  A    between atoms: C_9  and  N_10 
REMARK    4  A    between atoms: C_13  and  C_14 
REMARK       I    between atoms: C_14  and  N_15 
REMARK    5  A    between atoms: N_15  and  C_16 
REMARK    6  A    between atoms: C_16  and  C_17 
REMARK    7  A    between atoms: C_19  and  O_20 
REMARK    8  A    between atoms: C_26  and  N_27 
ROOT
HETATM    1  N   UNL     1      42.118 -14.276   3.977  1.00  0.00    -0.248 N 
HETATM    2  N   UNL     1      43.092 -13.717   3.228  1.00  0.00     0.007 NA
HETATM    3  N   UNL     1      42.527 -13.221   2.140  1.00  0.00    -0.150 NA
HETATM    4  C   UNL     1      41.187 -13.538   2.160  1.00  0.00     0.186 A 
HETATM    5  C   UNL     1      40.894 -14.194   3.350  1.00  0.00     0.151 A 
ENDROOT
BRANCH   1   6
HETATM    6  C   UNL     1      42.489 -14.947   5.203  1.00  0.00     0.251 C 
BRANCH   6   7
HETATM    7  C   UNL     1      42.592 -16.456   5.062  1.00  0.00     0.241 C 
HETATM    8  N   UNL     1      43.616 -16.880   4.233  1.00  0.00    -0.326 N 
HETATM    9  H   UNL     1      44.325 -16.182   4.003  1.00  0.00     0.169 HD
HETATM   10  O   UNL     1      41.751 -17.177   5.593  1.00  0.00    -0.271 OA
BRANCH   8  11
HETATM   11  C   UNL     1      43.860 -18.177   3.738  1.00  0.00     0.036 A 
HETATM   12  C   UNL     1      44.389 -19.221   4.497  1.00  0.00     0.053 A 
HETATM   13  C   UNL     1      44.552 -20.494   3.933  1.00  0.00     0.042 A 
HETATM   14  C   UNL     1      44.195 -20.745   2.599  1.00  0.00    -0.040 A 
HETATM   15 CL   UNL     1      45.193 -21.746   4.939  1.00  0.00    -0.084 Cl
HETATM   16  C   UNL     1      44.340 -22.104   1.976  1.00  0.00     0.050 C 
HETATM   17  C   UNL     1      43.671 -19.690   1.842  1.00  0.00     0.011 A 
HETATM   18  C   UNL     1      43.505 -18.423   2.407  1.00  0.00     0.030 A 
ENDBRANCH   8  11
ENDBRANCH   6   7
ENDBRANCH   1   6
BRANCH   5  19
HETATM   19  N   UNL     1      39.738 -14.673   3.879  1.00  0.00    -0.382 N 
HETATM   20  H   UNL     1      38.858 -14.219   3.628  1.00  0.00     0.157 HD
HETATM   21  H   UNL     1      39.693 -15.006   4.842  1.00  0.00     0.157 HD
ENDBRANCH   5  19
BRANCH   4  22
HETATM   22  C   UNL     1      40.310 -13.200   1.048  1.00  0.00     0.275 C 
HETATM   23  N   UNL     1      40.949 -13.005  -0.159  1.00  0.00    -0.351 N 
HETATM   24  H   UNL     1      41.959 -13.065  -0.198  1.00  0.00     0.163 HD
HETATM   25  O   UNL     1      39.097 -13.061   1.180  1.00  0.00    -0.266 OA
BRANCH  23  26
HETATM   26  C   UNL     1      40.215 -12.627  -1.343  1.00  0.00     0.161 C 
BRANCH  26  27
HETATM   27  C   UNL     1      39.925 -13.822  -2.214  1.00  0.00    -0.038 A 
HETATM   28  C   UNL     1      38.698 -13.916  -2.897  1.00  0.00     0.045 A 
HETATM   29  C   UNL     1      38.406 -15.028  -3.689  1.00  0.00     0.068 A 
HETATM   30  C   UNL     1      39.349 -16.052  -3.801  1.00  0.00     0.037 A 
HETATM   31  C   UNL     1      40.570 -15.971  -3.131  1.00  0.00     0.003 A 
HETATM   32  C   UNL     1      40.858 -14.859  -2.341  1.00  0.00     0.009 A 
BRANCH  29  33
HETATM   33  O   UNL     1      37.253 -15.235  -4.394  1.00  0.00    -0.356 OA
HETATM   34  C   UNL     1      36.375 -14.125  -4.535  1.00  0.00     0.210 C 
ENDBRANCH  29  33
ENDBRANCH  26  27
ENDBRANCH  23  26
ENDBRANCH   4  22
TORSDOF 8
ENDMDL
MODEL 4
REMARK VINA RESULT:      -8.6      3.753     10.174
REMARK  8 active torsions:
REMARK  status: ('A' for Active; 'I' for Inactive)
REMARK    1  A    between atoms: C_6  and  N_7 
REMARK       I    between atoms: N_7  and  C_8 
REMARK    2  A    between atoms: C_8  and  C_9 
REMARK    3  A    between atoms: C_9  and  N_10 
REMARK    4  A    between atoms: C_13  and  C_14 
REMARK       I    between atoms: C_14  and  N_15 
REMARK    5  A    between atoms: N_15  and  C_16 
REMARK    6  A    between atoms: C_16  and  C_17 
REMARK    7  A    between atoms: C_19  and  O_20 
REMARK    8  A    between atoms: C_26  and  N_27 
ROOT
HETATM    1  N   UNL     1      41.533 -14.348   4.201  1.00  0.00    -0.248 N 
HETATM    2  N   UNL     1      42.443 -13.354   4.115  1.00  0.00     0.007 NA
HETATM    3  N   UNL     1      42.157 -12.466   5.052  1.00  0.00    -0.150 NA
HETATM    4  C   UNL     1      41.004 -12.861   5.692  1.00  0.00     0.186 A 
HETATM    5  C   UNL     1      40.599 -14.088   5.179  1.00  0.00     0.151 A 
ENDROOT
BRANCH   1   6
HETATM    6  C   UNL     1      41.591 -15.423   3.236  1.00  0.00     0.251 C 
BRANCH   6   7
HETATM    7  C   UNL     1      41.860 -16.782   3.859  1.00  0.00     0.241 C 
HETATM    8  N   UNL     1      43.129 -17.278   3.614  1.00  0.00    -0.326 N 
HETATM    9  H   UNL     1      43.814 -16.606   3.264  1.00  0.00     0.169 HD
HETATM   10  O   UNL     1      40.956 -17.376   4.441  1.00  0.00    -0.271 OA
BRANCH   8  11
HETATM   11  C   UNL     1      43.628 -18.571   3.873  1.00  0.00     0.036 A 
HETATM   12  C   UNL     1      43.860 -19.534   2.892  1.00  0.00     0.053 A 
HETATM   13  C   UNL     1      44.404 -20.779   3.238  1.00  0.00     0.042 A 
HETATM   14  C   UNL     1      44.721 -21.085   4.571  1.00  0.00    -0.040 A 
HETATM   15 CL   UNL     1      44.685 -21.918   1.967  1.00  0.00    -0.084 Cl
HETATM   16  C   UNL     1      45.325 -22.403   4.966  1.00  0.00     0.050 C 
HETATM   17  C   UNL     1      44.480 -20.114   5.550  1.00  0.00     0.011 A 
HETATM   18  C   UNL     1      43.941 -18.872   5.203  1.00  0.00     0.030 A 
ENDBRANCH   8  11
ENDBRANCH   6   7
ENDBRANCH   1   6
BRANCH   5  19
HETATM   19  N   UNL     1      39.569 -14.921   5.485  1.00  0.00    -0.382 N 
HETATM   20  H   UNL     1      39.020 -15.322   4.723  1.00  0.00     0.157 HD
HETATM   21  H   UNL     1      38.968 -14.746   6.291  1.00  0.00     0.157 HD
ENDBRANCH   5  19
BRANCH   4  22
HETATM   22  C   UNL     1      40.388 -12.038   6.723  1.00  0.00     0.275 C 
HETATM   23  N   UNL     1      41.274 -11.369   7.542  1.00  0.00    -0.351 N 
HETATM   24  H   UNL     1      42.269 -11.513   7.413  1.00  0.00     0.163 HD
HETATM   25  O   UNL     1      39.171 -11.972   6.877  1.00  0.00    -0.266 OA
BRANCH  23  26
HETATM   26  C   UNL     1      40.812 -10.545   8.633  1.00  0.00     0.161 C 
BRANCH  26  27
HETATM   27  C   UNL     1      41.880 -10.370   9.681  1.00  0.00    -0.038 A 
HETATM   28  C   UNL     1      43.207 -10.747   9.404  1.00  0.00     0.045 A 
HETATM   29  C   UNL     1      44.203 -10.613  10.374  1.00  0.00     0.068 A 
HETATM   30  C   UNL     1      43.869 -10.096  11.627  1.00  0.00     0.037 A 
HETATM   31  C   UNL     1      42.557  -9.717  11.914  1.00  0.00     0.003 A 
HETATM   32  C   UNL     1      41.566  -9.852  10.944  1.00  0.00     0.009 A 
BRANCH  29  33
HETATM   33  O   UNL     1      45.521 -10.947  10.228  1.00  0.00    -0.356 OA
HETATM   34  C   UNL     1      45.897 -11.565   9.004  1.00  0.00     0.210 C 
ENDBRANCH  29  33
ENDBRANCH  26  27
ENDBRANCH  23  26
ENDBRANCH   4  22
TORSDOF 8
ENDMDL
MODEL 5
REMARK VINA RESULT:      -8.6      5.162      8.859
REMARK  8 active torsions:
REMARK  status: ('A' for Active; 'I' for Inactive)
REMARK    1  A    between atoms: C_6  and  N_7 
REMARK       I    between atoms: N_7  and  C_8 
REMARK    2  A    between atoms: C_8  and  C_9 
REMARK    3  A    between atoms: C_9  and  N_10 
REMARK    4  A    between atoms: C_13  and  C_14 
REMARK       I    between atoms: C_14  and  N_15 
REMARK    5  A    between atoms: N_15  and  C_16 
REMARK    6  A    between atoms: C_16  and  C_17 
REMARK    7  A    between atoms: C_19  and  O_20 
REMARK    8  A    between atoms: C_26  and  N_27 
ROOT
HETATM    1  N   UNL     1      43.252 -14.902   6.253  1.00  0.00    -0.248 N 
HETATM    2  N   UNL     1      44.275 -14.295   5.615  1.00  0.00     0.007 NA
HETATM    3  N   UNL     1      43.759 -13.486   4.706  1.00  0.00    -0.150 NA
HETATM    4  C   UNL     1      42.391 -13.637   4.712  1.00  0.00     0.186 A 
HETATM    5  C   UNL     1      42.037 -14.525   5.723  1.00  0.00     0.151 A 
ENDROOT
BRANCH   1   6
HETATM    6  C   UNL     1      43.556 -15.891   7.263  1.00  0.00     0.251 C 
BRANCH   6   7
HETATM    7  C   UNL     1      43.567 -17.314   6.734  1.00  0.00     0.241 C 
HETATM    8  N   UNL     1      44.284 -17.479   5.560  1.00  0.00    -0.326 N 
HETATM    9  H   UNL     1      44.912 -16.714   5.308  1.00  0.00     0.169 HD
HETATM   10  O   UNL     1      42.903 -18.180   7.297  1.00  0.00    -0.271 OA
BRANCH   8  11
HETATM   11  C   UNL     1      44.330 -18.605   4.715  1.00  0.00     0.036 A 
HETATM   12  C   UNL     1      44.721 -19.879   5.125  1.00  0.00     0.053 A 
HETATM   13  C   UNL     1      44.689 -20.953   4.224  1.00  0.00     0.042 A 
HETATM   14  C   UNL     1      44.274 -20.771   2.896  1.00  0.00    -0.040 A 
HETATM   15 CL   UNL     1      45.166 -22.510   4.807  1.00  0.00    -0.084 Cl
HETATM   16  C   UNL     1      44.211 -21.908   1.915  1.00  0.00     0.050 C 
HETATM   17  C   UNL     1      43.889 -19.487   2.490  1.00  0.00     0.011 A 
HETATM   18  C   UNL     1      43.917 -18.419   3.391  1.00  0.00     0.030 A 
ENDBRANCH   8  11
ENDBRANCH   6   7
ENDBRANCH   1   6
BRANCH   5  19
HETATM   19  N   UNL     1      40.839 -14.978   6.175  1.00  0.00    -0.382 N 
HETATM   20  H   UNL     1      40.582 -14.800   7.147  1.00  0.00     0.157 HD
HETATM   21  H   UNL     1      40.468 -15.882   5.878  1.00  0.00     0.157 HD
ENDBRANCH   5  19
BRANCH   4  22
HETATM   22  C   UNL     1      41.544 -12.936   3.757  1.00  0.00     0.275 C 
HETATM   23  N   UNL     1      42.198 -12.463   2.638  1.00  0.00    -0.351 N 
HETATM   24  H   UNL     1      43.200 -12.589   2.562  1.00  0.00     0.163 HD
HETATM   25  O   UNL     1      40.346 -12.746   3.949  1.00  0.00    -0.266 OA
BRANCH  23  26
HETATM   26  C   UNL     1      41.498 -11.716   1.621  1.00  0.00     0.161 C 
BRANCH  26  27
HETATM   27  C   UNL     1      41.751 -12.284   0.249  1.00  0.00    -0.038 A 
HETATM   28  C   UNL     1      41.258 -13.558  -0.088  1.00  0.00     0.045 A 
HETATM   29  C   UNL     1      41.505 -14.108  -1.348  1.00  0.00     0.068 A 
HETATM   30  C   UNL     1      42.248 -13.376  -2.277  1.00  0.00     0.037 A 
HETATM   31  C   UNL     1      42.741 -12.111  -1.956  1.00  0.00     0.003 A 
HETATM   32  C   UNL     1      42.493 -11.565  -0.698  1.00  0.00     0.009 A 
BRANCH  29  33
HETATM   33  O   UNL     1      41.086 -15.332  -1.790  1.00  0.00    -0.356 OA
HETATM   34  C   UNL     1      40.622 -15.408  -3.132  1.00  0.00     0.210 C 
ENDBRANCH  29  33
ENDBRANCH  26  27
ENDBRANCH  23  26
ENDBRANCH   4  22
TORSDOF 8
ENDMDL
MODEL 6
REMARK VINA RESULT:      -8.4      6.165     10.277
REMARK  8 active torsions:
REMARK  status: ('A' for Active; 'I' for Inactive)
REMARK    1  A    between atoms: C_6  and  N_7 
REMARK       I    between atoms: N_7  and  C_8 
REMARK    2  A    between atoms: C_8  and  C_9 
REMARK    3  A    between atoms: C_9  and  N_10 
REMARK    4  A    between atoms: C_13  and  C_14 
REMARK       I    between atoms: C_14  and  N_15 
REMARK    5  A    between atoms: N_15  and  C_16 
REMARK    6  A    between atoms: C_16  and  C_17 
REMARK    7  A    between atoms: C_19  and  O_20 
REMARK    8  A    between atoms: C_26  and  N_27 
ROOT
HETATM    1  N   UNL     1      41.173 -14.913   3.174  1.00  0.00    -0.248 N 
HETATM    2  N   UNL     1      42.252 -14.134   2.945  1.00  0.00     0.007 NA
HETATM    3  N   UNL     1      42.202 -13.740   1.684  1.00  0.00    -0.150 NA
HETATM    4  C   UNL     1      41.120 -14.339   1.081  1.00  0.00     0.186 A 
HETATM    5  C   UNL     1      40.423 -15.079   2.031  1.00  0.00     0.151 A 
ENDROOT
BRANCH   1   6
HETATM    6  C   UNL     1      41.027 -15.524   4.477  1.00  0.00     0.251 C 
BRANCH   6   7
HETATM    7  C   UNL     1      41.528 -16.957   4.534  1.00  0.00     0.241 C 
HETATM    8  N   UNL     1      42.611 -17.213   3.710  1.00  0.00    -0.326 N 
HETATM    9  H   UNL     1      43.101 -16.395   3.346  1.00  0.00     0.169 HD
HETATM   10  O   UNL     1      40.923 -17.788   5.206  1.00  0.00    -0.271 OA
BRANCH   8  11
HETATM   11  C   UNL     1      43.184 -18.459   3.381  1.00  0.00     0.036 A 
HETATM   12  C   UNL     1      43.909 -19.249   4.272  1.00  0.00     0.053 A 
HETATM   13  C   UNL     1      44.401 -20.498   3.870  1.00  0.00     0.042 A 
HETATM   14  C   UNL     1      44.182 -20.977   2.569  1.00  0.00    -0.040 A 
HETATM   15 CL   UNL     1      45.274 -21.434   5.033  1.00  0.00    -0.084 Cl
HETATM   16  C   UNL     1      44.680 -22.321   2.117  1.00  0.00     0.050 C 
HETATM   17  C   UNL     1      43.457 -20.175   1.679  1.00  0.00     0.011 A 
HETATM   18  C   UNL     1      42.964 -18.931   2.083  1.00  0.00     0.030 A 
ENDBRANCH   8  11
ENDBRANCH   6   7
ENDBRANCH   1   6
BRANCH   5  19
HETATM   19  N   UNL     1      39.281 -15.812   1.973  1.00  0.00    -0.382 N 
HETATM   20  H   UNL     1      39.348 -16.829   2.029  1.00  0.00     0.157 HD
HETATM   21  H   UNL     1      38.513 -15.549   1.355  1.00  0.00     0.157 HD
ENDBRANCH   5  19
BRANCH   4  22
HETATM   22  C   UNL     1      40.848 -14.165  -0.339  1.00  0.00     0.275 C 
HETATM   23  N   UNL     1      41.966 -13.991  -1.128  1.00  0.00    -0.351 N 
HETATM   24  H   UNL     1      42.879 -13.954  -0.690  1.00  0.00     0.163 HD
HETATM   25  O   UNL     1      39.709 -14.138  -0.796  1.00  0.00    -0.266 OA
BRANCH  23  26
HETATM   26  C   UNL     1      41.853 -13.769  -2.550  1.00  0.00     0.161 C 
BRANCH  26  27
HETATM   27  C   UNL     1      42.179 -12.343  -2.911  1.00  0.00    -0.038 A 
HETATM   28  C   UNL     1      42.803 -11.502  -1.971  1.00  0.00     0.045 A 
HETATM   29  C   UNL     1      43.089 -10.172  -2.283  1.00  0.00     0.068 A 
HETATM   30  C   UNL     1      42.752  -9.680  -3.545  1.00  0.00     0.037 A 
HETATM   31  C   UNL     1      42.134 -10.503  -4.488  1.00  0.00     0.003 A 
HETATM   32  C   UNL     1      41.850 -11.831  -4.173  1.00  0.00     0.009 A 
BRANCH  29  33
HETATM   33  O   UNL     1      43.686  -9.261  -1.457  1.00  0.00    -0.356 OA
HETATM   34  C   UNL     1      43.029  -8.976  -0.228  1.00  0.00     0.210 C 
ENDBRANCH  29  33
ENDBRANCH  26  27
ENDBRANCH  23  26
ENDBRANCH   4  22
TORSDOF 8
ENDMDL
MODEL 7
REMARK VINA RESULT:      -8.4      3.379      9.507
REMARK  8 active torsions:
REMARK  status: ('A' for Active; 'I' for Inactive)
REMARK    1  A    between atoms: C_6  and  N_7 
REMARK       I    between atoms: N_7  and  C_8 
REMARK    2  A    between atoms: C_8  and  C_9 
REMARK    3  A    between atoms: C_9  and  N_10 
REMARK    4  A    between atoms: C_13  and  C_14 
REMARK       I    between atoms: C_14  and  N_15 
REMARK    5  A    between atoms: N_15  and  C_16 
REMARK    6  A    between atoms: C_16  and  C_17 
REMARK    7  A    between atoms: C_19  and  O_20 
REMARK    8  A    between atoms: C_26  and  N_27 
ROOT
HETATM    1  N   UNL     1      39.837 -13.252   4.435  1.00  0.00    -0.248 N 
HETATM    2  N   UNL     1      39.766 -12.007   3.918  1.00  0.00     0.007 NA
HETATM    3  N   UNL     1      39.795 -11.152   4.924  1.00  0.00    -0.150 NA
HETATM    4  C   UNL     1      39.806 -11.863   6.103  1.00  0.00     0.186 A 
HETATM    5  C   UNL     1      39.863 -13.221   5.812  1.00  0.00     0.151 A 
ENDROOT
BRANCH   1   6
HETATM    6  C   UNL     1      39.762 -14.380   3.534  1.00  0.00     0.251 C 
BRANCH   6   7
HETATM    7  C   UNL     1      41.061 -15.161   3.430  1.00  0.00     0.241 C 
HETATM    8  N   UNL     1      40.934 -16.514   3.697  1.00  0.00    -0.326 N 
HETATM    9  H   UNL     1      39.982 -16.883   3.696  1.00  0.00     0.169 HD
HETATM   10  O   UNL     1      42.114 -14.567   3.212  1.00  0.00    -0.271 OA
BRANCH   8  11
HETATM   11  C   UNL     1      41.955 -17.469   3.878  1.00  0.00     0.036 A 
HETATM   12  C   UNL     1      42.378 -17.939   5.121  1.00  0.00     0.053 A 
HETATM   13  C   UNL     1      43.368 -18.927   5.203  1.00  0.00     0.042 A 
HETATM   14  C   UNL     1      43.958 -19.459   4.045  1.00  0.00    -0.040 A 
HETATM   15 CL   UNL     1      43.829 -19.480   6.776  1.00  0.00    -0.084 Cl
HETATM   16  C   UNL     1      45.007 -20.533   4.103  1.00  0.00     0.050 C 
HETATM   17  C   UNL     1      43.531 -18.977   2.802  1.00  0.00     0.011 A 
HETATM   18  C   UNL     1      42.541 -17.994   2.722  1.00  0.00     0.030 A 
ENDBRANCH   8  11
ENDBRANCH   6   7
ENDBRANCH   1   6
BRANCH   5  19
HETATM   19  N   UNL     1      39.937 -14.330   6.594  1.00  0.00    -0.382 N 
HETATM   20  H   UNL     1      40.641 -14.362   7.334  1.00  0.00     0.157 HD
HETATM   21  H   UNL     1      39.800 -15.263   6.205  1.00  0.00     0.157 HD
ENDBRANCH   5  19
BRANCH   4  22
HETATM   22  C   UNL     1      39.754 -11.193   7.395  1.00  0.00     0.275 C 
HETATM   23  N   UNL     1      40.939 -11.196   8.101  1.00  0.00    -0.351 N 
HETATM   24  H   UNL     1      41.741 -11.680   7.716  1.00  0.00     0.163 HD
HETATM   25  O   UNL     1      38.723 -10.695   7.841  1.00  0.00    -0.266 OA
BRANCH  23  26
HETATM   26  C   UNL     1      41.031 -10.604   9.414  1.00  0.00     0.161 C 
BRANCH  26  27
HETATM   27  C   UNL     1      42.442 -10.650   9.941  1.00  0.00    -0.038 A 
HETATM   28  C   UNL     1      43.501 -11.012   9.087  1.00  0.00     0.045 A 
HETATM   29  C   UNL     1      44.811 -11.082   9.567  1.00  0.00     0.068 A 
HETATM   30  C   UNL     1      45.062 -10.788  10.909  1.00  0.00     0.037 A 
HETATM   31  C   UNL     1      44.021 -10.427  11.765  1.00  0.00     0.003 A 
HETATM   32  C   UNL     1      42.715 -10.357  11.283  1.00  0.00     0.009 A 
BRANCH  29  33
HETATM   33  O   UNL     1      45.918 -11.423   8.841  1.00  0.00    -0.356 OA
HETATM   34  C   UNL     1      45.880 -12.667   8.153  1.00  0.00     0.210 C 
ENDBRANCH  29  33
ENDBRANCH  26  27
ENDBRANCH  23  26
ENDBRANCH   4  22
TORSDOF 8
ENDMDL
MODEL 8
REMARK VINA RESULT:      -8.1      2.496      3.261
REMARK  8 active torsions:
REMARK  status: ('A' for Active; 'I' for Inactive)
REMARK    1  A    between atoms: C_6  and  N_7 
REMARK       I    between atoms: N_7  and  C_8 
REMARK    2  A    between atoms: C_8  and  C_9 
REMARK    3  A    between atoms: C_9  and  N_10 
REMARK    4  A    between atoms: C_13  and  C_14 
REMARK       I    between atoms: C_14  and  N_15 
REMARK    5  A    between atoms: N_15  and  C_16 
REMARK    6  A    between atoms: C_16  and  C_17 
REMARK    7  A    between atoms: C_19  and  O_20 
REMARK    8  A    between atoms: C_26  and  N_27 
ROOT
HETATM    1  N   UNL     1      40.773 -12.011   5.072  1.00  0.00    -0.248 N 
HETATM    2  N   UNL     1      40.392 -13.043   5.855  1.00  0.00     0.007 NA
HETATM    3  N   UNL     1      40.719 -14.162   5.232  1.00  0.00    -0.150 NA
HETATM    4  C   UNL     1      41.244 -13.840   4.001  1.00  0.00     0.186 A 
HETATM    5  C   UNL     1      41.316 -12.456   3.887  1.00  0.00     0.151 A 
ENDROOT
BRANCH   1   6
HETATM    6  C   UNL     1      40.470 -10.666   5.507  1.00  0.00     0.251 C 
BRANCH   6   7
HETATM    7  C   UNL     1      41.381 -10.167   6.615  1.00  0.00     0.241 C 
HETATM    8  N   UNL     1      41.473 -11.018   7.702  1.00  0.00    -0.326 N 
HETATM    9  H   UNL     1      41.131 -11.970   7.557  1.00  0.00     0.169 HD
HETATM   10  O   UNL     1      41.892  -9.053   6.529  1.00  0.00    -0.271 OA
BRANCH   8  11
HETATM   11  C   UNL     1      42.063 -10.772   8.958  1.00  0.00     0.036 A 
HETATM   12  C   UNL     1      43.388 -11.069   9.275  1.00  0.00     0.053 A 
HETATM   13  C   UNL     1      43.903 -10.744  10.538  1.00  0.00     0.042 A 
HETATM   14  C   UNL     1      43.102 -10.121  11.508  1.00  0.00    -0.040 A 
HETATM   15 CL   UNL     1      45.561 -11.121  10.854  1.00  0.00    -0.084 Cl
HETATM   16  C   UNL     1      43.634  -9.743  12.861  1.00  0.00     0.050 C 
HETATM   17  C   UNL     1      41.771  -9.832  11.183  1.00  0.00     0.011 A 
HETATM   18  C   UNL     1      41.260 -10.153   9.922  1.00  0.00     0.030 A 
ENDBRANCH   8  11
ENDBRANCH   6   7
ENDBRANCH   1   6
BRANCH   5  19
HETATM   19  N   UNL     1      41.786 -11.633   2.912  1.00  0.00    -0.382 N 
HETATM   20  H   UNL     1      42.263 -10.773   3.185  1.00  0.00     0.157 HD
HETATM   21  H   UNL     1      41.263 -11.481   2.050  1.00  0.00     0.157 HD
ENDBRANCH   5  19
BRANCH   4  22
HETATM   22  C   UNL     1      41.622 -14.869   3.042  1.00  0.00     0.275 C 
HETATM   23  N   UNL     1      41.398 -16.164   3.461  1.00  0.00    -0.351 N 
HETATM   24  H   UNL     1      41.035 -16.326   4.393  1.00  0.00     0.163 HD
HETATM   25  O   UNL     1      42.135 -14.607   1.958  1.00  0.00    -0.266 OA
BRANCH  23  26
HETATM   26  C   UNL     1      41.756 -17.292   2.634  1.00  0.00     0.161 C 
BRANCH  26  27
HETATM   27  C   UNL     1      42.812 -18.142   3.292  1.00  0.00    -0.038 A 
HETATM   28  C   UNL     1      43.290 -19.298   2.646  1.00  0.00     0.045 A 
HETATM   29  C   UNL     1      44.251 -20.108   3.254  1.00  0.00     0.068 A 
HETATM   30  C   UNL     1      44.739 -19.759   4.514  1.00  0.00     0.037 A 
HETATM   31  C   UNL     1      44.275 -18.615   5.165  1.00  0.00     0.003 A 
HETATM   32  C   UNL     1      43.316 -17.809   4.556  1.00  0.00     0.009 A 
BRANCH  29  33
HETATM   33  O   UNL     1      44.788 -21.252   2.731  1.00  0.00    -0.356 OA
HETATM   34  C   UNL     1      44.096 -21.850   1.642  1.00  0.00     0.210 C 
ENDBRANCH  29  33
ENDBRANCH  26  27
ENDBRANCH  23  26
ENDBRANCH   4  22
TORSDOF 8
ENDMDL
MODEL 9
REMARK VINA RESULT:      -8.0      5.330      9.380
REMARK  8 active torsions:
REMARK  status: ('A' for Active; 'I' for Inactive)
REMARK    1  A    between atoms: C_6  and  N_7 
REMARK       I    between atoms: N_7  and  C_8 
REMARK    2  A    between atoms: C_8  and  C_9 
REMARK    3  A    between atoms: C_9  and  N_10 
REMARK    4  A    between atoms: C_13  and  C_14 
REMARK       I    between atoms: C_14  and  N_15 
REMARK    5  A    between atoms: N_15  and  C_16 
REMARK    6  A    between atoms: C_16  and  C_17 
REMARK    7  A    between atoms: C_19  and  O_20 
REMARK    8  A    between atoms: C_26  and  N_27 
ROOT
HETATM    1  N   UNL     1      43.252 -14.939   6.164  1.00  0.00    -0.248 N 
HETATM    2  N   UNL     1      44.242 -14.329   5.479  1.00  0.00     0.007 NA
HETATM    3  N   UNL     1      43.681 -13.504   4.612  1.00  0.00    -0.150 NA
HETATM    4  C   UNL     1      42.314 -13.648   4.693  1.00  0.00     0.186 A 
HETATM    5  C   UNL     1      42.013 -14.548   5.708  1.00  0.00     0.151 A 
ENDROOT
BRANCH   1   6
HETATM    6  C   UNL     1      43.606 -15.945   7.141  1.00  0.00     0.251 C 
BRANCH   6   7
HETATM    7  C   UNL     1      44.219 -17.194   6.531  1.00  0.00     0.241 C 
HETATM    8  N   UNL     1      43.814 -17.449   5.232  1.00  0.00    -0.326 N 
HETATM    9  H   UNL     1      43.358 -16.676   4.745  1.00  0.00     0.169 HD
HETATM   10  O   UNL     1      44.934 -17.920   7.217  1.00  0.00    -0.271 OA
BRANCH   8  11
HETATM   11  C   UNL     1      44.034 -18.607   4.459  1.00  0.00     0.036 A 
HETATM   12  C   UNL     1      44.453 -19.830   4.979  1.00  0.00     0.053 A 
HETATM   13  C   UNL     1      44.598 -20.943   4.140  1.00  0.00     0.042 A 
HETATM   14  C   UNL     1      44.333 -20.852   2.764  1.00  0.00    -0.040 A 
HETATM   15 CL   UNL     1      45.101 -22.435   4.857  1.00  0.00    -0.084 Cl
HETATM   16  C   UNL     1      44.460 -22.033   1.845  1.00  0.00     0.050 C 
HETATM   17  C   UNL     1      43.918 -19.618   2.249  1.00  0.00     0.011 A 
HETATM   18  C   UNL     1      43.770 -18.510   3.088  1.00  0.00     0.030 A 
ENDBRANCH   8  11
ENDBRANCH   6   7
ENDBRANCH   1   6
BRANCH   5  19
HETATM   19  N   UNL     1      40.838 -15.002   6.220  1.00  0.00    -0.382 N 
HETATM   20  H   UNL     1      40.025 -14.384   6.205  1.00  0.00     0.157 HD
HETATM   21  H   UNL     1      40.815 -15.584   7.058  1.00  0.00     0.157 HD
ENDBRANCH   5  19
BRANCH   4  22
HETATM   22  C   UNL     1      41.420 -12.927   3.797  1.00  0.00     0.275 C 
HETATM   23  N   UNL     1      42.038 -12.316   2.725  1.00  0.00    -0.351 N 
HETATM   24  H   UNL     1      43.047 -12.365   2.644  1.00  0.00     0.163 HD
HETATM   25  O   UNL     1      40.212 -12.838   3.999  1.00  0.00    -0.266 OA
BRANCH  23  26
HETATM   26  C   UNL     1      41.286 -11.535   1.773  1.00  0.00     0.161 C 
BRANCH  26  27
HETATM   27  C   UNL     1      41.793 -11.744   0.369  1.00  0.00    -0.038 A 
HETATM   28  C   UNL     1      42.281 -10.653  -0.374  1.00  0.00     0.045 A 
HETATM   29  C   UNL     1      42.731 -10.827  -1.684  1.00  0.00     0.068 A 
HETATM   30  C   UNL     1      42.695 -12.101  -2.254  1.00  0.00     0.037 A 
HETATM   31  C   UNL     1      42.215 -13.192  -1.527  1.00  0.00     0.003 A 
HETATM   32  C   UNL     1      41.766 -13.015  -0.220  1.00  0.00     0.009 A 
BRANCH  29  33
HETATM   33  O   UNL     1      43.221  -9.850  -2.505  1.00  0.00    -0.356 OA
HETATM   34  C   UNL     1      42.929  -8.504  -2.151  1.00  0.00     0.210 C 
ENDBRANCH  29  33
ENDBRANCH  26  27
ENDBRANCH  23  26
ENDBRANCH   4  22
TORSDOF 8
ENDMDL
MODEL 10
REMARK VINA RESULT:      -8.0      5.163      8.993
REMARK  8 active torsions:
REMARK  status: ('A' for Active; 'I' for Inactive)
REMARK    1  A    between atoms: C_6  and  N_7 
REMARK       I    between atoms: N_7  and  C_8 
REMARK    2  A    between atoms: C_8  and  C_9 
REMARK    3  A    between atoms: C_9  and  N_10 
REMARK    4  A    between atoms: C_13  and  C_14 
REMARK       I    between atoms: C_14  and  N_15 
REMARK    5  A    between atoms: N_15  and  C_16 
REMARK    6  A    between atoms: C_16  and  C_17 
REMARK    7  A    between atoms: C_19  and  O_20 
REMARK    8  A    between atoms: C_26  and  N_27 
ROOT
HETATM    1  N   UNL     1      42.638 -14.717   5.588  1.00  0.00    -0.248 N 
HETATM    2  N   UNL     1      43.316 -14.135   4.576  1.00  0.00     0.007 NA
HETATM    3  N   UNL     1      42.431 -13.592   3.759  1.00  0.00    -0.150 NA
HETATM    4  C   UNL     1      41.169 -13.900   4.214  1.00  0.00     0.186 A 
HETATM    5  C   UNL     1      41.277 -14.601   5.410  1.00  0.00     0.151 A 
ENDROOT
BRANCH   1   6
HETATM    6  C   UNL     1      43.384 -15.439   6.595  1.00  0.00     0.251 C 
BRANCH   6   7
HETATM    7  C   UNL     1      44.031 -16.710   6.074  1.00  0.00     0.241 C 
HETATM    8  N   UNL     1      43.600 -17.094   4.816  1.00  0.00    -0.326 N 
HETATM    9  H   UNL     1      43.096 -16.385   4.280  1.00  0.00     0.169 HD
HETATM   10  O   UNL     1      44.797 -17.344   6.796  1.00  0.00    -0.271 OA
BRANCH   8  11
HETATM   11  C   UNL     1      43.846 -18.305   4.138  1.00  0.00     0.036 A 
HETATM   12  C   UNL     1      44.365 -19.450   4.741  1.00  0.00     0.053 A 
HETATM   13  C   UNL     1      44.531 -20.627   3.998  1.00  0.00     0.042 A 
HETATM   14  C   UNL     1      44.187 -20.679   2.638  1.00  0.00    -0.040 A 
HETATM   15 CL   UNL     1      45.159 -22.016   4.815  1.00  0.00    -0.084 Cl
HETATM   16  C   UNL     1      44.335 -21.932   1.823  1.00  0.00     0.050 C 
HETATM   17  C   UNL     1      43.672 -19.522   2.039  1.00  0.00     0.011 A 
HETATM   18  C   UNL     1      43.503 -18.351   2.783  1.00  0.00     0.030 A 
ENDBRANCH   8  11
ENDBRANCH   6   7
ENDBRANCH   1   6
BRANCH   5  19
HETATM   19  N   UNL     1      40.354 -15.093   6.277  1.00  0.00    -0.382 N 
HETATM   20  H   UNL     1      40.675 -15.641   7.077  1.00  0.00     0.157 HD
HETATM   21  H   UNL     1      39.457 -15.453   5.949  1.00  0.00     0.157 HD
ENDBRANCH   5  19
BRANCH   4  22
HETATM   22  C   UNL     1      39.977 -13.511   3.472  1.00  0.00     0.275 C 
HETATM   23  N   UNL     1      39.719 -14.268   2.348  1.00  0.00    -0.351 N 
HETATM   24  H   UNL     1      40.369 -14.999   2.085  1.00  0.00     0.163 HD
HETATM   25  O   UNL     1      39.275 -12.558   3.800  1.00  0.00    -0.266 OA
BRANCH  23  26
HETATM   26  C   UNL     1      38.594 -13.977   1.491  1.00  0.00     0.161 C 
BRANCH  26  27
HETATM   27  C   UNL     1      39.019 -13.843   0.052  1.00  0.00    -0.038 A 
HETATM   28  C   UNL     1      40.377 -13.653  -0.267  1.00  0.00     0.045 A 
HETATM   29  C   UNL     1      40.783 -13.503  -1.595  1.00  0.00     0.068 A 
HETATM   30  C   UNL     1      39.825 -13.546  -2.609  1.00  0.00     0.037 A 
HETATM   31  C   UNL     1      38.476 -13.735  -2.307  1.00  0.00     0.003 A 
HETATM   32  C   UNL     1      38.074 -13.884  -0.981  1.00  0.00     0.009 A 
BRANCH  29  33
HETATM   33  O   UNL     1      42.065 -13.310  -2.029  1.00  0.00    -0.356 OA
HETATM   34  C   UNL     1      42.722 -12.127  -1.592  1.00  0.00     0.210 C 
ENDBRANCH  29  33
ENDBRANCH  26  27
ENDBRANCH  23  26
ENDBRANCH   4  22
TORSDOF 8
ENDMDL
