MODEL 1
REMARK VINA RESULT:      -8.6      0.000      0.000
REMARK  5 active torsions:
REMARK  status: ('A' for Active; 'I' for Inactive)
REMARK    1  A    between atoms: C_3  and  O_4 
REMARK    2  A    between atoms: O_4  and  C_5 
REMARK    3  A    between atoms: C_5  and  C_6 
REMARK       I    between atoms: C_6  and  N_7 
REMARK    4  A    between atoms: N_7  and  N_8 
REMARK    5  A    between atoms: C_9  and  C_10 
ROOT
HETATM    1  C   UNL     1      44.773 -13.821   7.589  1.00  0.00     0.261 C 
HETATM    2  N   UNL     1      44.015 -14.988   7.485  1.00  0.00    -0.246 N 
HETATM    3  O   UNL     1      45.709 -13.519   6.855  1.00  0.00    -0.269 OA
HETATM    4  H   UNL     1      43.242 -15.160   8.118  1.00  0.00     0.192 HD
ENDROOT
BRANCH   2   5
HETATM    5  N   UNL     1      44.299 -15.902   6.512  1.00  0.00    -0.184 NA
HETATM    6  C   UNL     1      43.372 -16.773   6.271  1.00  0.00     0.153 C 
BRANCH   6   7
HETATM    7  C   UNL     1      43.558 -17.795   5.259  1.00  0.00     0.018 A 
HETATM    8  C   UNL     1      43.558 -17.581   3.840  1.00  0.00     0.004 A 
HETATM    9  C   UNL     1      43.776 -18.816   3.230  1.00  0.00     0.043 A 
HETATM   10  C   UNL     1      43.400 -16.448   3.012  1.00  0.00     0.014 A 
HETATM   11  C   UNL     1      43.844 -18.978   1.841  1.00  0.00     0.030 A 
HETATM   12  N   UNL     1      43.898 -19.746   4.235  1.00  0.00    -0.358 N 
HETATM   13  C   UNL     1      43.685 -17.839   1.047  1.00  0.00     0.002 A 
HETATM   14  C   UNL     1      43.466 -16.591   1.621  1.00  0.00     0.001 A 
HETATM   15  H   UNL     1      44.062 -20.732   4.081  1.00  0.00     0.166 HD
HETATM   16  C   UNL     1      43.766 -19.152   5.464  1.00  0.00     0.018 A 
HETATM   17  C   UNL     1      43.855 -19.952   6.717  1.00  0.00     0.069 C 
ENDBRANCH   6   7
ENDBRANCH   2   5
BRANCH   1  18
HETATM   18  C   UNL     1      44.280 -12.943   8.743  1.00  0.00     0.280 C 
BRANCH  18  19
HETATM   19  O   UNL     1      44.210 -11.563   8.396  1.00  0.00    -0.341 OA
BRANCH  19  20
HETATM   20  C   UNL     1      43.591 -10.848   9.390  1.00  0.00     0.081 A 
HETATM   21  C   UNL     1      44.283 -10.535  10.572  1.00  0.00    -0.027 A 
HETATM   22  C   UNL     1      45.706 -10.957  10.796  1.00  0.00     0.051 C 
HETATM   23  C   UNL     1      43.605  -9.839  11.583  1.00  0.00     0.028 A 
HETATM   24  C   UNL     1      42.285  -9.430  11.390  1.00  0.00     0.012 A 
HETATM   25  C   UNL     1      41.624  -9.698  10.193  1.00  0.00     0.028 A 
HETATM   26 BR   UNL     1      41.388  -8.493  12.766  1.00  0.00    -0.051 Br
HETATM   27  C   UNL     1      42.277 -10.398   9.170  1.00  0.00    -0.027 A 
HETATM   28  C   UNL     1      41.564 -10.687   7.880  1.00  0.00     0.051 C 
ENDBRANCH  19  20
ENDBRANCH  18  19
ENDBRANCH   1  18
TORSDOF 5
ENDMDL
MODEL 2
REMARK VINA RESULT:      -8.6      1.227      2.158
REMARK  5 active torsions:
REMARK  status: ('A' for Active; 'I' for Inactive)
REMARK    1  A    between atoms: C_3  and  O_4 
REMARK    2  A    between atoms: O_4  and  C_5 
REMARK    3  A    between atoms: C_5  and  C_6 
REMARK       I    between atoms: C_6  and  N_7 
REMARK    4  A    between atoms: N_7  and  N_8 
REMARK    5  A    between atoms: C_9  and  C_10 
ROOT
HETATM    1  C   UNL     1      44.640 -13.632   7.272  1.00  0.00     0.261 C 
HETATM    2  N   UNL     1      43.462 -14.243   6.839  1.00  0.00    -0.246 N 
HETATM    3  O   UNL     1      45.715 -13.671   6.681  1.00  0.00    -0.269 OA
HETATM    4  H   UNL     1      42.606 -14.151   7.374  1.00  0.00     0.192 HD
ENDROOT
BRANCH   2   5
HETATM    5  N   UNL     1      43.451 -14.957   5.676  1.00  0.00    -0.184 NA
HETATM    6  C   UNL     1      42.799 -16.075   5.709  1.00  0.00     0.153 C 
BRANCH   6   7
HETATM    7  C   UNL     1      42.715 -16.921   4.534  1.00  0.00     0.018 A 
HETATM    8  C   UNL     1      43.474 -18.117   4.304  1.00  0.00     0.004 A 
HETATM    9  C   UNL     1      43.088 -18.627   3.065  1.00  0.00     0.043 A 
HETATM   10  C   UNL     1      44.453 -18.822   5.039  1.00  0.00     0.014 A 
HETATM   11  C   UNL     1      43.626 -19.800   2.524  1.00  0.00     0.030 A 
HETATM   12  N   UNL     1      42.137 -17.775   2.557  1.00  0.00    -0.358 N 
HETATM   13  C   UNL     1      44.591 -20.478   3.274  1.00  0.00     0.002 A 
HETATM   14  C   UNL     1      45.001 -19.997   4.514  1.00  0.00     0.001 A 
HETATM   15  H   UNL     1      41.678 -17.901   1.665  1.00  0.00     0.166 HD
HETATM   16  C   UNL     1      41.900 -16.739   3.424  1.00  0.00     0.018 A 
HETATM   17  C   UNL     1      40.911 -15.675   3.099  1.00  0.00     0.069 C 
ENDBRANCH   6   7
ENDBRANCH   2   5
BRANCH   1  18
HETATM   18  C   UNL     1      44.422 -12.887   8.592  1.00  0.00     0.280 C 
BRANCH  18  19
HETATM   19  O   UNL     1      44.167 -11.497   8.406  1.00  0.00    -0.341 OA
BRANCH  19  20
HETATM   20  C   UNL     1      43.632 -10.950   9.545  1.00  0.00     0.081 A 
HETATM   21  C   UNL     1      44.438 -10.749  10.678  1.00  0.00    -0.027 A 
HETATM   22  C   UNL     1      45.894 -11.113  10.694  1.00  0.00     0.051 C 
HETATM   23  C   UNL     1      43.847 -10.226  11.837  1.00  0.00     0.028 A 
HETATM   24  C   UNL     1      42.497  -9.872  11.840  1.00  0.00     0.012 A 
HETATM   25  C   UNL     1      41.718 -10.025  10.694  1.00  0.00     0.028 A 
HETATM   26 BR   UNL     1      41.719  -9.169  13.414  1.00  0.00    -0.051 Br
HETATM   27  C   UNL     1      42.283 -10.552   9.525  1.00  0.00    -0.027 A 
HETATM   28  C   UNL     1      41.444 -10.717   8.290  1.00  0.00     0.051 C 
ENDBRANCH  19  20
ENDBRANCH  18  19
ENDBRANCH   1  18
TORSDOF 5
ENDMDL
MODEL 3
REMARK VINA RESULT:      -8.5      1.171      2.732
REMARK  5 active torsions:
REMARK  status: ('A' for Active; 'I' for Inactive)
REMARK    1  A    between atoms: C_3  and  O_4 
REMARK    2  A    between atoms: O_4  and  C_5 
REMARK    3  A    between atoms: C_5  and  C_6 
REMARK       I    between atoms: C_6  and  N_7 
REMARK    4  A    between atoms: N_7  and  N_8 
REMARK    5  A    between atoms: C_9  and  C_10 
ROOT
HETATM    1  C   UNL     1      44.681 -13.724   7.359  1.00  0.00     0.261 C 
HETATM    2  N   UNL     1      43.577 -14.474   6.953  1.00  0.00    -0.246 N 
HETATM    3  O   UNL     1      45.759 -13.680   6.774  1.00  0.00    -0.269 OA
HETATM    4  H   UNL     1      42.711 -14.445   7.479  1.00  0.00     0.192 HD
ENDROOT
BRANCH   2   5
HETATM    5  N   UNL     1      43.649 -15.242   5.827  1.00  0.00    -0.184 NA
HETATM    6  C   UNL     1      42.686 -16.091   5.663  1.00  0.00     0.153 C 
BRANCH   6   7
HETATM    7  C   UNL     1      42.654 -16.962   4.503  1.00  0.00     0.018 A 
HETATM    8  C   UNL     1      43.447 -18.143   4.318  1.00  0.00     0.004 A 
HETATM    9  C   UNL     1      43.105 -18.688   3.080  1.00  0.00     0.043 A 
HETATM   10  C   UNL     1      44.423 -18.809   5.092  1.00  0.00     0.014 A 
HETATM   11  C   UNL     1      43.686 -19.858   2.577  1.00  0.00     0.030 A 
HETATM   12  N   UNL     1      42.147 -17.870   2.531  1.00  0.00    -0.358 N 
HETATM   13  C   UNL     1      44.647 -20.496   3.365  1.00  0.00     0.002 A 
HETATM   14  C   UNL     1      45.013 -19.981   4.605  1.00  0.00     0.001 A 
HETATM   15  H   UNL     1      41.715 -18.024   1.630  1.00  0.00     0.166 HD
HETATM   16  C   UNL     1      41.864 -16.822   3.370  1.00  0.00     0.018 A 
HETATM   17  C   UNL     1      40.857 -15.790   2.998  1.00  0.00     0.069 C 
ENDBRANCH   6   7
ENDBRANCH   2   5
BRANCH   1  18
HETATM   18  C   UNL     1      44.376 -12.941   8.639  1.00  0.00     0.280 C 
BRANCH  18  19
HETATM   19  O   UNL     1      44.316 -11.533   8.425  1.00  0.00    -0.341 OA
BRANCH  19  20
HETATM   20  C   UNL     1      43.687 -10.913   9.475  1.00  0.00     0.081 A 
HETATM   21  C   UNL     1      42.346 -10.511   9.358  1.00  0.00    -0.027 A 
HETATM   22  C   UNL     1      41.553 -10.740   8.105  1.00  0.00     0.051 C 
HETATM   23  C   UNL     1      41.749  -9.844  10.438  1.00  0.00     0.028 A 
HETATM   24  C   UNL     1      42.466  -9.630  11.615  1.00  0.00     0.012 A 
HETATM   25  C   UNL     1      43.780 -10.081  11.741  1.00  0.00     0.028 A 
HETATM   26 BR   UNL     1      41.644  -8.727  13.059  1.00  0.00    -0.051 Br
HETATM   27  C   UNL     1      44.400 -10.744  10.675  1.00  0.00    -0.027 A 
HETATM   28  C   UNL     1      45.816 -11.229  10.810  1.00  0.00     0.051 C 
ENDBRANCH  19  20
ENDBRANCH  18  19
ENDBRANCH   1  18
TORSDOF 5
ENDMDL
MODEL 4
REMARK VINA RESULT:      -8.4      6.644      9.061
REMARK  5 active torsions:
REMARK  status: ('A' for Active; 'I' for Inactive)
REMARK    1  A    between atoms: C_3  and  O_4 
REMARK    2  A    between atoms: O_4  and  C_5 
REMARK    3  A    between atoms: C_5  and  C_6 
REMARK       I    between atoms: C_6  and  N_7 
REMARK    4  A    between atoms: N_7  and  N_8 
REMARK    5  A    between atoms: C_9  and  C_10 
ROOT
HETATM    1  C   UNL     1      41.266 -15.748   1.241  1.00  0.00     0.261 C 
HETATM    2  N   UNL     1      41.608 -15.746   2.594  1.00  0.00    -0.246 N 
HETATM    3  O   UNL     1      41.290 -16.731   0.508  1.00  0.00    -0.269 OA
HETATM    4  H   UNL     1      41.545 -14.896   3.142  1.00  0.00     0.192 HD
ENDROOT
BRANCH   2   5
HETATM    5  N   UNL     1      42.014 -16.901   3.197  1.00  0.00    -0.184 NA
HETATM    6  C   UNL     1      43.295 -17.073   3.277  1.00  0.00     0.153 C 
BRANCH   6   7
HETATM    7  C   UNL     1      43.847 -18.263   3.898  1.00  0.00     0.018 A 
HETATM    8  C   UNL     1      43.941 -19.560   3.291  1.00  0.00     0.004 A 
HETATM    9  C   UNL     1      44.538 -20.413   4.218  1.00  0.00     0.043 A 
HETATM   10  C   UNL     1      43.581 -20.090   2.032  1.00  0.00     0.014 A 
HETATM   11  C   UNL     1      44.792 -21.764   3.955  1.00  0.00     0.030 A 
HETATM   12  N   UNL     1      44.792 -19.670   5.346  1.00  0.00    -0.358 N 
HETATM   13  C   UNL     1      44.426 -22.262   2.701  1.00  0.00     0.002 A 
HETATM   14  C   UNL     1      43.828 -21.438   1.752  1.00  0.00     0.001 A 
HETATM   15  H   UNL     1      45.224 -20.036   6.184  1.00  0.00     0.166 HD
HETATM   16  C   UNL     1      44.381 -18.372   5.175  1.00  0.00     0.018 A 
HETATM   17  C   UNL     1      44.543 -17.366   6.259  1.00  0.00     0.069 C 
ENDBRANCH   6   7
ENDBRANCH   2   5
BRANCH   1  18
HETATM   18  C   UNL     1      40.839 -14.352   0.779  1.00  0.00     0.280 C 
BRANCH  18  19
HETATM   19  O   UNL     1      39.971 -14.386  -0.352  1.00  0.00    -0.341 OA
BRANCH  19  20
HETATM   20  C   UNL     1      40.470 -13.606  -1.364  1.00  0.00     0.081 A 
HETATM   21  C   UNL     1      40.994 -14.202  -2.524  1.00  0.00    -0.027 A 
HETATM   22  C   UNL     1      41.028 -15.691  -2.707  1.00  0.00     0.051 C 
HETATM   23  C   UNL     1      41.533 -13.374  -3.519  1.00  0.00     0.028 A 
HETATM   24  C   UNL     1      41.502 -11.987  -3.372  1.00  0.00     0.012 A 
HETATM   25  C   UNL     1      40.931 -11.402  -2.242  1.00  0.00     0.028 A 
HETATM   26 BR   UNL     1      42.234 -10.887  -4.726  1.00  0.00    -0.051 Br
HETATM   27  C   UNL     1      40.393 -12.208  -1.230  1.00  0.00    -0.027 A 
HETATM   28  C   UNL     1      39.778 -11.579  -0.013  1.00  0.00     0.051 C 
ENDBRANCH  19  20
ENDBRANCH  18  19
ENDBRANCH   1  18
TORSDOF 5
ENDMDL
MODEL 5
REMARK VINA RESULT:      -8.3      6.623      9.654
REMARK  5 active torsions:
REMARK  status: ('A' for Active; 'I' for Inactive)
REMARK    1  A    between atoms: C_3  and  O_4 
REMARK    2  A    between atoms: O_4  and  C_5 
REMARK    3  A    between atoms: C_5  and  C_6 
REMARK       I    between atoms: C_6  and  N_7 
REMARK    4  A    between atoms: N_7  and  N_8 
REMARK    5  A    between atoms: C_9  and  C_10 
ROOT
HETATM    1  C   UNL     1      40.955 -15.775   0.892  1.00  0.00     0.261 C 
HETATM    2  N   UNL     1      40.783 -15.987   2.261  1.00  0.00    -0.246 N 
HETATM    3  O   UNL     1      41.612 -16.492   0.144  1.00  0.00    -0.269 OA
HETATM    4  H   UNL     1      40.208 -15.360   2.812  1.00  0.00     0.192 HD
ENDROOT
BRANCH   2   5
HETATM    5  N   UNL     1      41.375 -17.056   2.866  1.00  0.00    -0.184 NA
HETATM    6  C   UNL     1      42.632 -16.920   3.144  1.00  0.00     0.153 C 
BRANCH   6   7
HETATM    7  C   UNL     1      43.371 -17.990   3.789  1.00  0.00     0.018 A 
HETATM    8  C   UNL     1      43.630 -19.286   3.231  1.00  0.00     0.004 A 
HETATM    9  C   UNL     1      44.374 -20.003   4.167  1.00  0.00     0.043 A 
HETATM   10  C   UNL     1      43.307 -19.919   2.010  1.00  0.00     0.014 A 
HETATM   11  C   UNL     1      44.811 -21.315   3.948  1.00  0.00     0.030 A 
HETATM   12  N   UNL     1      44.557 -19.181   5.253  1.00  0.00    -0.358 N 
HETATM   13  C   UNL     1      44.478 -21.915   2.731  1.00  0.00     0.002 A 
HETATM   14  C   UNL     1      43.736 -21.230   1.774  1.00  0.00     0.001 A 
HETATM   15  H   UNL     1      45.065 -19.444   6.087  1.00  0.00     0.166 HD
HETATM   16  C   UNL     1      43.957 -17.964   5.047  1.00  0.00     0.018 A 
HETATM   17  C   UNL     1      44.010 -16.897   6.083  1.00  0.00     0.069 C 
ENDBRANCH   6   7
ENDBRANCH   2   5
BRANCH   1  18
HETATM   18  C   UNL     1      40.202 -14.525   0.428  1.00  0.00     0.280 C 
BRANCH  18  19
HETATM   19  O   UNL     1      40.656 -14.045  -0.835  1.00  0.00    -0.341 OA
BRANCH  19  20
HETATM   20  C   UNL     1      39.617 -13.995  -1.731  1.00  0.00     0.081 A 
HETATM   21  C   UNL     1      38.601 -13.036  -1.584  1.00  0.00    -0.027 A 
HETATM   22  C   UNL     1      38.607 -12.037  -0.464  1.00  0.00     0.051 C 
HETATM   23  C   UNL     1      37.535 -13.043  -2.495  1.00  0.00     0.028 A 
HETATM   24  C   UNL     1      37.517 -13.956  -3.549  1.00  0.00     0.012 A 
HETATM   25  C   UNL     1      38.557 -14.869  -3.718  1.00  0.00     0.028 A 
HETATM   26 BR   UNL     1      36.069 -13.949  -4.766  1.00  0.00    -0.051 Br
HETATM   27  C   UNL     1      39.629 -14.888  -2.818  1.00  0.00    -0.027 A 
HETATM   28  C   UNL     1      40.750 -15.872  -3.001  1.00  0.00     0.051 C 
ENDBRANCH  19  20
ENDBRANCH  18  19
ENDBRANCH   1  18
TORSDOF 5
ENDMDL
MODEL 6
REMARK VINA RESULT:      -8.3      6.367      9.506
REMARK  5 active torsions:
REMARK  status: ('A' for Active; 'I' for Inactive)
REMARK    1  A    between atoms: C_3  and  O_4 
REMARK    2  A    between atoms: O_4  and  C_5 
REMARK    3  A    between atoms: C_5  and  C_6 
REMARK       I    between atoms: C_6  and  N_7 
REMARK    4  A    between atoms: N_7  and  N_8 
REMARK    5  A    between atoms: C_9  and  C_10 
ROOT
HETATM    1  C   UNL     1      41.015 -16.457   2.151  1.00  0.00     0.261 C 
HETATM    2  N   UNL     1      41.250 -15.104   1.904  1.00  0.00    -0.246 N 
HETATM    3  O   UNL     1      40.563 -17.255   1.337  1.00  0.00    -0.269 OA
HETATM    4  H   UNL     1      41.646 -14.508   2.623  1.00  0.00     0.192 HD
ENDROOT
BRANCH   2   5
HETATM    5  N   UNL     1      40.966 -14.573   0.680  1.00  0.00    -0.184 NA
HETATM    6  C   UNL     1      41.979 -14.394  -0.105  1.00  0.00     0.153 C 
BRANCH   6   7
HETATM    7  C   UNL     1      41.802 -13.837  -1.433  1.00  0.00     0.018 A 
HETATM    8  C   UNL     1      42.191 -12.520  -1.850  1.00  0.00     0.004 A 
HETATM    9  C   UNL     1      41.851 -12.390  -3.196  1.00  0.00     0.043 A 
HETATM   10  C   UNL     1      42.809 -11.424  -1.209  1.00  0.00     0.014 A 
HETATM   11  C   UNL     1      42.096 -11.225  -3.933  1.00  0.00     0.030 A 
HETATM   12  N   UNL     1      41.274 -13.575  -3.583  1.00  0.00    -0.358 N 
HETATM   13  C   UNL     1      42.710 -10.157  -3.274  1.00  0.00     0.002 A 
HETATM   14  C   UNL     1      43.062 -10.252  -1.931  1.00  0.00     0.001 A 
HETATM   15  H   UNL     1      40.929 -13.763  -4.515  1.00  0.00     0.166 HD
HETATM   16  C   UNL     1      41.231 -14.460  -2.535  1.00  0.00     0.018 A 
HETATM   17  C   UNL     1      40.646 -15.818  -2.699  1.00  0.00     0.069 C 
ENDBRANCH   6   7
ENDBRANCH   2   5
BRANCH   1  18
HETATM   18  C   UNL     1      41.408 -16.833   3.583  1.00  0.00     0.280 C 
BRANCH  18  19
HETATM   19  O   UNL     1      42.809 -16.720   3.819  1.00  0.00    -0.341 OA
BRANCH  19  20
HETATM   20  C   UNL     1      43.352 -17.952   4.087  1.00  0.00     0.081 A 
HETATM   21  C   UNL     1      43.931 -18.709   3.055  1.00  0.00    -0.027 A 
HETATM   22  C   UNL     1      43.985 -18.214   1.639  1.00  0.00     0.051 C 
HETATM   23  C   UNL     1      44.439 -19.980   3.359  1.00  0.00     0.028 A 
HETATM   24  C   UNL     1      44.407 -20.454   4.670  1.00  0.00     0.012 A 
HETATM   25  C   UNL     1      43.879 -19.673   5.698  1.00  0.00     0.028 A 
HETATM   26 BR   UNL     1      45.096 -22.172   5.060  1.00  0.00    -0.051 Br
HETATM   27  C   UNL     1      43.359 -18.403   5.419  1.00  0.00    -0.027 A 
HETATM   28  C   UNL     1      42.790 -17.561   6.525  1.00  0.00     0.051 C 
ENDBRANCH  19  20
ENDBRANCH  18  19
ENDBRANCH   1  18
TORSDOF 5
ENDMDL
MODEL 7
REMARK VINA RESULT:      -8.2      6.490      8.639
REMARK  5 active torsions:
REMARK  status: ('A' for Active; 'I' for Inactive)
REMARK    1  A    between atoms: C_3  and  O_4 
REMARK    2  A    between atoms: O_4  and  C_5 
REMARK    3  A    between atoms: C_5  and  C_6 
REMARK       I    between atoms: C_6  and  N_7 
REMARK    4  A    between atoms: N_7  and  N_8 
REMARK    5  A    between atoms: C_9  and  C_10 
ROOT
HETATM    1  C   UNL     1      40.019 -15.998   2.455  1.00  0.00     0.261 C 
HETATM    2  N   UNL     1      40.715 -15.917   3.662  1.00  0.00    -0.246 N 
HETATM    3  O   UNL     1      39.968 -16.991   1.735  1.00  0.00    -0.269 OA
HETATM    4  H   UNL     1      40.696 -15.066   4.213  1.00  0.00     0.192 HD
ENDROOT
BRANCH   2   5
HETATM    5  N   UNL     1      41.415 -16.994   4.121  1.00  0.00    -0.184 NA
HETATM    6  C   UNL     1      42.628 -17.105   3.684  1.00  0.00     0.153 C 
BRANCH   6   7
HETATM    7  C   UNL     1      43.471 -18.209   4.102  1.00  0.00     0.018 A 
HETATM    8  C   UNL     1      43.673 -19.432   3.379  1.00  0.00     0.004 A 
HETATM    9  C   UNL     1      44.556 -20.216   4.120  1.00  0.00     0.043 A 
HETATM   10  C   UNL     1      43.193 -19.945   2.154  1.00  0.00     0.014 A 
HETATM   11  C   UNL     1      44.983 -21.482   3.703  1.00  0.00     0.030 A 
HETATM   12  N   UNL     1      44.875 -19.504   5.252  1.00  0.00    -0.358 N 
HETATM   13  C   UNL     1      44.492 -21.965   2.487  1.00  0.00     0.002 A 
HETATM   14  C   UNL     1      43.609 -21.209   1.722  1.00  0.00     0.001 A 
HETATM   15  H   UNL     1      45.501 -19.834   5.974  1.00  0.00     0.166 HD
HETATM   16  C   UNL     1      44.229 -18.294   5.262  1.00  0.00     0.018 A 
HETATM   17  C   UNL     1      44.408 -17.338   6.389  1.00  0.00     0.069 C 
ENDBRANCH   6   7
ENDBRANCH   2   5
BRANCH   1  18
HETATM   18  C   UNL     1      39.308 -14.680   2.137  1.00  0.00     0.280 C 
BRANCH  18  19
HETATM   19  O   UNL     1      40.075 -13.828   1.292  1.00  0.00    -0.341 OA
BRANCH  19  20
HETATM   20  C   UNL     1      39.381 -13.538   0.144  1.00  0.00     0.081 A 
HETATM   21  C   UNL     1      38.320 -12.617   0.173  1.00  0.00    -0.027 A 
HETATM   22  C   UNL     1      37.907 -11.919   1.436  1.00  0.00     0.051 C 
HETATM   23  C   UNL     1      37.607 -12.377  -1.010  1.00  0.00     0.028 A 
HETATM   24  C   UNL     1      37.982 -13.008  -2.197  1.00  0.00     0.012 A 
HETATM   25  C   UNL     1      39.070 -13.879  -2.228  1.00  0.00     0.028 A 
HETATM   26 BR   UNL     1      37.007 -12.672  -3.782  1.00  0.00    -0.051 Br
HETATM   27  C   UNL     1      39.794 -14.141  -1.057  1.00  0.00    -0.027 A 
HETATM   28  C   UNL     1      40.967 -15.079  -1.090  1.00  0.00     0.051 C 
ENDBRANCH  19  20
ENDBRANCH  18  19
ENDBRANCH   1  18
TORSDOF 5
ENDMDL
MODEL 8
REMARK VINA RESULT:      -7.9      2.029      2.971
REMARK  5 active torsions:
REMARK  status: ('A' for Active; 'I' for Inactive)
REMARK    1  A    between atoms: C_3  and  O_4 
REMARK    2  A    between atoms: O_4  and  C_5 
REMARK    3  A    between atoms: C_5  and  C_6 
REMARK       I    between atoms: C_6  and  N_7 
REMARK    4  A    between atoms: N_7  and  N_8 
REMARK    5  A    between atoms: C_9  and  C_10 
ROOT
HETATM    1  C   UNL     1      41.907 -12.554   5.794  1.00  0.00     0.261 C 
HETATM    2  N   UNL     1      42.086 -13.910   6.071  1.00  0.00    -0.246 N 
HETATM    3  O   UNL     1      42.035 -12.035   4.689  1.00  0.00    -0.269 OA
HETATM    4  H   UNL     1      41.944 -14.269   7.008  1.00  0.00     0.192 HD
ENDROOT
BRANCH   2   5
HETATM    5  N   UNL     1      42.437 -14.770   5.072  1.00  0.00    -0.184 NA
HETATM    6  C   UNL     1      41.571 -15.691   4.793  1.00  0.00     0.153 C 
BRANCH   6   7
HETATM    7  C   UNL     1      41.832 -16.664   3.749  1.00  0.00     0.018 A 
HETATM    8  C   UNL     1      42.764 -17.752   3.828  1.00  0.00     0.004 A 
HETATM    9  C   UNL     1      42.701 -18.447   2.621  1.00  0.00     0.043 A 
HETATM   10  C   UNL     1      43.654 -18.219   4.820  1.00  0.00     0.014 A 
HETATM   11  C   UNL     1      43.479 -19.580   2.354  1.00  0.00     0.030 A 
HETATM   12  N   UNL     1      41.773 -17.807   1.835  1.00  0.00    -0.358 N 
HETATM   13  C   UNL     1      44.350 -20.020   3.353  1.00  0.00     0.002 A 
HETATM   14  C   UNL     1      44.439 -19.350   4.570  1.00  0.00     0.001 A 
HETATM   15  H   UNL     1      41.523 -18.096   0.899  1.00  0.00     0.166 HD
HETATM   16  C   UNL     1      41.240 -16.728   2.494  1.00  0.00     0.018 A 
HETATM   17  C   UNL     1      40.212 -15.865   1.850  1.00  0.00     0.069 C 
ENDBRANCH   6   7
ENDBRANCH   2   5
BRANCH   1  18
HETATM   18  C   UNL     1      41.516 -11.780   7.056  1.00  0.00     0.280 C 
BRANCH  18  19
HETATM   19  O   UNL     1      42.455 -10.762   7.393  1.00  0.00    -0.341 OA
BRANCH  19  20
HETATM   20  C   UNL     1      42.571 -10.648   8.756  1.00  0.00     0.081 A 
HETATM   21  C   UNL     1      43.558 -11.374   9.444  1.00  0.00    -0.027 A 
HETATM   22  C   UNL     1      44.514 -12.287   8.734  1.00  0.00     0.051 C 
HETATM   23  C   UNL     1      43.620 -11.264  10.841  1.00  0.00     0.028 A 
HETATM   24  C   UNL     1      42.747 -10.413  11.518  1.00  0.00     0.012 A 
HETATM   25  C   UNL     1      41.807  -9.655  10.821  1.00  0.00     0.028 A 
HETATM   26 BR   UNL     1      42.847 -10.279  13.402  1.00  0.00    -0.051 Br
HETATM   27  C   UNL     1      41.720  -9.753   9.427  1.00  0.00    -0.027 A 
HETATM   28  C   UNL     1      40.706  -8.936   8.676  1.00  0.00     0.051 C 
ENDBRANCH  19  20
ENDBRANCH  18  19
ENDBRANCH   1  18
TORSDOF 5
ENDMDL
MODEL 9
REMARK VINA RESULT:      -7.8      5.962      7.356
REMARK  5 active torsions:
REMARK  status: ('A' for Active; 'I' for Inactive)
REMARK    1  A    between atoms: C_3  and  O_4 
REMARK    2  A    between atoms: O_4  and  C_5 
REMARK    3  A    between atoms: C_5  and  C_6 
REMARK       I    between atoms: C_6  and  N_7 
REMARK    4  A    between atoms: N_7  and  N_8 
REMARK    5  A    between atoms: C_9  and  C_10 
ROOT
HETATM    1  C   UNL     1      39.937 -16.004   2.464  1.00  0.00     0.261 C 
HETATM    2  N   UNL     1      40.561 -15.948   3.711  1.00  0.00    -0.246 N 
HETATM    3  O   UNL     1      39.985 -16.958   1.693  1.00  0.00    -0.269 OA
HETATM    4  H   UNL     1      40.460 -15.131   4.303  1.00  0.00     0.192 HD
ENDROOT
BRANCH   2   5
HETATM    5  N   UNL     1      41.300 -17.006   4.154  1.00  0.00    -0.184 NA
HETATM    6  C   UNL     1      42.525 -17.050   3.739  1.00  0.00     0.153 C 
BRANCH   6   7
HETATM    7  C   UNL     1      43.409 -18.128   4.142  1.00  0.00     0.018 A 
HETATM    8  C   UNL     1      43.640 -19.342   3.413  1.00  0.00     0.004 A 
HETATM    9  C   UNL     1      44.558 -20.098   4.140  1.00  0.00     0.043 A 
HETATM   10  C   UNL     1      43.159 -19.868   2.194  1.00  0.00     0.014 A 
HETATM   11  C   UNL     1      45.019 -21.350   3.715  1.00  0.00     0.030 A 
HETATM   12  N   UNL     1      44.870 -19.379   5.269  1.00  0.00    -0.358 N 
HETATM   13  C   UNL     1      44.527 -21.846   2.505  1.00  0.00     0.002 A 
HETATM   14  C   UNL     1      43.609 -21.118   1.753  1.00  0.00     0.001 A 
HETATM   15  H   UNL     1      45.516 -19.690   5.982  1.00  0.00     0.166 HD
HETATM   16  C   UNL     1      44.186 -18.190   5.291  1.00  0.00     0.018 A 
HETATM   17  C   UNL     1      44.349 -17.231   6.418  1.00  0.00     0.069 C 
ENDBRANCH   6   7
ENDBRANCH   2   5
BRANCH   1  18
HETATM   18  C   UNL     1      39.164 -14.715   2.175  1.00  0.00     0.280 C 
BRANCH  18  19
HETATM   19  O   UNL     1      39.750 -13.570   2.790  1.00  0.00    -0.341 OA
BRANCH  19  20
HETATM   20  C   UNL     1      40.194 -12.687   1.837  1.00  0.00     0.081 A 
HETATM   21  C   UNL     1      39.281 -11.867   1.153  1.00  0.00    -0.027 A 
HETATM   22  C   UNL     1      37.807 -11.915   1.430  1.00  0.00     0.051 C 
HETATM   23  C   UNL     1      39.767 -11.007   0.158  1.00  0.00     0.028 A 
HETATM   24  C   UNL     1      41.135 -10.941  -0.107  1.00  0.00     0.012 A 
HETATM   25  C   UNL     1      42.039 -11.719   0.614  1.00  0.00     0.028 A 
HETATM   26 BR   UNL     1      41.770  -9.775  -1.454  1.00  0.00    -0.051 Br
HETATM   27  C   UNL     1      41.578 -12.592   1.609  1.00  0.00    -0.027 A 
HETATM   28  C   UNL     1      42.552 -13.430   2.387  1.00  0.00     0.051 C 
ENDBRANCH  19  20
ENDBRANCH  18  19
ENDBRANCH   1  18
TORSDOF 5
ENDMDL
MODEL 10
REMARK VINA RESULT:      -7.8      5.458      6.948
REMARK  5 active torsions:
REMARK  status: ('A' for Active; 'I' for Inactive)
REMARK    1  A    between atoms: C_3  and  O_4 
REMARK    2  A    between atoms: O_4  and  C_5 
REMARK    3  A    between atoms: C_5  and  C_6 
REMARK       I    between atoms: C_6  and  N_7 
REMARK    4  A    between atoms: N_7  and  N_8 
REMARK    5  A    between atoms: C_9  and  C_10 
ROOT
HETATM    1  C   UNL     1      41.095 -14.725   5.118  1.00  0.00     0.261 C 
HETATM    2  N   UNL     1      42.402 -14.986   4.705  1.00  0.00    -0.246 N 
HETATM    3  O   UNL     1      40.405 -15.479   5.797  1.00  0.00    -0.269 OA
HETATM    4  H   UNL     1      42.918 -14.304   4.160  1.00  0.00     0.192 HD
ENDROOT
BRANCH   2   5
HETATM    5  N   UNL     1      43.006 -16.160   5.049  1.00  0.00    -0.184 NA
HETATM    6  C   UNL     1      43.253 -16.973   4.073  1.00  0.00     0.153 C 
BRANCH   6   7
HETATM    7  C   UNL     1      43.893 -18.252   4.315  1.00  0.00     0.018 A 
HETATM    8  C   UNL     1      43.838 -19.396   3.449  1.00  0.00     0.004 A 
HETATM    9  C   UNL     1      44.588 -20.409   4.045  1.00  0.00     0.043 A 
HETATM   10  C   UNL     1      43.224 -19.664   2.206  1.00  0.00     0.014 A 
HETATM   11  C   UNL     1      44.756 -21.672   3.466  1.00  0.00     0.030 A 
HETATM   12  N   UNL     1      45.076 -19.906   5.228  1.00  0.00    -0.358 N 
HETATM   13  C   UNL     1      44.139 -21.909   2.235  1.00  0.00     0.002 A 
HETATM   14  C   UNL     1      43.382 -20.921   1.612  1.00  0.00     0.001 A 
HETATM   15  H   UNL     1      45.658 -20.428   5.870  1.00  0.00     0.166 HD
HETATM   16  C   UNL     1      44.666 -18.610   5.411  1.00  0.00     0.018 A 
HETATM   17  C   UNL     1      45.061 -17.844   6.624  1.00  0.00     0.069 C 
ENDBRANCH   6   7
ENDBRANCH   2   5
BRANCH   1  18
HETATM   18  C   UNL     1      40.623 -13.355   4.623  1.00  0.00     0.280 C 
BRANCH  18  19
HETATM   19  O   UNL     1      39.644 -13.449   3.591  1.00  0.00    -0.341 OA
BRANCH  19  20
HETATM   20  C   UNL     1      40.234 -13.336   2.357  1.00  0.00     0.081 A 
HETATM   21  C   UNL     1      40.384 -14.468   1.539  1.00  0.00    -0.027 A 
HETATM   22  C   UNL     1      39.910 -15.826   1.966  1.00  0.00     0.051 C 
HETATM   23  C   UNL     1      41.029 -14.321   0.302  1.00  0.00     0.028 A 
HETATM   24  C   UNL     1      41.468 -13.065  -0.117  1.00  0.00     0.012 A 
HETATM   25  C   UNL     1      41.267 -11.938   0.679  1.00  0.00     0.028 A 
HETATM   26 BR   UNL     1      42.337 -12.889  -1.788  1.00  0.00    -0.051 Br
HETATM   27  C   UNL     1      40.631 -12.059   1.921  1.00  0.00    -0.027 A 
HETATM   28  C   UNL     1      40.414 -10.845   2.779  1.00  0.00     0.051 C 
ENDBRANCH  19  20
ENDBRANCH  18  19
ENDBRANCH   1  18
TORSDOF 5
ENDMDL
