MODEL 1
REMARK VINA RESULT:      -7.5      0.000      0.000
REMARK  5 active torsions:
REMARK  status: ('A' for Active; 'I' for Inactive)
REMARK    1  A    between atoms: C_3  and  O_4 
REMARK    2  A    between atoms: O_4  and  C_5 
REMARK    3  A    between atoms: C_10  and  N_11 
REMARK       I    between atoms: N_11  and  C_12 
REMARK       I    between atoms: C_12  and  N_13 
REMARK    4  A    between atoms: N_13  and  C_14 
REMARK    5  A    between atoms: C_14  and  C_15 
ROOT
HETATM    1  N   UNL     1      45.119 -12.528   8.498  1.00  0.00    -0.309 N 
HETATM    2  C   UNL     1      44.950 -13.440   7.513  1.00  0.00     0.321 C 
HETATM    3  N   UNL     1      43.779 -14.111   7.409  1.00  0.00    -0.337 N 
HETATM    4  O   UNL     1      45.876 -13.613   6.720  1.00  0.00    -0.247 OA
HETATM    5  H   UNL     1      45.997 -12.046   8.354  1.00  0.00     0.170 HD
HETATM    6  H   UNL     1      42.946 -13.622   7.700  1.00  0.00     0.164 HD
ENDROOT
BRANCH   1   7
HETATM    7  C   UNL     1      44.404 -12.149   9.646  1.00  0.00     0.037 A 
HETATM    8  C   UNL     1      44.560 -12.685  10.921  1.00  0.00     0.032 A 
HETATM    9  C   UNL     1      43.775 -12.218  11.991  1.00  0.00     0.039 A 
HETATM   10  C   UNL     1      42.844 -11.194  11.805  1.00  0.00     0.075 A 
HETATM   11  C   UNL     1      42.705 -10.621  10.533  1.00  0.00    -0.026 A 
HETATM   12  C   UNL     1      41.727  -9.504  10.288  1.00  0.00     0.051 C 
HETATM   13  C   UNL     1      43.481 -11.108   9.470  1.00  0.00     0.039 A 
BRANCH  10  14
HETATM   14  O   UNL     1      42.010 -10.690  12.763  1.00  0.00    -0.346 OA
BRANCH  14  15
HETATM   15  C   UNL     1      42.528 -10.309  14.039  1.00  0.00     0.121 C 
HETATM   16  C   UNL     1      43.461  -9.110  13.890  1.00  0.00     0.040 C 
HETATM   17  C   UNL     1      41.323  -9.924  14.895  1.00  0.00     0.040 C 
ENDBRANCH  14  15
ENDBRANCH  10  14
ENDBRANCH   1   7
BRANCH   3  18
HETATM   18  C   UNL     1      43.593 -14.996   6.276  1.00  0.00     0.183 C 
BRANCH  18  19
HETATM   19  C   UNL     1      43.740 -16.463   6.611  1.00  0.00     0.053 A 
HETATM   20  N   UNL     1      43.582 -16.859   7.903  1.00  0.00    -0.264 NA
HETATM   21  C   UNL     1      43.701 -18.181   8.166  1.00  0.00     0.118 A 
HETATM   22  C   UNL     1      43.953 -19.140   7.205  1.00  0.00     0.043 A 
HETATM   23  C   UNL     1      44.088 -18.713   5.893  1.00  0.00     0.037 A 
HETATM   24 CL   UNL     1      44.389 -19.857   4.645  1.00  0.00    -0.084 Cl
HETATM   25  C   UNL     1      43.980 -17.365   5.580  1.00  0.00     0.052 A 
ENDBRANCH  18  19
ENDBRANCH   3  18
TORSDOF 5
ENDMDL
MODEL 2
REMARK VINA RESULT:      -7.5      7.805     10.223
REMARK  5 active torsions:
REMARK  status: ('A' for Active; 'I' for Inactive)
REMARK    1  A    between atoms: C_3  and  O_4 
REMARK    2  A    between atoms: O_4  and  C_5 
REMARK    3  A    between atoms: C_10  and  N_11 
REMARK       I    between atoms: N_11  and  C_12 
REMARK       I    between atoms: C_12  and  N_13 
REMARK    4  A    between atoms: N_13  and  C_14 
REMARK    5  A    between atoms: C_14  and  C_15 
ROOT
HETATM    1  N   UNL     1      40.798 -16.886   3.467  1.00  0.00    -0.309 N 
HETATM    2  C   UNL     1      41.713 -17.528   4.229  1.00  0.00     0.321 C 
HETATM    3  N   UNL     1      43.006 -17.580   3.829  1.00  0.00    -0.337 N 
HETATM    4  O   UNL     1      41.334 -18.031   5.287  1.00  0.00    -0.247 OA
HETATM    5  H   UNL     1      39.920 -16.845   3.969  1.00  0.00     0.170 HD
HETATM    6  H   UNL     1      43.352 -16.794   3.300  1.00  0.00     0.164 HD
ENDROOT
BRANCH   1   7
HETATM    7  C   UNL     1      40.781 -16.328   2.177  1.00  0.00     0.037 A 
HETATM    8  C   UNL     1      41.510 -16.780   1.081  1.00  0.00     0.032 A 
HETATM    9  C   UNL     1      41.408 -16.128  -0.160  1.00  0.00     0.039 A 
HETATM   10  C   UNL     1      40.556 -15.034  -0.329  1.00  0.00     0.075 A 
HETATM   11  C   UNL     1      39.788 -14.594   0.758  1.00  0.00    -0.026 A 
HETATM   12  C   UNL     1      38.844 -13.430   0.620  1.00  0.00     0.051 C 
HETATM   13  C   UNL     1      39.913 -15.242   1.997  1.00  0.00     0.039 A 
BRANCH  10  14
HETATM   14  O   UNL     1      40.405 -14.310  -1.478  1.00  0.00    -0.346 OA
BRANCH  14  15
HETATM   15  C   UNL     1      40.936 -14.799  -2.711  1.00  0.00     0.121 C 
HETATM   16  C   UNL     1      39.845 -15.510  -3.508  1.00  0.00     0.040 C 
HETATM   17  C   UNL     1      41.428 -13.577  -3.483  1.00  0.00     0.040 C 
ENDBRANCH  14  15
ENDBRANCH  10  14
ENDBRANCH   1   7
BRANCH   3  18
HETATM   18  C   UNL     1      43.977 -18.176   4.724  1.00  0.00     0.183 C 
BRANCH  18  19
HETATM   19  C   UNL     1      44.262 -19.633   4.438  1.00  0.00     0.053 A 
HETATM   20  N   UNL     1      44.585 -20.454   5.474  1.00  0.00    -0.264 NA
HETATM   21  C   UNL     1      44.816 -21.756   5.187  1.00  0.00     0.118 A 
HETATM   22  C   UNL     1      44.725 -22.294   3.918  1.00  0.00     0.043 A 
HETATM   23  C   UNL     1      44.373 -21.442   2.884  1.00  0.00     0.037 A 
HETATM   24 CL   UNL     1      44.228 -22.051   1.281  1.00  0.00    -0.084 Cl
HETATM   25  C   UNL     1      44.134 -20.097   3.133  1.00  0.00     0.052 A 
ENDBRANCH  18  19
ENDBRANCH   3  18
TORSDOF 5
ENDMDL
MODEL 3
REMARK VINA RESULT:      -7.4      7.826     10.678
REMARK  5 active torsions:
REMARK  status: ('A' for Active; 'I' for Inactive)
REMARK    1  A    between atoms: C_3  and  O_4 
REMARK    2  A    between atoms: O_4  and  C_5 
REMARK    3  A    between atoms: C_10  and  N_11 
REMARK       I    between atoms: N_11  and  C_12 
REMARK       I    between atoms: C_12  and  N_13 
REMARK    4  A    between atoms: N_13  and  C_14 
REMARK    5  A    between atoms: C_14  and  C_15 
ROOT
HETATM    1  N   UNL     1      39.471 -15.840   2.435  1.00  0.00    -0.309 N 
HETATM    2  C   UNL     1      39.171 -14.943   1.467  1.00  0.00     0.321 C 
HETATM    3  N   UNL     1      40.157 -14.434   0.691  1.00  0.00    -0.337 N 
HETATM    4  O   UNL     1      37.990 -14.633   1.311  1.00  0.00    -0.247 OA
HETATM    5  H   UNL     1      38.611 -16.197   2.831  1.00  0.00     0.170 HD
HETATM    6  H   UNL     1      40.944 -15.036   0.501  1.00  0.00     0.164 HD
ENDROOT
BRANCH   1   7
HETATM    7  C   UNL     1      40.652 -16.331   3.015  1.00  0.00     0.037 A 
HETATM    8  C   UNL     1      41.188 -15.938   4.238  1.00  0.00     0.032 A 
HETATM    9  C   UNL     1      42.385 -16.506   4.707  1.00  0.00     0.039 A 
HETATM   10  C   UNL     1      43.048 -17.493   3.973  1.00  0.00     0.075 A 
HETATM   11  C   UNL     1      42.497 -17.924   2.758  1.00  0.00    -0.026 A 
HETATM   12  C   UNL     1      43.167 -18.995   1.941  1.00  0.00     0.051 C 
HETATM   13  C   UNL     1      41.312 -17.335   2.292  1.00  0.00     0.039 A 
BRANCH  10  14
HETATM   14  O   UNL     1      44.230 -18.086   4.318  1.00  0.00    -0.346 OA
BRANCH  14  15
HETATM   15  C   UNL     1      44.327 -18.848   5.524  1.00  0.00     0.121 C 
HETATM   16  C   UNL     1      44.796 -20.266   5.212  1.00  0.00     0.040 C 
HETATM   17  C   UNL     1      45.360 -18.141   6.398  1.00  0.00     0.040 C 
ENDBRANCH  14  15
ENDBRANCH  10  14
ENDBRANCH   1   7
BRANCH   3  18
HETATM   18  C   UNL     1      39.786 -13.565  -0.407  1.00  0.00     0.183 C 
BRANCH  18  19
HETATM   19  C   UNL     1      39.529 -14.293  -1.707  1.00  0.00     0.053 A 
HETATM   20  N   UNL     1      40.488 -15.124  -2.194  1.00  0.00    -0.264 NA
HETATM   21  C   UNL     1      40.219 -15.775  -3.349  1.00  0.00     0.118 A 
HETATM   22  C   UNL     1      39.030 -15.657  -4.043  1.00  0.00     0.043 A 
HETATM   23  C   UNL     1      38.060 -14.821  -3.514  1.00  0.00     0.037 A 
HETATM   24 CL   UNL     1      36.551 -14.639  -4.321  1.00  0.00    -0.084 Cl
HETATM   25  C   UNL     1      38.298 -14.128  -2.335  1.00  0.00     0.052 A 
ENDBRANCH  18  19
ENDBRANCH   3  18
TORSDOF 5
ENDMDL
MODEL 4
REMARK VINA RESULT:      -7.4      7.961     10.794
REMARK  5 active torsions:
REMARK  status: ('A' for Active; 'I' for Inactive)
REMARK    1  A    between atoms: C_3  and  O_4 
REMARK    2  A    between atoms: O_4  and  C_5 
REMARK    3  A    between atoms: C_10  and  N_11 
REMARK       I    between atoms: N_11  and  C_12 
REMARK       I    between atoms: C_12  and  N_13 
REMARK    4  A    between atoms: N_13  and  C_14 
REMARK    5  A    between atoms: C_14  and  C_15 
ROOT
HETATM    1  N   UNL     1      40.690 -16.280   3.267  1.00  0.00    -0.309 N 
HETATM    2  C   UNL     1      40.646 -14.960   2.977  1.00  0.00     0.321 C 
HETATM    3  N   UNL     1      41.649 -14.392   2.265  1.00  0.00    -0.337 N 
HETATM    4  O   UNL     1      39.669 -14.315   3.360  1.00  0.00    -0.247 OA
HETATM    5  H   UNL     1      39.814 -16.553   3.696  1.00  0.00     0.170 HD
HETATM    6  H   UNL     1      42.110 -14.975   1.583  1.00  0.00     0.164 HD
ENDROOT
BRANCH   1   7
HETATM    7  C   UNL     1      41.648 -17.301   3.151  1.00  0.00     0.037 A 
HETATM    8  C   UNL     1      42.039 -17.926   1.971  1.00  0.00     0.032 A 
HETATM    9  C   UNL     1      43.012 -18.941   1.990  1.00  0.00     0.039 A 
HETATM   10  C   UNL     1      43.624 -19.327   3.186  1.00  0.00     0.075 A 
HETATM   11  C   UNL     1      43.265 -18.678   4.375  1.00  0.00    -0.026 A 
HETATM   12  C   UNL     1      43.909 -19.047   5.684  1.00  0.00     0.051 C 
HETATM   13  C   UNL     1      42.280 -17.678   4.345  1.00  0.00     0.039 A 
BRANCH  10  14
HETATM   14  O   UNL     1      44.552 -20.320   3.323  1.00  0.00    -0.346 OA
BRANCH  14  15
HETATM   15  C   UNL     1      44.168 -21.689   3.170  1.00  0.00     0.121 C 
HETATM   16  C   UNL     1      44.646 -22.220   1.821  1.00  0.00     0.040 C 
HETATM   17  C   UNL     1      44.852 -22.455   4.300  1.00  0.00     0.040 C 
ENDBRANCH  14  15
ENDBRANCH  10  14
ENDBRANCH   1   7
BRANCH   3  18
HETATM   18  C   UNL     1      41.514 -13.003   1.877  1.00  0.00     0.183 C 
BRANCH  18  19
HETATM   19  C   UNL     1      41.905 -12.725   0.443  1.00  0.00     0.053 A 
HETATM   20  N   UNL     1      42.656 -11.624   0.170  1.00  0.00    -0.264 NA
HETATM   21  C   UNL     1      43.006 -11.414  -1.120  1.00  0.00     0.118 A 
HETATM   22  C   UNL     1      42.662 -12.257  -2.159  1.00  0.00     0.043 A 
HETATM   23  C   UNL     1      41.916 -13.383  -1.852  1.00  0.00     0.037 A 
HETATM   24 CL   UNL     1      41.466 -14.481  -3.097  1.00  0.00    -0.084 Cl
HETATM   25  C   UNL     1      41.529 -13.633  -0.542  1.00  0.00     0.052 A 
ENDBRANCH  18  19
ENDBRANCH   3  18
TORSDOF 5
ENDMDL
MODEL 5
REMARK VINA RESULT:      -7.3      8.345     11.291
REMARK  5 active torsions:
REMARK  status: ('A' for Active; 'I' for Inactive)
REMARK    1  A    between atoms: C_3  and  O_4 
REMARK    2  A    between atoms: O_4  and  C_5 
REMARK    3  A    between atoms: C_10  and  N_11 
REMARK       I    between atoms: N_11  and  C_12 
REMARK       I    between atoms: C_12  and  N_13 
REMARK    4  A    between atoms: N_13  and  C_14 
REMARK    5  A    between atoms: C_14  and  C_15 
ROOT
HETATM    1  N   UNL     1      40.413 -16.476   2.860  1.00  0.00    -0.309 N 
HETATM    2  C   UNL     1      40.111 -15.402   2.094  1.00  0.00     0.321 C 
HETATM    3  N   UNL     1      40.834 -15.145   0.979  1.00  0.00    -0.337 N 
HETATM    4  O   UNL     1      39.160 -14.697   2.434  1.00  0.00    -0.247 OA
HETATM    5  H   UNL     1      39.706 -16.579   3.576  1.00  0.00     0.170 HD
HETATM    6  H   UNL     1      41.212 -15.940   0.486  1.00  0.00     0.164 HD
ENDROOT
BRANCH   1   7
HETATM    7  C   UNL     1      41.461 -17.409   2.908  1.00  0.00     0.037 A 
HETATM    8  C   UNL     1      42.050 -18.036   1.813  1.00  0.00     0.032 A 
HETATM    9  C   UNL     1      43.094 -18.959   1.996  1.00  0.00     0.039 A 
HETATM   10  C   UNL     1      43.581 -19.248   3.274  1.00  0.00     0.075 A 
HETATM   11  C   UNL     1      43.021 -18.595   4.381  1.00  0.00    -0.026 A 
HETATM   12  C   UNL     1      43.523 -18.862   5.774  1.00  0.00     0.051 C 
HETATM   13  C   UNL     1      41.967 -17.689   4.185  1.00  0.00     0.039 A 
BRANCH  10  14
HETATM   14  O   UNL     1      44.565 -20.150   3.567  1.00  0.00    -0.346 OA
BRANCH  14  15
HETATM   15  C   UNL     1      44.294 -21.553   3.514  1.00  0.00     0.121 C 
HETATM   16  C   UNL     1      44.797 -22.135   2.196  1.00  0.00     0.040 C 
HETATM   17  C   UNL     1      45.054 -22.181   4.680  1.00  0.00     0.040 C 
ENDBRANCH  14  15
ENDBRANCH  10  14
ENDBRANCH   1   7
BRANCH   3  18
HETATM   18  C   UNL     1      40.412 -14.053   0.123  1.00  0.00     0.183 C 
BRANCH  18  19
HETATM   19  C   UNL     1      40.043 -14.480  -1.279  1.00  0.00     0.053 A 
HETATM   20  N   UNL     1      40.845 -15.367  -1.928  1.00  0.00    -0.264 NA
HETATM   21  C   UNL     1      40.477 -15.743  -3.174  1.00  0.00     0.118 A 
HETATM   22  C   UNL     1      39.335 -15.295  -3.809  1.00  0.00     0.043 A 
HETATM   23  C   UNL     1      38.522 -14.409  -3.119  1.00  0.00     0.037 A 
HETATM   24 CL   UNL     1      37.078 -13.824  -3.847  1.00  0.00    -0.084 Cl
HETATM   25  C   UNL     1      38.867 -13.992  -1.841  1.00  0.00     0.052 A 
ENDBRANCH  18  19
ENDBRANCH   3  18
TORSDOF 5
ENDMDL
MODEL 6
REMARK VINA RESULT:      -7.1      4.318      9.000
REMARK  5 active torsions:
REMARK  status: ('A' for Active; 'I' for Inactive)
REMARK    1  A    between atoms: C_3  and  O_4 
REMARK    2  A    between atoms: O_4  and  C_5 
REMARK    3  A    between atoms: C_10  and  N_11 
REMARK       I    between atoms: N_11  and  C_12 
REMARK       I    between atoms: C_12  and  N_13 
REMARK    4  A    between atoms: N_13  and  C_14 
REMARK    5  A    between atoms: C_14  and  C_15 
ROOT
HETATM    1  N   UNL     1      39.555 -13.302   6.426  1.00  0.00    -0.309 N 
HETATM    2  C   UNL     1      39.972 -12.245   7.160  1.00  0.00     0.321 C 
HETATM    3  N   UNL     1      41.274 -11.873   7.128  1.00  0.00    -0.337 N 
HETATM    4  O   UNL     1      39.133 -11.634   7.823  1.00  0.00    -0.247 OA
HETATM    5  H   UNL     1      38.546 -13.362   6.477  1.00  0.00     0.170 HD
HETATM    6  H   UNL     1      41.772 -12.030   6.265  1.00  0.00     0.164 HD
ENDROOT
BRANCH   1   7
HETATM    7  C   UNL     1      40.183 -14.314   5.681  1.00  0.00     0.037 A 
HETATM    8  C   UNL     1      40.789 -15.455   6.198  1.00  0.00     0.032 A 
HETATM    9  C   UNL     1      41.388 -16.395   5.341  1.00  0.00     0.039 A 
HETATM   10  C   UNL     1      41.367 -16.219   3.955  1.00  0.00     0.075 A 
HETATM   11  C   UNL     1      40.726 -15.092   3.421  1.00  0.00    -0.026 A 
HETATM   12  C   UNL     1      40.663 -14.869   1.934  1.00  0.00     0.051 C 
HETATM   13  C   UNL     1      40.147 -14.153   4.288  1.00  0.00     0.039 A 
BRANCH  10  14
HETATM   14  O   UNL     1      41.945 -17.049   3.036  1.00  0.00    -0.346 OA
BRANCH  14  15
HETATM   15  C   UNL     1      43.352 -17.300   3.079  1.00  0.00     0.121 C 
HETATM   16  C   UNL     1      43.616 -18.738   3.516  1.00  0.00     0.040 C 
HETATM   17  C   UNL     1      43.870 -17.087   1.658  1.00  0.00     0.040 C 
ENDBRANCH  14  15
ENDBRANCH  10  14
ENDBRANCH   1   7
BRANCH   3  18
HETATM   18  C   UNL     1      41.661 -10.669   7.835  1.00  0.00     0.183 C 
BRANCH  18  19
HETATM   19  C   UNL     1      42.783 -10.874   8.828  1.00  0.00     0.053 A 
HETATM   20  N   UNL     1      43.897 -11.545   8.429  1.00  0.00    -0.264 NA
HETATM   21  C   UNL     1      44.890 -11.694   9.335  1.00  0.00     0.118 A 
HETATM   22  C   UNL     1      44.844 -11.193  10.621  1.00  0.00     0.043 A 
HETATM   23  C   UNL     1      43.708 -10.494  10.996  1.00  0.00     0.037 A 
HETATM   24 CL   UNL     1      43.591  -9.831  12.579  1.00  0.00    -0.084 Cl
HETATM   25  C   UNL     1      42.661 -10.323  10.100  1.00  0.00     0.052 A 
ENDBRANCH  18  19
ENDBRANCH   3  18
TORSDOF 5
ENDMDL
MODEL 7
REMARK VINA RESULT:      -7.0      7.962     10.942
REMARK  5 active torsions:
REMARK  status: ('A' for Active; 'I' for Inactive)
REMARK    1  A    between atoms: C_3  and  O_4 
REMARK    2  A    between atoms: O_4  and  C_5 
REMARK    3  A    between atoms: C_10  and  N_11 
REMARK       I    between atoms: N_11  and  C_12 
REMARK       I    between atoms: C_12  and  N_13 
REMARK    4  A    between atoms: N_13  and  C_14 
REMARK    5  A    between atoms: C_14  and  C_15 
ROOT
HETATM    1  N   UNL     1      43.127 -14.611   2.388  1.00  0.00    -0.309 N 
HETATM    2  C   UNL     1      42.270 -13.766   1.770  1.00  0.00     0.321 C 
HETATM    3  N   UNL     1      41.141 -14.250   1.199  1.00  0.00    -0.337 N 
HETATM    4  O   UNL     1      42.541 -12.565   1.768  1.00  0.00    -0.247 OA
HETATM    5  H   UNL     1      43.845 -14.070   2.853  1.00  0.00     0.170 HD
HETATM    6  H   UNL     1      40.722 -15.059   1.631  1.00  0.00     0.164 HD
ENDROOT
BRANCH   1   7
HETATM    7  C   UNL     1      43.263 -16.006   2.487  1.00  0.00     0.037 A 
HETATM    8  C   UNL     1      43.728 -16.855   1.488  1.00  0.00     0.032 A 
HETATM    9  C   UNL     1      43.813 -18.240   1.713  1.00  0.00     0.039 A 
HETATM   10  C   UNL     1      43.458 -18.791   2.947  1.00  0.00     0.075 A 
HETATM   11  C   UNL     1      43.024 -17.940   3.973  1.00  0.00    -0.026 A 
HETATM   12  C   UNL     1      42.648 -18.485   5.324  1.00  0.00     0.051 C 
HETATM   13  C   UNL     1      42.927 -16.561   3.730  1.00  0.00     0.039 A 
BRANCH  10  14
HETATM   14  O   UNL     1      43.471 -20.121   3.261  1.00  0.00    -0.346 OA
BRANCH  14  15
HETATM   15  C   UNL     1      44.688 -20.867   3.182  1.00  0.00     0.121 C 
HETATM   16  C   UNL     1      44.962 -21.567   4.510  1.00  0.00     0.040 C 
HETATM   17  C   UNL     1      44.484 -21.906   2.081  1.00  0.00     0.040 C 
ENDBRANCH  14  15
ENDBRANCH  10  14
ENDBRANCH   1   7
BRANCH   3  18
HETATM   18  C   UNL     1      40.192 -13.304   0.646  1.00  0.00     0.183 C 
BRANCH  18  19
HETATM   19  C   UNL     1      40.218 -13.218  -0.863  1.00  0.00     0.053 A 
HETATM   20  N   UNL     1      40.648 -12.068  -1.447  1.00  0.00    -0.264 NA
HETATM   21  C   UNL     1      40.677 -12.031  -2.799  1.00  0.00     0.118 A 
HETATM   22  C   UNL     1      40.315 -13.090  -3.609  1.00  0.00     0.043 A 
HETATM   23  C   UNL     1      39.902 -14.259  -2.989  1.00  0.00     0.037 A 
HETATM   24 CL   UNL     1      39.451 -15.620  -3.938  1.00  0.00    -0.084 Cl
HETATM   25  C   UNL     1      39.850 -14.337  -1.604  1.00  0.00     0.052 A 
ENDBRANCH  18  19
ENDBRANCH   3  18
TORSDOF 5
ENDMDL
MODEL 8
REMARK VINA RESULT:      -7.0      4.031      9.068
REMARK  5 active torsions:
REMARK  status: ('A' for Active; 'I' for Inactive)
REMARK    1  A    between atoms: C_3  and  O_4 
REMARK    2  A    between atoms: O_4  and  C_5 
REMARK    3  A    between atoms: C_10  and  N_11 
REMARK       I    between atoms: N_11  and  C_12 
REMARK       I    between atoms: C_12  and  N_13 
REMARK    4  A    between atoms: N_13  and  C_14 
REMARK    5  A    between atoms: C_14  and  C_15 
ROOT
HETATM    1  N   UNL     1      39.854 -14.347   5.670  1.00  0.00    -0.309 N 
HETATM    2  C   UNL     1      39.813 -13.100   6.193  1.00  0.00     0.321 C 
HETATM    3  N   UNL     1      40.966 -12.440   6.455  1.00  0.00    -0.337 N 
HETATM    4  O   UNL     1      38.709 -12.593   6.396  1.00  0.00    -0.247 OA
HETATM    5  H   UNL     1      38.914 -14.636   5.433  1.00  0.00     0.170 HD
HETATM    6  H   UNL     1      41.750 -12.634   5.851  1.00  0.00     0.164 HD
ENDROOT
BRANCH   1   7
HETATM    7  C   UNL     1      40.857 -15.302   5.434  1.00  0.00     0.037 A 
HETATM    8  C   UNL     1      41.113 -16.428   6.210  1.00  0.00     0.032 A 
HETATM    9  C   UNL     1      42.154 -17.308   5.867  1.00  0.00     0.039 A 
HETATM   10  C   UNL     1      42.935 -17.088   4.729  1.00  0.00     0.075 A 
HETATM   11  C   UNL     1      42.662 -15.977   3.919  1.00  0.00    -0.026 A 
HETATM   12  C   UNL     1      43.465 -15.708   2.676  1.00  0.00     0.051 C 
HETATM   13  C   UNL     1      41.632 -15.096   4.283  1.00  0.00     0.039 A 
BRANCH  10  14
HETATM   14  O   UNL     1      43.989 -17.858   4.324  1.00  0.00    -0.346 OA
BRANCH  14  15
HETATM   15  C   UNL     1      43.784 -19.229   3.973  1.00  0.00     0.121 C 
HETATM   16  C   UNL     1      44.033 -19.432   2.481  1.00  0.00     0.040 C 
HETATM   17  C   UNL     1      44.799 -20.035   4.781  1.00  0.00     0.040 C 
ENDBRANCH  14  15
ENDBRANCH  10  14
ENDBRANCH   1   7
BRANCH   3  18
HETATM   18  C   UNL     1      40.883 -11.066   6.908  1.00  0.00     0.183 C 
BRANCH  18  19
HETATM   19  C   UNL     1      41.223 -10.879   8.369  1.00  0.00     0.053 A 
HETATM   20  N   UNL     1      40.215 -10.888   9.283  1.00  0.00    -0.264 NA
HETATM   21  C   UNL     1      40.554 -10.738  10.584  1.00  0.00     0.118 A 
HETATM   22  C   UNL     1      41.854 -10.596  11.031  1.00  0.00     0.043 A 
HETATM   23  C   UNL     1      42.864 -10.613  10.083  1.00  0.00     0.037 A 
HETATM   24 CL   UNL     1      44.505 -10.455  10.574  1.00  0.00    -0.084 Cl
HETATM   25  C   UNL     1      42.559 -10.757   8.736  1.00  0.00     0.052 A 
ENDBRANCH  18  19
ENDBRANCH   3  18
TORSDOF 5
ENDMDL
MODEL 9
REMARK VINA RESULT:      -6.9      6.731      8.841
REMARK  5 active torsions:
REMARK  status: ('A' for Active; 'I' for Inactive)
REMARK    1  A    between atoms: C_3  and  O_4 
REMARK    2  A    between atoms: O_4  and  C_5 
REMARK    3  A    between atoms: C_10  and  N_11 
REMARK       I    between atoms: N_11  and  C_12 
REMARK       I    between atoms: C_12  and  N_13 
REMARK    4  A    between atoms: N_13  and  C_14 
REMARK    5  A    between atoms: C_14  and  C_15 
ROOT
HETATM    1  N   UNL     1      41.734 -16.811   5.680  1.00  0.00    -0.309 N 
HETATM    2  C   UNL     1      42.776 -17.638   5.930  1.00  0.00     0.321 C 
HETATM    3  N   UNL     1      43.640 -17.954   4.937  1.00  0.00    -0.337 N 
HETATM    4  O   UNL     1      42.914 -18.062   7.078  1.00  0.00    -0.247 OA
HETATM    5  H   UNL     1      41.268 -16.594   6.551  1.00  0.00     0.170 HD
HETATM    6  H   UNL     1      43.800 -17.251   4.231  1.00  0.00     0.164 HD
ENDROOT
BRANCH   1   7
HETATM    7  C   UNL     1      41.156 -16.249   4.529  1.00  0.00     0.037 A 
HETATM    8  C   UNL     1      40.591 -14.980   4.434  1.00  0.00     0.032 A 
HETATM    9  C   UNL     1      40.039 -14.535   3.221  1.00  0.00     0.039 A 
HETATM   10  C   UNL     1      40.068 -15.341   2.080  1.00  0.00     0.075 A 
HETATM   11  C   UNL     1      40.668 -16.606   2.154  1.00  0.00    -0.026 A 
HETATM   12  C   UNL     1      40.738 -17.503   0.948  1.00  0.00     0.051 C 
HETATM   13  C   UNL     1      41.199 -17.046   3.376  1.00  0.00     0.039 A 
BRANCH  10  14
HETATM   14  O   UNL     1      39.533 -15.022   0.864  1.00  0.00    -0.346 OA
BRANCH  14  15
HETATM   15  C   UNL     1      39.103 -13.685   0.596  1.00  0.00     0.121 C 
HETATM   16  C   UNL     1      40.154 -12.951  -0.231  1.00  0.00     0.040 C 
HETATM   17  C   UNL     1      37.806 -13.803  -0.202  1.00  0.00     0.040 C 
ENDBRANCH  14  15
ENDBRANCH  10  14
ENDBRANCH   1   7
BRANCH   3  18
HETATM   18  C   UNL     1      44.806 -18.749   5.269  1.00  0.00     0.183 C 
BRANCH  18  19
HETATM   19  C   UNL     1      44.756 -20.163   4.737  1.00  0.00     0.053 A 
HETATM   20  N   UNL     1      44.895 -21.197   5.610  1.00  0.00    -0.264 NA
HETATM   21  C   UNL     1      44.826 -22.450   5.106  1.00  0.00     0.118 A 
HETATM   22  C   UNL     1      44.607 -22.734   3.771  1.00  0.00     0.043 A 
HETATM   23  C   UNL     1      44.446 -21.664   2.906  1.00  0.00     0.037 A 
HETATM   24 CL   UNL     1      44.156 -21.948   1.234  1.00  0.00    -0.084 Cl
HETATM   25  C   UNL     1      44.517 -20.361   3.381  1.00  0.00     0.052 A 
ENDBRANCH  18  19
ENDBRANCH   3  18
TORSDOF 5
ENDMDL
MODEL 10
REMARK VINA RESULT:      -6.8      7.458     10.949
REMARK  5 active torsions:
REMARK  status: ('A' for Active; 'I' for Inactive)
REMARK    1  A    between atoms: C_3  and  O_4 
REMARK    2  A    between atoms: O_4  and  C_5 
REMARK    3  A    between atoms: C_10  and  N_11 
REMARK       I    between atoms: N_11  and  C_12 
REMARK       I    between atoms: C_12  and  N_13 
REMARK    4  A    between atoms: N_13  and  C_14 
REMARK    5  A    between atoms: C_14  and  C_15 
ROOT
HETATM    1  N   UNL     1      39.677 -13.880   2.798  1.00  0.00    -0.309 N 
HETATM    2  C   UNL     1      40.153 -14.793   3.675  1.00  0.00     0.321 C 
HETATM    3  N   UNL     1      40.512 -16.024   3.239  1.00  0.00    -0.337 N 
HETATM    4  O   UNL     1      40.266 -14.458   4.855  1.00  0.00    -0.247 OA
HETATM    5  H   UNL     1      39.573 -12.992   3.271  1.00  0.00     0.170 HD
HETATM    6  H   UNL     1      40.878 -16.087   2.302  1.00  0.00     0.164 HD
ENDROOT
BRANCH   1   7
HETATM    7  C   UNL     1      39.273 -13.899   1.453  1.00  0.00     0.037 A 
HETATM    8  C   UNL     1      37.959 -13.907   0.993  1.00  0.00     0.032 A 
HETATM    9  C   UNL     1      37.686 -13.930  -0.386  1.00  0.00     0.039 A 
HETATM   10  C   UNL     1      38.722 -13.920  -1.323  1.00  0.00     0.075 A 
HETATM   11  C   UNL     1      40.049 -13.874  -0.872  1.00  0.00    -0.026 A 
HETATM   12  C   UNL     1      41.197 -13.845  -1.844  1.00  0.00     0.051 C 
HETATM   13  C   UNL     1      40.308 -13.870   0.507  1.00  0.00     0.039 A 
BRANCH  10  14
HETATM   14  O   UNL     1      38.571 -13.974  -2.680  1.00  0.00    -0.346 OA
BRANCH  14  15
HETATM   15  C   UNL     1      37.844 -15.049  -3.280  1.00  0.00     0.121 C 
HETATM   16  C   UNL     1      36.782 -14.500  -4.228  1.00  0.00     0.040 C 
HETATM   17  C   UNL     1      38.864 -15.871  -4.066  1.00  0.00     0.040 C 
ENDBRANCH  14  15
ENDBRANCH  10  14
ENDBRANCH   1   7
BRANCH   3  18
HETATM   18  C   UNL     1      41.123 -16.936   4.186  1.00  0.00     0.183 C 
BRANCH  18  19
HETATM   19  C   UNL     1      42.176 -17.836   3.579  1.00  0.00     0.053 A 
HETATM   20  N   UNL     1      42.299 -17.882   2.225  1.00  0.00    -0.264 NA
HETATM   21  C   UNL     1      43.262 -18.682   1.715  1.00  0.00     0.118 A 
HETATM   22  C   UNL     1      44.131 -19.432   2.484  1.00  0.00     0.043 A 
HETATM   23  C   UNL     1      44.000 -19.351   3.862  1.00  0.00     0.037 A 
HETATM   24 CL   UNL     1      45.058 -20.249   4.878  1.00  0.00    -0.084 Cl
HETATM   25  C   UNL     1      43.019 -18.548   4.427  1.00  0.00     0.052 A 
ENDBRANCH  18  19
ENDBRANCH   3  18
TORSDOF 5
ENDMDL
