MODEL 1
REMARK VINA RESULT:      -9.1      0.000      0.000
REMARK  4 active torsions:
REMARK  status: ('A' for Active; 'I' for Inactive)
REMARK    1  A    between atoms: C_4  and  O_5 
REMARK    2  A    between atoms: C_6  and  C_7 
REMARK    3  A    between atoms: C_11  and  C_12 
REMARK       I    between atoms: C_12  and  N_13 
REMARK    4  A    between atoms: C_19  and  O_20 
ROOT
HETATM    1  C   UNL     1      43.299 -11.184  10.870  1.00  0.00     0.065 A 
HETATM    2  N   UNL     1      42.809 -10.725   9.677  1.00  0.00    -0.277 N 
HETATM    3  H   UNL     1      42.062 -10.043   9.566  1.00  0.00     0.189 HD
HETATM    4  N   UNL     1      43.448 -11.190   8.589  1.00  0.00    -0.169 NA
HETATM    5  C   UNL     1      44.338 -12.076   9.084  1.00  0.00     0.148 A 
HETATM    6  C   UNL     1      44.279 -12.089  10.506  1.00  0.00     0.071 A 
ENDROOT
BRANCH   5   7
HETATM    7  C   UNL     1      45.309 -12.840   8.257  1.00  0.00     0.299 C 
HETATM    8  N   UNL     1      44.860 -13.991   7.662  1.00  0.00    -0.189 NA
HETATM    9  C   UNL     1      43.929 -13.918   6.781  1.00  0.00     0.154 C 
HETATM   10  S   UNL     1      43.502 -15.434   5.916  1.00  0.00    -0.056 SA
HETATM   11  N   UNL     1      43.131 -12.875   6.349  1.00  0.00    -0.236 NA
HETATM   12  C   UNL     1      42.139 -14.625   5.115  1.00  0.00     0.032 A 
HETATM   13  C   UNL     1      42.074 -13.287   5.517  1.00  0.00     0.032 A 
HETATM   14  C   UNL     1      41.208 -15.165   4.245  1.00  0.00     0.057 A 
HETATM   15  C   UNL     1      41.080 -12.458   5.022  1.00  0.00     0.028 A 
HETATM   16  C   UNL     1      40.127 -12.995   4.146  1.00  0.00     0.038 A 
HETATM   17  C   UNL     1      40.187 -14.343   3.757  1.00  0.00     0.069 A 
HETATM   18  H   UNL     1      42.865 -12.214   7.077  1.00  0.00     0.136 HD
HETATM   19  O   UNL     1      46.474 -12.467   8.165  1.00  0.00    -0.263 OA
BRANCH  17  20
HETATM   20  O   UNL     1      39.314 -14.967   2.907  1.00  0.00    -0.356 OA
HETATM   21  C   UNL     1      39.847 -15.980   2.062  1.00  0.00     0.210 C 
ENDBRANCH  17  20
ENDBRANCH   5   7
BRANCH   1  22
HETATM   22  C   UNL     1      42.809 -10.716  12.172  1.00  0.00     0.025 A 
HETATM   23  C   UNL     1      41.554 -11.091  12.689  1.00  0.00     0.078 A 
HETATM   24  C   UNL     1      41.095 -10.602  13.917  1.00  0.00     0.044 A 
HETATM   25  C   UNL     1      41.880  -9.713  14.659  1.00  0.00    -0.059 A 
HETATM   26  C   UNL     1      41.409  -9.194  15.985  1.00  0.00     0.048 C 
HETATM   27  C   UNL     1      43.138  -9.352  14.169  1.00  0.00     0.008 A 
HETATM   28  C   UNL     1      43.593  -9.843  12.941  1.00  0.00     0.017 A 
BRANCH  23  29
HETATM   29  O   UNL     1      40.750 -11.955  11.981  1.00  0.00    -0.360 OA
HETATM   30  H   UNL     1      40.914 -11.812  11.033  1.00  0.00     0.217 HD
ENDBRANCH  23  29
ENDBRANCH   1  22
TORSDOF 4
ENDMDL
MODEL 2
REMARK VINA RESULT:      -8.9      5.577      8.784
REMARK  4 active torsions:
REMARK  status: ('A' for Active; 'I' for Inactive)
REMARK    1  A    between atoms: C_4  and  O_5 
REMARK    2  A    between atoms: C_6  and  C_7 
REMARK    3  A    between atoms: C_11  and  C_12 
REMARK       I    between atoms: C_12  and  N_13 
REMARK    4  A    between atoms: C_19  and  O_20 
ROOT
HETATM    1  C   UNL     1      40.193 -14.092   4.023  1.00  0.00     0.065 A 
HETATM    2  N   UNL     1      39.811 -15.007   4.967  1.00  0.00    -0.277 N 
HETATM    3  H   UNL     1      38.894 -15.441   5.036  1.00  0.00     0.189 HD
HETATM    4  N   UNL     1      40.787 -15.388   5.811  1.00  0.00    -0.169 NA
HETATM    5  C   UNL     1      41.838 -14.611   5.471  1.00  0.00     0.148 A 
HETATM    6  C   UNL     1      41.503 -13.798   4.350  1.00  0.00     0.071 A 
ENDROOT
BRANCH   5   7
HETATM    7  C   UNL     1      43.176 -14.683   6.111  1.00  0.00     0.299 C 
HETATM    8  N   UNL     1      43.616 -15.919   6.511  1.00  0.00    -0.189 NA
HETATM    9  C   UNL     1      43.817 -16.829   5.627  1.00  0.00     0.154 C 
HETATM   10  S   UNL     1      44.552 -18.368   6.191  1.00  0.00    -0.056 SA
HETATM   11  N   UNL     1      43.556 -16.887   4.271  1.00  0.00    -0.236 NA
HETATM   12  C   UNL     1      44.324 -19.096   4.586  1.00  0.00     0.032 A 
HETATM   13  C   UNL     1      43.730 -18.171   3.722  1.00  0.00     0.032 A 
HETATM   14  C   UNL     1      44.621 -20.384   4.176  1.00  0.00     0.057 A 
HETATM   15  C   UNL     1      43.449 -18.522   2.412  1.00  0.00     0.028 A 
HETATM   16  C   UNL     1      43.739 -19.826   1.985  1.00  0.00     0.038 A 
HETATM   17  C   UNL     1      44.322 -20.756   2.861  1.00  0.00     0.069 A 
HETATM   18  H   UNL     1      42.700 -16.415   3.982  1.00  0.00     0.136 HD
HETATM   19  O   UNL     1      43.825 -13.661   6.311  1.00  0.00    -0.263 OA
BRANCH  17  20
HETATM   20  O   UNL     1      44.648 -22.048   2.550  1.00  0.00    -0.356 OA
HETATM   21  C   UNL     1      44.730 -22.972   3.628  1.00  0.00     0.210 C 
ENDBRANCH  17  20
ENDBRANCH   5   7
BRANCH   1  22
HETATM   22  C   UNL     1      39.306 -13.631   2.948  1.00  0.00     0.025 A 
HETATM   23  C   UNL     1      38.801 -14.496   1.959  1.00  0.00     0.078 A 
HETATM   24  C   UNL     1      37.985 -14.024   0.924  1.00  0.00     0.044 A 
HETATM   25  C   UNL     1      37.659 -12.665   0.849  1.00  0.00    -0.059 A 
HETATM   26  C   UNL     1      36.771 -12.148  -0.243  1.00  0.00     0.048 C 
HETATM   27  C   UNL     1      38.133 -11.800   1.840  1.00  0.00     0.008 A 
HETATM   28  C   UNL     1      38.949 -12.277   2.871  1.00  0.00     0.017 A 
BRANCH  23  29
HETATM   29  O   UNL     1      39.111 -15.836   1.995  1.00  0.00    -0.360 OA
HETATM   30  H   UNL     1      39.036 -16.140   2.916  1.00  0.00     0.217 HD
ENDBRANCH  23  29
ENDBRANCH   1  22
TORSDOF 4
ENDMDL
MODEL 3
REMARK VINA RESULT:      -8.8      3.502      8.724
REMARK  4 active torsions:
REMARK  status: ('A' for Active; 'I' for Inactive)
REMARK    1  A    between atoms: C_4  and  O_5 
REMARK    2  A    between atoms: C_6  and  C_7 
REMARK    3  A    between atoms: C_11  and  C_12 
REMARK       I    between atoms: C_12  and  N_13 
REMARK    4  A    between atoms: C_19  and  O_20 
ROOT
HETATM    1  C   UNL     1      43.394 -15.818   6.213  1.00  0.00     0.065 A 
HETATM    2  N   UNL     1      44.336 -14.945   6.687  1.00  0.00    -0.277 N 
HETATM    3  H   UNL     1      45.235 -15.203   7.089  1.00  0.00     0.189 HD
HETATM    4  N   UNL     1      44.034 -13.646   6.521  1.00  0.00    -0.169 NA
HETATM    5  C   UNL     1      42.787 -13.661   6.003  1.00  0.00     0.148 A 
HETATM    6  C   UNL     1      42.363 -15.003   5.788  1.00  0.00     0.071 A 
ENDROOT
BRANCH   5   7
HETATM    7  C   UNL     1      42.025 -12.446   5.616  1.00  0.00     0.299 C 
HETATM    8  N   UNL     1      41.235 -11.866   6.576  1.00  0.00    -0.189 NA
HETATM    9  C   UNL     1      41.786 -11.376   7.628  1.00  0.00     0.154 C 
HETATM   10  S   UNL     1      40.722 -10.482   8.766  1.00  0.00    -0.056 SA
HETATM   11  N   UNL     1      43.084 -11.409   8.104  1.00  0.00    -0.236 NA
HETATM   12  C   UNL     1      42.054 -10.328   9.932  1.00  0.00     0.032 A 
HETATM   13  C   UNL     1      43.207 -10.932   9.422  1.00  0.00     0.032 A 
HETATM   14  C   UNL     1      42.034  -9.752  11.190  1.00  0.00     0.057 A 
HETATM   15  C   UNL     1      44.376 -10.940  10.166  1.00  0.00     0.028 A 
HETATM   16  C   UNL     1      44.367 -10.366  11.445  1.00  0.00     0.038 A 
HETATM   17  C   UNL     1      43.202  -9.774  11.959  1.00  0.00     0.069 A 
HETATM   18  H   UNL     1      43.582 -12.278   7.919  1.00  0.00     0.136 HD
HETATM   19  O   UNL     1      42.072 -12.023   4.465  1.00  0.00    -0.263 OA
BRANCH  17  20
HETATM   20  O   UNL     1      43.083  -9.184  13.188  1.00  0.00    -0.356 OA
HETATM   21  C   UNL     1      42.537  -9.976  14.235  1.00  0.00     0.210 C 
ENDBRANCH  17  20
ENDBRANCH   5   7
BRANCH   1  22
HETATM   22  C   UNL     1      43.583 -17.275   6.204  1.00  0.00     0.025 A 
HETATM   23  C   UNL     1      43.557 -18.049   7.380  1.00  0.00     0.078 A 
HETATM   24  C   UNL     1      43.775 -19.431   7.348  1.00  0.00     0.044 A 
HETATM   25  C   UNL     1      44.035 -20.075   6.134  1.00  0.00    -0.059 A 
HETATM   26  C   UNL     1      44.253 -21.558   6.082  1.00  0.00     0.048 C 
HETATM   27  C   UNL     1      44.039 -19.321   4.956  1.00  0.00     0.008 A 
HETATM   28  C   UNL     1      43.821 -17.941   4.993  1.00  0.00     0.017 A 
BRANCH  23  29
HETATM   29  O   UNL     1      43.316 -17.448   8.594  1.00  0.00    -0.360 OA
HETATM   30  H   UNL     1      43.609 -16.521   8.536  1.00  0.00     0.217 HD
ENDBRANCH  23  29
ENDBRANCH   1  22
TORSDOF 4
ENDMDL
MODEL 4
REMARK VINA RESULT:      -8.6      3.080      3.769
REMARK  4 active torsions:
REMARK  status: ('A' for Active; 'I' for Inactive)
REMARK    1  A    between atoms: C_4  and  O_5 
REMARK    2  A    between atoms: C_6  and  C_7 
REMARK    3  A    between atoms: C_11  and  C_12 
REMARK       I    between atoms: C_12  and  N_13 
REMARK    4  A    between atoms: C_19  and  O_20 
ROOT
HETATM    1  C   UNL     1      40.516 -10.887   9.693  1.00  0.00     0.065 A 
HETATM    2  N   UNL     1      39.470 -11.756   9.535  1.00  0.00    -0.277 N 
HETATM    3  H   UNL     1      39.003 -12.264  10.282  1.00  0.00     0.189 HD
HETATM    4  N   UNL     1      39.010 -11.859   8.276  1.00  0.00    -0.169 NA
HETATM    5  C   UNL     1      39.858 -11.097   7.551  1.00  0.00     0.148 A 
HETATM    6  C   UNL     1      40.804 -10.467   8.409  1.00  0.00     0.071 A 
ENDROOT
BRANCH   5   7
HETATM    7  C   UNL     1      39.740 -10.872   6.088  1.00  0.00     0.299 C 
HETATM    8  N   UNL     1      40.754 -11.345   5.294  1.00  0.00    -0.189 NA
HETATM    9  C   UNL     1      40.968 -12.611   5.240  1.00  0.00     0.154 C 
HETATM   10  S   UNL     1      42.193 -13.182   4.058  1.00  0.00    -0.056 SA
HETATM   11  N   UNL     1      40.444 -13.677   5.947  1.00  0.00    -0.236 NA
HETATM   12  C   UNL     1      42.067 -14.839   4.687  1.00  0.00     0.032 A 
HETATM   13  C   UNL     1      41.128 -14.886   5.722  1.00  0.00     0.032 A 
HETATM   14  C   UNL     1      42.777 -15.962   4.301  1.00  0.00     0.057 A 
HETATM   15  C   UNL     1      40.867 -16.082   6.371  1.00  0.00     0.028 A 
HETATM   16  C   UNL     1      41.584 -17.226   5.994  1.00  0.00     0.038 A 
HETATM   17  C   UNL     1      42.537 -17.170   4.964  1.00  0.00     0.069 A 
HETATM   18  H   UNL     1      40.242 -13.480   6.926  1.00  0.00     0.136 HD
HETATM   19  O   UNL     1      38.792 -10.240   5.631  1.00  0.00    -0.263 OA
BRANCH  17  20
HETATM   20  O   UNL     1      43.288 -18.222   4.515  1.00  0.00    -0.356 OA
HETATM   21  C   UNL     1      43.153 -18.574   3.143  1.00  0.00     0.210 C 
ENDBRANCH  17  20
ENDBRANCH   5   7
BRANCH   1  22
HETATM   22  C   UNL     1      41.092 -10.555  11.003  1.00  0.00     0.025 A 
HETATM   23  C   UNL     1      40.713 -11.218  12.187  1.00  0.00     0.078 A 
HETATM   24  C   UNL     1      41.251 -10.858  13.428  1.00  0.00     0.044 A 
HETATM   25  C   UNL     1      42.179  -9.815  13.517  1.00  0.00    -0.059 A 
HETATM   26  C   UNL     1      42.778  -9.430  14.838  1.00  0.00     0.048 C 
HETATM   27  C   UNL     1      42.582  -9.166  12.346  1.00  0.00     0.008 A 
HETATM   28  C   UNL     1      42.041  -9.529  11.108  1.00  0.00     0.017 A 
BRANCH  23  29
HETATM   29  O   UNL     1      39.794 -12.240  12.138  1.00  0.00    -0.360 OA
HETATM   30  H   UNL     1      38.911 -11.848  12.024  1.00  0.00     0.217 HD
ENDBRANCH  23  29
ENDBRANCH   1  22
TORSDOF 4
ENDMDL
MODEL 5
REMARK VINA RESULT:      -8.4      6.171      9.280
REMARK  4 active torsions:
REMARK  status: ('A' for Active; 'I' for Inactive)
REMARK    1  A    between atoms: C_4  and  O_5 
REMARK    2  A    between atoms: C_6  and  C_7 
REMARK    3  A    between atoms: C_11  and  C_12 
REMARK       I    between atoms: C_12  and  N_13 
REMARK    4  A    between atoms: C_19  and  O_20 
ROOT
HETATM    1  C   UNL     1      42.818 -17.120   4.172  1.00  0.00     0.065 A 
HETATM    2  N   UNL     1      41.905 -17.014   5.187  1.00  0.00    -0.277 N 
HETATM    3  H   UNL     1      41.453 -17.792   5.662  1.00  0.00     0.189 HD
HETATM    4  N   UNL     1      41.671 -15.758   5.606  1.00  0.00    -0.169 NA
HETATM    5  C   UNL     1      42.389 -14.989   4.759  1.00  0.00     0.148 A 
HETATM    6  C   UNL     1      43.125 -15.810   3.858  1.00  0.00     0.071 A 
ENDROOT
BRANCH   5   7
HETATM    7  C   UNL     1      42.473 -13.508   4.839  1.00  0.00     0.299 C 
HETATM    8  N   UNL     1      42.484 -12.814   3.657  1.00  0.00    -0.189 NA
HETATM    9  C   UNL     1      41.456 -12.870   2.888  1.00  0.00     0.154 C 
HETATM   10  S   UNL     1      41.461 -11.808   1.440  1.00  0.00    -0.056 SA
HETATM   11  N   UNL     1      40.299 -13.625   2.930  1.00  0.00    -0.236 NA
HETATM   12  C   UNL     1      39.958 -12.554   0.855  1.00  0.00     0.032 A 
HETATM   13  C   UNL     1      39.530 -13.534   1.756  1.00  0.00     0.032 A 
HETATM   14  C   UNL     1      39.270 -12.297  -0.318  1.00  0.00     0.057 A 
HETATM   15  C   UNL     1      38.375 -14.257   1.501  1.00  0.00     0.028 A 
HETATM   16  C   UNL     1      37.672 -14.011   0.314  1.00  0.00     0.038 A 
HETATM   17  C   UNL     1      38.115 -13.036  -0.595  1.00  0.00     0.069 A 
HETATM   18  H   UNL     1      40.422 -14.572   3.284  1.00  0.00     0.136 HD
HETATM   19  O   UNL     1      42.581 -12.950   5.927  1.00  0.00    -0.263 OA
BRANCH  17  20
HETATM   20  O   UNL     1      37.506 -12.714  -1.777  1.00  0.00    -0.356 OA
HETATM   21  C   UNL     1      37.876 -13.470  -2.923  1.00  0.00     0.210 C 
ENDBRANCH  17  20
ENDBRANCH   5   7
BRANCH   1  22
HETATM   22  C   UNL     1      43.288 -18.408   3.647  1.00  0.00     0.025 A 
HETATM   23  C   UNL     1      44.219 -19.212   4.333  1.00  0.00     0.078 A 
HETATM   24  C   UNL     1      44.677 -20.419   3.793  1.00  0.00     0.044 A 
HETATM   25  C   UNL     1      44.220 -20.850   2.543  1.00  0.00    -0.059 A 
HETATM   26  C   UNL     1      44.688 -22.150   1.960  1.00  0.00     0.048 C 
HETATM   27  C   UNL     1      43.277 -20.073   1.864  1.00  0.00     0.008 A 
HETATM   28  C   UNL     1      42.822 -18.868   2.407  1.00  0.00     0.017 A 
BRANCH  23  29
HETATM   29  O   UNL     1      44.699 -18.813   5.559  1.00  0.00    -0.360 OA
HETATM   30  H   UNL     1      45.208 -17.994   5.433  1.00  0.00     0.217 HD
ENDBRANCH  23  29
ENDBRANCH   1  22
TORSDOF 4
ENDMDL
MODEL 6
REMARK VINA RESULT:      -8.4      6.343     10.346
REMARK  4 active torsions:
REMARK  status: ('A' for Active; 'I' for Inactive)
REMARK    1  A    between atoms: C_4  and  O_5 
REMARK    2  A    between atoms: C_6  and  C_7 
REMARK    3  A    between atoms: C_11  and  C_12 
REMARK       I    between atoms: C_12  and  N_13 
REMARK    4  A    between atoms: C_19  and  O_20 
ROOT
HETATM    1  C   UNL     1      40.298 -14.414   1.756  1.00  0.00     0.065 A 
HETATM    2  N   UNL     1      39.688 -15.063   2.796  1.00  0.00    -0.277 N 
HETATM    3  H   UNL     1      38.785 -15.529   2.756  1.00  0.00     0.189 HD
HETATM    4  N   UNL     1      40.416 -15.127   3.925  1.00  0.00    -0.169 NA
HETATM    5  C   UNL     1      41.517 -14.395   3.649  1.00  0.00     0.148 A 
HETATM    6  C   UNL     1      41.479 -13.945   2.298  1.00  0.00     0.071 A 
ENDROOT
BRANCH   5   7
HETATM    7  C   UNL     1      42.647 -14.192   4.592  1.00  0.00     0.299 C 
HETATM    8  N   UNL     1      42.952 -15.224   5.441  1.00  0.00    -0.189 NA
HETATM    9  C   UNL     1      43.358 -16.340   4.950  1.00  0.00     0.154 C 
HETATM   10  S   UNL     1      43.903 -17.595   6.114  1.00  0.00    -0.056 SA
HETATM   11  N   UNL     1      43.451 -16.810   3.653  1.00  0.00    -0.236 NA
HETATM   12  C   UNL     1      44.082 -18.775   4.798  1.00  0.00     0.032 A 
HETATM   13  C   UNL     1      43.741 -18.185   3.577  1.00  0.00     0.032 A 
HETATM   14  C   UNL     1      44.454 -20.105   4.880  1.00  0.00     0.057 A 
HETATM   15  C   UNL     1      43.799 -18.924   2.406  1.00  0.00     0.028 A 
HETATM   16  C   UNL     1      44.169 -20.274   2.477  1.00  0.00     0.038 A 
HETATM   17  C   UNL     1      44.495 -20.866   3.707  1.00  0.00     0.069 A 
HETATM   18  H   UNL     1      42.705 -16.499   3.034  1.00  0.00     0.136 HD
HETATM   19  O   UNL     1      43.238 -13.117   4.630  1.00  0.00    -0.263 OA
BRANCH  17  20
HETATM   20  O   UNL     1      44.871 -22.169   3.890  1.00  0.00    -0.356 OA
HETATM   21  C   UNL     1      45.289 -22.545   5.197  1.00  0.00     0.210 C 
ENDBRANCH  17  20
ENDBRANCH   5   7
BRANCH   1  22
HETATM   22  C   UNL     1      39.715 -14.329   0.411  1.00  0.00     0.025 A 
HETATM   23  C   UNL     1      40.444 -14.642  -0.752  1.00  0.00     0.078 A 
HETATM   24  C   UNL     1      39.875 -14.519  -2.025  1.00  0.00     0.044 A 
HETATM   25  C   UNL     1      38.558 -14.069  -2.167  1.00  0.00    -0.059 A 
HETATM   26  C   UNL     1      37.929 -13.949  -3.523  1.00  0.00     0.048 C 
HETATM   27  C   UNL     1      37.815 -13.779  -1.018  1.00  0.00     0.008 A 
HETATM   28  C   UNL     1      38.388 -13.903   0.251  1.00  0.00     0.017 A 
BRANCH  23  29
HETATM   29  O   UNL     1      41.746 -15.076  -0.651  1.00  0.00    -0.360 OA
HETATM   30  H   UNL     1      41.827 -15.601   0.165  1.00  0.00     0.217 HD
ENDBRANCH  23  29
ENDBRANCH   1  22
TORSDOF 4
ENDMDL
MODEL 7
REMARK VINA RESULT:      -8.4      3.046      8.589
REMARK  4 active torsions:
REMARK  status: ('A' for Active; 'I' for Inactive)
REMARK    1  A    between atoms: C_4  and  O_5 
REMARK    2  A    between atoms: C_6  and  C_7 
REMARK    3  A    between atoms: C_11  and  C_12 
REMARK       I    between atoms: C_12  and  N_13 
REMARK    4  A    between atoms: C_19  and  O_20 
ROOT
HETATM    1  C   UNL     1      41.682 -14.478   5.807  1.00  0.00     0.065 A 
HETATM    2  N   UNL     1      40.420 -14.304   6.310  1.00  0.00    -0.277 N 
HETATM    3  H   UNL     1      39.831 -15.035   6.699  1.00  0.00     0.189 HD
HETATM    4  N   UNL     1      39.995 -13.028   6.335  1.00  0.00    -0.169 NA
HETATM    5  C   UNL     1      40.985 -12.340   5.726  1.00  0.00     0.148 A 
HETATM    6  C   UNL     1      42.058 -13.215   5.394  1.00  0.00     0.071 A 
ENDROOT
BRANCH   5   7
HETATM    7  C   UNL     1      40.987 -10.866   5.536  1.00  0.00     0.299 C 
HETATM    8  N   UNL     1      40.626 -10.093   6.609  1.00  0.00    -0.189 NA
HETATM    9  C   UNL     1      41.351 -10.115   7.669  1.00  0.00     0.154 C 
HETATM   10  S   UNL     1      40.925  -8.957   8.975  1.00  0.00    -0.056 SA
HETATM   11  N   UNL     1      42.431 -10.891   8.046  1.00  0.00    -0.236 NA
HETATM   12  C   UNL     1      42.132  -9.688  10.054  1.00  0.00     0.032 A 
HETATM   13  C   UNL     1      42.788 -10.734   9.398  1.00  0.00     0.032 A 
HETATM   14  C   UNL     1      42.419  -9.364  11.369  1.00  0.00     0.057 A 
HETATM   15  C   UNL     1      43.772 -11.458  10.052  1.00  0.00     0.028 A 
HETATM   16  C   UNL     1      44.067 -11.145  11.385  1.00  0.00     0.038 A 
HETATM   17  C   UNL     1      43.395 -10.103  12.045  1.00  0.00     0.069 A 
HETATM   18  H   UNL     1      42.391 -11.858   7.728  1.00  0.00     0.136 HD
HETATM   19  O   UNL     1      41.254 -10.381   4.441  1.00  0.00    -0.263 OA
BRANCH  17  20
HETATM   20  O   UNL     1      43.607  -9.712  13.340  1.00  0.00    -0.356 OA
HETATM   21  C   UNL     1      42.601 -10.044  14.288  1.00  0.00     0.210 C 
ENDBRANCH  17  20
ENDBRANCH   5   7
BRANCH   1  22
HETATM   22  C   UNL     1      42.366 -15.778   5.792  1.00  0.00     0.025 A 
HETATM   23  C   UNL     1      41.810 -16.921   5.186  1.00  0.00     0.078 A 
HETATM   24  C   UNL     1      42.467 -18.156   5.218  1.00  0.00     0.044 A 
HETATM   25  C   UNL     1      43.700 -18.281   5.866  1.00  0.00    -0.059 A 
HETATM   26  C   UNL     1      44.424 -19.594   5.892  1.00  0.00     0.048 C 
HETATM   27  C   UNL     1      44.275 -17.149   6.450  1.00  0.00     0.008 A 
HETATM   28  C   UNL     1      43.614 -15.916   6.417  1.00  0.00     0.017 A 
BRANCH  23  29
HETATM   29  O   UNL     1      40.593 -16.837   4.550  1.00  0.00    -0.360 OA
HETATM   30  H   UNL     1      40.688 -17.226   3.663  1.00  0.00     0.217 HD
ENDBRANCH  23  29
ENDBRANCH   1  22
TORSDOF 4
ENDMDL
MODEL 8
REMARK VINA RESULT:      -8.3      2.969      9.231
REMARK  4 active torsions:
REMARK  status: ('A' for Active; 'I' for Inactive)
REMARK    1  A    between atoms: C_4  and  O_5 
REMARK    2  A    between atoms: C_6  and  C_7 
REMARK    3  A    between atoms: C_11  and  C_12 
REMARK       I    between atoms: C_12  and  N_13 
REMARK    4  A    between atoms: C_19  and  O_20 
ROOT
HETATM    1  C   UNL     1      41.743 -14.428   5.230  1.00  0.00     0.065 A 
HETATM    2  N   UNL     1      42.577 -13.390   5.546  1.00  0.00    -0.277 N 
HETATM    3  H   UNL     1      43.588 -13.385   5.433  1.00  0.00     0.189 HD
HETATM    4  N   UNL     1      41.955 -12.277   5.972  1.00  0.00    -0.169 NA
HETATM    5  C   UNL     1      40.653 -12.631   6.037  1.00  0.00     0.148 A 
HETATM    6  C   UNL     1      40.486 -13.966   5.569  1.00  0.00     0.071 A 
ENDROOT
BRANCH   5   7
HETATM    7  C   UNL     1      39.553 -11.716   6.435  1.00  0.00     0.299 C 
HETATM    8  N   UNL     1      39.232 -11.659   7.767  1.00  0.00    -0.189 NA
HETATM    9  C   UNL     1      40.105 -11.227   8.604  1.00  0.00     0.154 C 
HETATM   10  S   UNL     1      39.571 -11.016  10.306  1.00  0.00    -0.056 SA
HETATM   11  N   UNL     1      41.440 -10.891   8.471  1.00  0.00    -0.236 NA
HETATM   12  C   UNL     1      41.233 -10.636  10.808  1.00  0.00     0.032 A 
HETATM   13  C   UNL     1      42.087 -10.675   9.701  1.00  0.00     0.032 A 
HETATM   14  C   UNL     1      41.707 -10.370  12.080  1.00  0.00     0.057 A 
HETATM   15  C   UNL     1      43.439 -10.416   9.856  1.00  0.00     0.028 A 
HETATM   16  C   UNL     1      43.934 -10.152  11.140  1.00  0.00     0.038 A 
HETATM   17  C   UNL     1      43.074 -10.128  12.251  1.00  0.00     0.069 A 
HETATM   18  H   UNL     1      41.960 -11.470   7.814  1.00  0.00     0.136 HD
HETATM   19  O   UNL     1      38.934 -11.082   5.585  1.00  0.00    -0.263 OA
BRANCH  17  20
HETATM   20  O   UNL     1      43.449  -9.878  13.544  1.00  0.00    -0.356 OA
HETATM   21  C   UNL     1      42.444 -10.000  14.543  1.00  0.00     0.210 C 
ENDBRANCH  17  20
ENDBRANCH   5   7
BRANCH   1  22
HETATM   22  C   UNL     1      42.219 -15.690   4.648  1.00  0.00     0.025 A 
HETATM   23  C   UNL     1      43.141 -15.734   3.585  1.00  0.00     0.078 A 
HETATM   24  C   UNL     1      43.551 -16.949   3.025  1.00  0.00     0.044 A 
HETATM   25  C   UNL     1      43.039 -18.157   3.511  1.00  0.00    -0.059 A 
HETATM   26  C   UNL     1      43.482 -19.468   2.933  1.00  0.00     0.048 C 
HETATM   27  C   UNL     1      42.141 -18.128   4.583  1.00  0.00     0.008 A 
HETATM   28  C   UNL     1      41.734 -16.911   5.139  1.00  0.00     0.017 A 
BRANCH  23  29
HETATM   29  O   UNL     1      43.657 -14.565   3.074  1.00  0.00    -0.360 OA
HETATM   30  H   UNL     1      42.917 -13.957   2.903  1.00  0.00     0.217 HD
ENDBRANCH  23  29
ENDBRANCH   1  22
TORSDOF 4
ENDMDL
MODEL 9
REMARK VINA RESULT:      -8.3      6.858      9.816
REMARK  4 active torsions:
REMARK  status: ('A' for Active; 'I' for Inactive)
REMARK    1  A    between atoms: C_4  and  O_5 
REMARK    2  A    between atoms: C_6  and  C_7 
REMARK    3  A    between atoms: C_11  and  C_12 
REMARK       I    between atoms: C_12  and  N_13 
REMARK    4  A    between atoms: C_19  and  O_20 
ROOT
HETATM    1  C   UNL     1      42.692 -17.122   3.838  1.00  0.00     0.065 A 
HETATM    2  N   UNL     1      43.479 -16.118   4.333  1.00  0.00    -0.277 N 
HETATM    3  H   UNL     1      44.480 -16.178   4.502  1.00  0.00     0.189 HD
HETATM    4  N   UNL     1      42.844 -14.949   4.530  1.00  0.00    -0.169 NA
HETATM    5  C   UNL     1      41.553 -15.224   4.246  1.00  0.00     0.148 A 
HETATM    6  C   UNL     1      41.425 -16.570   3.800  1.00  0.00     0.071 A 
ENDROOT
BRANCH   5   7
HETATM    7  C   UNL     1      40.454 -14.225   4.292  1.00  0.00     0.299 C 
HETATM    8  N   UNL     1      40.561 -13.133   3.469  1.00  0.00    -0.189 NA
HETATM    9  C   UNL     1      40.562 -13.306   2.196  1.00  0.00     0.154 C 
HETATM   10  S   UNL     1      40.533 -11.830   1.172  1.00  0.00    -0.056 SA
HETATM   11  N   UNL     1      40.603 -14.440   1.408  1.00  0.00    -0.236 NA
HETATM   12  C   UNL     1      40.745 -12.811  -0.294  1.00  0.00     0.032 A 
HETATM   13  C   UNL     1      40.817 -14.166   0.045  1.00  0.00     0.032 A 
HETATM   14  C   UNL     1      40.872 -12.384  -1.604  1.00  0.00     0.057 A 
HETATM   15  C   UNL     1      40.990 -15.122  -0.943  1.00  0.00     0.028 A 
HETATM   16  C   UNL     1      41.125 -14.703  -2.273  1.00  0.00     0.038 A 
HETATM   17  C   UNL     1      41.068 -13.339  -2.607  1.00  0.00     0.069 A 
HETATM   18  H   UNL     1      41.171 -15.198   1.783  1.00  0.00     0.136 HD
HETATM   19  O   UNL     1      39.521 -14.364   5.078  1.00  0.00    -0.263 OA
BRANCH  17  20
HETATM   20  O   UNL     1      41.184 -12.821  -3.868  1.00  0.00    -0.356 OA
HETATM   21  C   UNL     1      42.076 -11.727  -4.038  1.00  0.00     0.210 C 
ENDBRANCH  17  20
ENDBRANCH   5   7
BRANCH   1  22
HETATM   22  C   UNL     1      43.217 -18.439   3.456  1.00  0.00     0.025 A 
HETATM   23  C   UNL     1      44.161 -19.133   4.238  1.00  0.00     0.078 A 
HETATM   24  C   UNL     1      44.673 -20.372   3.833  1.00  0.00     0.044 A 
HETATM   25  C   UNL     1      44.257 -20.945   2.627  1.00  0.00    -0.059 A 
HETATM   26  C   UNL     1      44.784 -22.280   2.189  1.00  0.00     0.048 C 
HETATM   27  C   UNL     1      43.302 -20.277   1.854  1.00  0.00     0.008 A 
HETATM   28  C   UNL     1      42.794 -19.040   2.262  1.00  0.00     0.017 A 
BRANCH  23  29
HETATM   29  O   UNL     1      44.600 -18.594   5.424  1.00  0.00    -0.360 OA
HETATM   30  H   UNL     1      45.285 -17.933   5.221  1.00  0.00     0.217 HD
ENDBRANCH  23  29
ENDBRANCH   1  22
TORSDOF 4
ENDMDL
MODEL 10
REMARK VINA RESULT:      -8.3      7.232      9.827
REMARK  4 active torsions:
REMARK  status: ('A' for Active; 'I' for Inactive)
REMARK    1  A    between atoms: C_4  and  O_5 
REMARK    2  A    between atoms: C_6  and  C_7 
REMARK    3  A    between atoms: C_11  and  C_12 
REMARK       I    between atoms: C_12  and  N_13 
REMARK    4  A    between atoms: C_19  and  O_20 
ROOT
HETATM    1  C   UNL     1      42.725 -16.950   3.242  1.00  0.00     0.065 A 
HETATM    2  N   UNL     1      41.475 -16.659   3.718  1.00  0.00    -0.277 N 
HETATM    3  H   UNL     1      40.779 -17.340   4.013  1.00  0.00     0.189 HD
HETATM    4  N   UNL     1      41.216 -15.347   3.856  1.00  0.00    -0.169 NA
HETATM    5  C   UNL     1      42.312 -14.740   3.352  1.00  0.00     0.148 A 
HETATM    6  C   UNL     1      43.279 -15.713   2.970  1.00  0.00     0.071 A 
ENDROOT
BRANCH   5   7
HETATM    7  C   UNL     1      42.511 -13.268   3.311  1.00  0.00     0.299 C 
HETATM    8  N   UNL     1      42.663 -12.688   2.078  1.00  0.00    -0.189 NA
HETATM    9  C   UNL     1      41.692 -12.737   1.239  1.00  0.00     0.154 C 
HETATM   10  S   UNL     1      41.886 -11.816  -0.291  1.00  0.00    -0.056 SA
HETATM   11  N   UNL     1      40.477 -13.397   1.254  1.00  0.00    -0.236 NA
HETATM   12  C   UNL     1      40.373 -12.498  -0.926  1.00  0.00     0.032 A 
HETATM   13  C   UNL     1      39.803 -13.356   0.020  1.00  0.00     0.032 A 
HETATM   14  C   UNL     1      39.794 -12.299  -2.166  1.00  0.00     0.057 A 
HETATM   15  C   UNL     1      38.615 -14.011  -0.262  1.00  0.00     0.028 A 
HETATM   16  C   UNL     1      38.021 -13.824  -1.517  1.00  0.00     0.038 A 
HETATM   17  C   UNL     1      38.606 -12.972  -2.469  1.00  0.00     0.069 A 
HETATM   18  H   UNL     1      40.497 -14.314   1.696  1.00  0.00     0.136 HD
HETATM   19  O   UNL     1      42.586 -12.622   4.352  1.00  0.00    -0.263 OA
BRANCH  17  20
HETATM   20  O   UNL     1      38.111 -12.714  -3.719  1.00  0.00    -0.356 OA
HETATM   21  C   UNL     1      37.370 -11.512  -3.886  1.00  0.00     0.210 C 
ENDBRANCH  17  20
ENDBRANCH   5   7
BRANCH   1  22
HETATM   22  C   UNL     1      43.238 -18.321   3.120  1.00  0.00     0.025 A 
HETATM   23  C   UNL     1      44.082 -18.903   4.085  1.00  0.00     0.078 A 
HETATM   24  C   UNL     1      44.586 -20.199   3.926  1.00  0.00     0.044 A 
HETATM   25  C   UNL     1      44.262 -20.946   2.788  1.00  0.00    -0.059 A 
HETATM   26  C   UNL     1      44.779 -22.343   2.613  1.00  0.00     0.048 C 
HETATM   27  C   UNL     1      43.405 -20.389   1.835  1.00  0.00     0.008 A 
HETATM   28  C   UNL     1      42.904 -19.093   1.998  1.00  0.00     0.017 A 
BRANCH  23  29
HETATM   29  O   UNL     1      44.431 -18.193   5.210  1.00  0.00    -0.360 OA
HETATM   30  H   UNL     1      45.366 -18.377   5.407  1.00  0.00     0.217 HD
ENDBRANCH  23  29
ENDBRANCH   1  22
TORSDOF 4
ENDMDL
