MODEL 1
REMARK VINA RESULT:      -8.7      0.000      0.000
REMARK  9 active torsions:
REMARK  status: ('A' for Active; 'I' for Inactive)
REMARK    1  A    between atoms: C_5  and  N_6 
REMARK       I    between atoms: N_6  and  C_7 
REMARK    2  A    between atoms: C_7  and  C_8 
REMARK    3  A    between atoms: C_8  and  S_9 
REMARK    4  A    between atoms: S_9  and  C_10 
REMARK    5  A    between atoms: C_11  and  C_12 
REMARK       I    between atoms: C_12  and  N_13 
REMARK    6  A    between atoms: N_13  and  C_14 
REMARK    7  A    between atoms: C_14  and  C_15 
REMARK    8  A    between atoms: C_15  and  N_16 
REMARK    9  A    between atoms: C_15  and  C_22 
ROOT
HETATM    1  C   UNL     1      39.905 -13.723   4.244  1.00  0.00     0.016 A 
HETATM    2  C   UNL     1      39.636 -13.624   2.870  1.00  0.00     0.048 A 
HETATM    3  C   UNL     1      38.963 -12.507   2.345  1.00  0.00     0.018 A 
HETATM    4  C   UNL     1      38.549 -11.480   3.188  1.00  0.00     0.001 A 
HETATM    5  C   UNL     1      38.771 -11.583   4.557  1.00  0.00     0.001 A 
HETATM    6  C   UNL     1      39.422 -12.704   5.079  1.00  0.00     0.019 A 
ENDROOT
BRANCH   2   7
HETATM    7  C   UNL     1      39.970 -14.682   1.896  1.00  0.00     0.253 C 
HETATM    8  N   UNL     1      41.110 -14.475   1.138  1.00  0.00    -0.354 N 
HETATM    9  H   UNL     1      41.563 -13.577   1.275  1.00  0.00     0.162 HD
HETATM   10  O   UNL     1      39.205 -15.620   1.716  1.00  0.00    -0.268 OA
BRANCH   8  11
HETATM   11  C   UNL     1      41.200 -15.078  -0.193  1.00  0.00     0.161 C 
BRANCH  11  12
HETATM   12  C   UNL     1      40.909 -14.120  -1.382  1.00  0.00     0.245 C 
BRANCH  12  13
HETATM   13  N   UNL     1      42.120 -13.518  -2.109  1.00  0.00    -0.061 N 
HETATM   14  H   UNL     1      42.787 -14.298  -2.170  1.00  0.00     0.280 HD
HETATM   15  C   UNL     1      42.894 -12.373  -1.491  1.00  0.00     0.236 C 
HETATM   16  C   UNL     1      42.598 -11.159  -2.357  1.00  0.00     0.029 C 
HETATM   17  C   UNL     1      41.546 -11.603  -3.357  1.00  0.00     0.029 C 
HETATM   18  C   UNL     1      41.826 -13.077  -3.520  1.00  0.00     0.236 C 
ENDBRANCH  12  13
BRANCH  12  19
HETATM   19  C   UNL     1      39.995 -14.805  -2.379  1.00  0.00     0.015 A 
HETATM   20  S   UNL     1      38.412 -14.199  -2.667  1.00  0.00    -0.104 SA
HETATM   21  C   UNL     1      38.089 -15.406  -3.830  1.00  0.00     0.050 A 
HETATM   22  C   UNL     1      39.159 -16.253  -4.005  1.00  0.00     0.008 A 
HETATM   23  C   UNL     1      40.259 -15.912  -3.165  1.00  0.00     0.017 A 
ENDBRANCH  12  19
ENDBRANCH  11  12
ENDBRANCH   8  11
ENDBRANCH   2   7
BRANCH   1  24
HETATM   24  S   UNL     1      40.734 -15.130   4.973  1.00  0.00    -0.120 SA
BRANCH  24  25
HETATM   25  C   UNL     1      42.494 -14.728   4.667  1.00  0.00     0.182 C 
BRANCH  25  26
HETATM   26  C   UNL     1      43.177 -15.788   3.819  1.00  0.00     0.231 C 
HETATM   27  N   UNL     1      43.180 -17.036   4.425  1.00  0.00    -0.327 N 
HETATM   28  H   UNL     1      42.949 -17.085   5.408  1.00  0.00     0.169 HD
HETATM   29  O   UNL     1      43.630 -15.523   2.710  1.00  0.00    -0.272 OA
BRANCH  27  30
HETATM   30  C   UNL     1      43.444 -18.277   3.812  1.00  0.00     0.034 A 
HETATM   31  C   UNL     1      44.384 -19.195   4.281  1.00  0.00     0.030 A 
HETATM   32  C   UNL     1      44.647 -20.368   3.566  1.00  0.00     0.009 A 
HETATM   33  C   UNL     1      43.976 -20.640   2.370  1.00  0.00    -0.062 A 
HETATM   34  C   UNL     1      44.257 -21.908   1.620  1.00  0.00     0.048 C 
HETATM   35  C   UNL     1      43.013 -19.737   1.915  1.00  0.00     0.009 A 
HETATM   36  C   UNL     1      42.755 -18.563   2.626  1.00  0.00     0.030 A 
ENDBRANCH  27  30
ENDBRANCH  25  26
ENDBRANCH  24  25
ENDBRANCH   1  24
TORSDOF 9
ENDMDL
MODEL 2
REMARK VINA RESULT:      -8.6      0.773      1.283
REMARK  9 active torsions:
REMARK  status: ('A' for Active; 'I' for Inactive)
REMARK    1  A    between atoms: C_5  and  N_6 
REMARK       I    between atoms: N_6  and  C_7 
REMARK    2  A    between atoms: C_7  and  C_8 
REMARK    3  A    between atoms: C_8  and  S_9 
REMARK    4  A    between atoms: S_9  and  C_10 
REMARK    5  A    between atoms: C_11  and  C_12 
REMARK       I    between atoms: C_12  and  N_13 
REMARK    6  A    between atoms: N_13  and  C_14 
REMARK    7  A    between atoms: C_14  and  C_15 
REMARK    8  A    between atoms: C_15  and  N_16 
REMARK    9  A    between atoms: C_15  and  C_22 
ROOT
HETATM    1  C   UNL     1      39.947 -13.719   4.493  1.00  0.00     0.016 A 
HETATM    2  C   UNL     1      39.657 -13.438   3.149  1.00  0.00     0.048 A 
HETATM    3  C   UNL     1      39.028 -12.237   2.781  1.00  0.00     0.018 A 
HETATM    4  C   UNL     1      38.680 -11.304   3.754  1.00  0.00     0.001 A 
HETATM    5  C   UNL     1      38.922 -11.586   5.095  1.00  0.00     0.001 A 
HETATM    6  C   UNL     1      39.529 -12.791   5.459  1.00  0.00     0.019 A 
ENDROOT
BRANCH   2   7
HETATM    7  C   UNL     1      39.922 -14.382   2.045  1.00  0.00     0.253 C 
HETATM    8  N   UNL     1      41.053 -14.131   1.287  1.00  0.00    -0.354 N 
HETATM    9  H   UNL     1      41.550 -13.277   1.520  1.00  0.00     0.162 HD
HETATM   10  O   UNL     1      39.111 -15.257   1.772  1.00  0.00    -0.268 OA
BRANCH   8  11
HETATM   11  C   UNL     1      41.087 -14.569  -0.110  1.00  0.00     0.161 C 
BRANCH  11  12
HETATM   12  C   UNL     1      40.273 -13.695  -1.104  1.00  0.00     0.245 C 
BRANCH  12  13
HETATM   13  N   UNL     1      40.987 -12.481  -1.717  1.00  0.00    -0.061 N 
HETATM   14  H   UNL     1      40.700 -12.495  -2.704  1.00  0.00     0.280 HD
HETATM   15  C   UNL     1      42.499 -12.413  -1.738  1.00  0.00     0.236 C 
HETATM   16  C   UNL     1      42.877 -11.314  -0.757  1.00  0.00     0.029 C 
HETATM   17  C   UNL     1      41.583 -10.886  -0.089  1.00  0.00     0.029 C 
HETATM   18  C   UNL     1      40.541 -11.159  -1.146  1.00  0.00     0.236 C 
ENDBRANCH  12  13
BRANCH  12  19
HETATM   19  C   UNL     1      39.702 -14.569  -2.204  1.00  0.00     0.015 A 
HETATM   20  S   UNL     1      38.125 -14.270  -2.822  1.00  0.00    -0.104 SA
HETATM   21  C   UNL     1      38.247 -15.555  -3.939  1.00  0.00     0.050 A 
HETATM   22  C   UNL     1      39.460 -16.199  -3.855  1.00  0.00     0.008 A 
HETATM   23  C   UNL     1      40.300 -15.635  -2.851  1.00  0.00     0.017 A 
ENDBRANCH  12  19
ENDBRANCH  11  12
ENDBRANCH   8  11
ENDBRANCH   2   7
BRANCH   1  24
HETATM   24  S   UNL     1      40.722 -15.241   5.024  1.00  0.00    -0.120 SA
BRANCH  24  25
HETATM   25  C   UNL     1      42.498 -14.851   4.811  1.00  0.00     0.182 C 
BRANCH  25  26
HETATM   26  C   UNL     1      43.178 -15.813   3.852  1.00  0.00     0.231 C 
HETATM   27  N   UNL     1      43.283 -17.097   4.370  1.00  0.00    -0.327 N 
HETATM   28  H   UNL     1      43.119 -17.223   5.359  1.00  0.00     0.169 HD
HETATM   29  O   UNL     1      43.546 -15.452   2.740  1.00  0.00    -0.272 OA
BRANCH  27  30
HETATM   30  C   UNL     1      43.571 -18.278   3.657  1.00  0.00     0.034 A 
HETATM   31  C   UNL     1      43.003 -18.604   2.425  1.00  0.00     0.030 A 
HETATM   32  C   UNL     1      43.277 -19.837   1.823  1.00  0.00     0.009 A 
HETATM   33  C   UNL     1      44.120 -20.763   2.444  1.00  0.00    -0.062 A 
HETATM   34  C   UNL     1      44.417 -22.075   1.782  1.00  0.00     0.048 C 
HETATM   35  C   UNL     1      44.714 -20.426   3.663  1.00  0.00     0.009 A 
HETATM   36  C   UNL     1      44.435 -19.197   4.267  1.00  0.00     0.030 A 
ENDBRANCH  27  30
ENDBRANCH  25  26
ENDBRANCH  24  25
ENDBRANCH   1  24
TORSDOF 9
ENDMDL
MODEL 3
REMARK VINA RESULT:      -8.5      4.661      9.049
REMARK  9 active torsions:
REMARK  status: ('A' for Active; 'I' for Inactive)
REMARK    1  A    between atoms: C_5  and  N_6 
REMARK       I    between atoms: N_6  and  C_7 
REMARK    2  A    between atoms: C_7  and  C_8 
REMARK    3  A    between atoms: C_8  and  S_9 
REMARK    4  A    between atoms: S_9  and  C_10 
REMARK    5  A    between atoms: C_11  and  C_12 
REMARK       I    between atoms: C_12  and  N_13 
REMARK    6  A    between atoms: N_13  and  C_14 
REMARK    7  A    between atoms: C_14  and  C_15 
REMARK    8  A    between atoms: C_15  and  N_16 
REMARK    9  A    between atoms: C_15  and  C_22 
ROOT
HETATM    1  C   UNL     1      40.721 -13.226   4.358  1.00  0.00     0.016 A 
HETATM    2  C   UNL     1      40.557 -14.548   3.916  1.00  0.00     0.048 A 
HETATM    3  C   UNL     1      39.767 -14.840   2.791  1.00  0.00     0.018 A 
HETATM    4  C   UNL     1      39.129 -13.815   2.099  1.00  0.00     0.001 A 
HETATM    5  C   UNL     1      39.248 -12.504   2.550  1.00  0.00     0.001 A 
HETATM    6  C   UNL     1      40.017 -12.219   3.681  1.00  0.00     0.019 A 
ENDROOT
BRANCH   2   7
HETATM    7  C   UNL     1      41.132 -15.717   4.611  1.00  0.00     0.253 C 
HETATM    8  N   UNL     1      42.065 -16.451   3.899  1.00  0.00    -0.354 N 
HETATM    9  H   UNL     1      42.207 -16.155   2.938  1.00  0.00     0.162 HD
HETATM   10  O   UNL     1      40.707 -16.054   5.708  1.00  0.00    -0.268 OA
BRANCH   8  11
HETATM   11  C   UNL     1      42.228 -17.876   4.196  1.00  0.00     0.161 C 
BRANCH  11  12
HETATM   12  C   UNL     1      43.691 -18.348   4.426  1.00  0.00     0.245 C 
BRANCH  12  13
HETATM   13  N   UNL     1      44.149 -18.527   5.880  1.00  0.00    -0.061 N 
HETATM   14  H   UNL     1      44.646 -19.428   5.876  1.00  0.00     0.280 HD
HETATM   15  C   UNL     1      43.131 -18.635   6.996  1.00  0.00     0.236 C 
HETATM   16  C   UNL     1      43.264 -17.352   7.802  1.00  0.00     0.029 C 
HETATM   17  C   UNL     1      44.246 -16.479   7.042  1.00  0.00     0.029 C 
HETATM   18  C   UNL     1      45.132 -17.482   6.344  1.00  0.00     0.236 C 
ENDBRANCH  12  13
BRANCH  12  19
HETATM   19  C   UNL     1      43.946 -19.621   3.642  1.00  0.00     0.015 A 
HETATM   20  S   UNL     1      44.794 -20.931   4.364  1.00  0.00    -0.104 SA
HETATM   21  C   UNL     1      44.643 -21.890   2.960  1.00  0.00     0.050 A 
HETATM   22  C   UNL     1      43.959 -21.237   1.960  1.00  0.00     0.008 A 
HETATM   23  C   UNL     1      43.560 -19.925   2.350  1.00  0.00     0.017 A 
ENDBRANCH  12  19
ENDBRANCH  11  12
ENDBRANCH   8  11
ENDBRANCH   2   7
BRANCH   1  24
HETATM   24  S   UNL     1      41.693 -12.795   5.797  1.00  0.00    -0.120 SA
BRANCH  24  25
HETATM   25  C   UNL     1      40.558 -11.671   6.692  1.00  0.00     0.182 C 
BRANCH  25  26
HETATM   26  C   UNL     1      41.303 -10.770   7.662  1.00  0.00     0.231 C 
HETATM   27  N   UNL     1      40.974 -11.024   8.986  1.00  0.00    -0.327 N 
HETATM   28  H   UNL     1      40.155 -11.587   9.170  1.00  0.00     0.169 HD
HETATM   29  O   UNL     1      42.122  -9.946   7.267  1.00  0.00    -0.272 OA
BRANCH  27  30
HETATM   30  C   UNL     1      41.679 -10.603  10.132  1.00  0.00     0.034 A 
HETATM   31  C   UNL     1      42.828 -11.228  10.614  1.00  0.00     0.030 A 
HETATM   32  C   UNL     1      43.420 -10.800  11.807  1.00  0.00     0.009 A 
HETATM   33  C   UNL     1      42.871  -9.742  12.537  1.00  0.00    -0.062 A 
HETATM   34  C   UNL     1      43.523  -9.283  13.807  1.00  0.00     0.048 C 
HETATM   35  C   UNL     1      41.737  -9.095  12.040  1.00  0.00     0.009 A 
HETATM   36  C   UNL     1      41.142  -9.527  10.852  1.00  0.00     0.030 A 
ENDBRANCH  27  30
ENDBRANCH  25  26
ENDBRANCH  24  25
ENDBRANCH   1  24
TORSDOF 9
ENDMDL
MODEL 4
REMARK VINA RESULT:      -8.4      1.468      2.611
REMARK  9 active torsions:
REMARK  status: ('A' for Active; 'I' for Inactive)
REMARK    1  A    between atoms: C_5  and  N_6 
REMARK       I    between atoms: N_6  and  C_7 
REMARK    2  A    between atoms: C_7  and  C_8 
REMARK    3  A    between atoms: C_8  and  S_9 
REMARK    4  A    between atoms: S_9  and  C_10 
REMARK    5  A    between atoms: C_11  and  C_12 
REMARK       I    between atoms: C_12  and  N_13 
REMARK    6  A    between atoms: N_13  and  C_14 
REMARK    7  A    between atoms: C_14  and  C_15 
REMARK    8  A    between atoms: C_15  and  N_16 
REMARK    9  A    between atoms: C_15  and  C_22 
ROOT
HETATM    1  C   UNL     1      39.958 -13.822   4.929  1.00  0.00     0.016 A 
HETATM    2  C   UNL     1      39.661 -13.555   3.584  1.00  0.00     0.048 A 
HETATM    3  C   UNL     1      39.123 -12.317   3.195  1.00  0.00     0.018 A 
HETATM    4  C   UNL     1      38.874 -11.333   4.147  1.00  0.00     0.001 A 
HETATM    5  C   UNL     1      39.123 -11.598   5.490  1.00  0.00     0.001 A 
HETATM    6  C   UNL     1      39.638 -12.838   5.876  1.00  0.00     0.019 A 
ENDROOT
BRANCH   2   7
HETATM    7  C   UNL     1      39.824 -14.547   2.502  1.00  0.00     0.253 C 
HETATM    8  N   UNL     1      41.050 -14.550   1.857  1.00  0.00    -0.354 N 
HETATM    9  H   UNL     1      41.691 -13.816   2.144  1.00  0.00     0.162 HD
HETATM   10  O   UNL     1      38.876 -15.234   2.145  1.00  0.00    -0.268 OA
BRANCH   8  11
HETATM   11  C   UNL     1      41.122 -15.002   0.466  1.00  0.00     0.161 C 
BRANCH  11  12
HETATM   12  C   UNL     1      41.799 -14.012  -0.523  1.00  0.00     0.245 C 
BRANCH  12  13
HETATM   13  N   UNL     1      41.865 -14.432  -1.998  1.00  0.00    -0.061 N 
HETATM   14  H   UNL     1      42.839 -14.738  -2.127  1.00  0.00     0.280 HD
HETATM   15  C   UNL     1      41.614 -13.419  -3.095  1.00  0.00     0.236 C 
HETATM   16  C   UNL     1      40.285 -13.811  -3.723  1.00  0.00     0.029 C 
HETATM   17  C   UNL     1      39.738 -14.944  -2.873  1.00  0.00     0.029 C 
HETATM   18  C   UNL     1      40.984 -15.607  -2.338  1.00  0.00     0.236 C 
ENDBRANCH  12  13
BRANCH  12  19
HETATM   19  C   UNL     1      41.151 -12.646  -0.403  1.00  0.00     0.015 A 
HETATM   20  S   UNL     1      42.118 -11.242  -0.182  1.00  0.00    -0.104 SA
HETATM   21  C   UNL     1      40.751 -10.220  -0.172  1.00  0.00     0.050 A 
HETATM   22  C   UNL     1      39.580 -10.923  -0.338  1.00  0.00     0.008 A 
HETATM   23  C   UNL     1      39.808 -12.325  -0.466  1.00  0.00     0.017 A 
ENDBRANCH  12  19
ENDBRANCH  11  12
ENDBRANCH   8  11
ENDBRANCH   2   7
BRANCH   1  24
HETATM   24  S   UNL     1      40.618 -15.388   5.487  1.00  0.00    -0.120 SA
BRANCH  24  25
HETATM   25  C   UNL     1      42.422 -15.078   5.421  1.00  0.00     0.182 C 
BRANCH  25  26
HETATM   26  C   UNL     1      43.105 -15.934   4.369  1.00  0.00     0.231 C 
HETATM   27  N   UNL     1      43.185 -17.270   4.737  1.00  0.00    -0.327 N 
HETATM   28  H   UNL     1      43.003 -17.506   5.703  1.00  0.00     0.169 HD
HETATM   29  O   UNL     1      43.496 -15.453   3.310  1.00  0.00    -0.272 OA
BRANCH  27  30
HETATM   30  C   UNL     1      43.469 -18.366   3.898  1.00  0.00     0.034 A 
HETATM   31  C   UNL     1      42.836 -18.599   2.677  1.00  0.00     0.030 A 
HETATM   32  C   UNL     1      43.115 -19.757   1.944  1.00  0.00     0.009 A 
HETATM   33  C   UNL     1      44.029 -20.701   2.420  1.00  0.00    -0.062 A 
HETATM   34  C   UNL     1      44.330 -21.932   1.619  1.00  0.00     0.048 C 
HETATM   35  C   UNL     1      44.687 -20.454   3.628  1.00  0.00     0.009 A 
HETATM   36  C   UNL     1      44.404 -19.301   4.364  1.00  0.00     0.030 A 
ENDBRANCH  27  30
ENDBRANCH  25  26
ENDBRANCH  24  25
ENDBRANCH   1  24
TORSDOF 9
ENDMDL
MODEL 5
REMARK VINA RESULT:      -8.2      1.568      2.284
REMARK  9 active torsions:
REMARK  status: ('A' for Active; 'I' for Inactive)
REMARK    1  A    between atoms: C_5  and  N_6 
REMARK       I    between atoms: N_6  and  C_7 
REMARK    2  A    between atoms: C_7  and  C_8 
REMARK    3  A    between atoms: C_8  and  S_9 
REMARK    4  A    between atoms: S_9  and  C_10 
REMARK    5  A    between atoms: C_11  and  C_12 
REMARK       I    between atoms: C_12  and  N_13 
REMARK    6  A    between atoms: N_13  and  C_14 
REMARK    7  A    between atoms: C_14  and  C_15 
REMARK    8  A    between atoms: C_15  and  N_16 
REMARK    9  A    between atoms: C_15  and  C_22 
ROOT
HETATM    1  C   UNL     1      40.485 -15.504   2.783  1.00  0.00     0.016 A 
HETATM    2  C   UNL     1      39.920 -14.250   2.503  1.00  0.00     0.048 A 
HETATM    3  C   UNL     1      39.822 -13.263   3.499  1.00  0.00     0.018 A 
HETATM    4  C   UNL     1      40.285 -13.520   4.786  1.00  0.00     0.001 A 
HETATM    5  C   UNL     1      40.809 -14.773   5.090  1.00  0.00     0.001 A 
HETATM    6  C   UNL     1      40.885 -15.759   4.103  1.00  0.00     0.019 A 
ENDROOT
BRANCH   2   7
HETATM    7  C   UNL     1      39.339 -13.893   1.193  1.00  0.00     0.253 C 
HETATM    8  N   UNL     1      40.214 -13.355   0.265  1.00  0.00    -0.354 N 
HETATM    9  H   UNL     1      41.156 -13.189   0.604  1.00  0.00     0.162 HD
HETATM   10  O   UNL     1      38.132 -13.976   1.009  1.00  0.00    -0.268 OA
BRANCH   8  11
HETATM   11  C   UNL     1      39.696 -12.443  -0.757  1.00  0.00     0.161 C 
BRANCH  11  12
HETATM   12  C   UNL     1      40.308 -12.613  -2.176  1.00  0.00     0.245 C 
BRANCH  12  13
HETATM   13  N   UNL     1      41.833 -12.480  -2.302  1.00  0.00    -0.061 N 
HETATM   14  H   UNL     1      42.175 -13.446  -2.223  1.00  0.00     0.280 HD
HETATM   15  C   UNL     1      42.620 -11.689  -1.278  1.00  0.00     0.236 C 
HETATM   16  C   UNL     1      43.109 -10.445  -2.003  1.00  0.00     0.029 C 
HETATM   17  C   UNL     1      42.465 -10.481  -3.376  1.00  0.00     0.029 C 
HETATM   18  C   UNL     1      42.291 -11.957  -3.639  1.00  0.00     0.236 C 
ENDBRANCH  12  13
BRANCH  12  19
HETATM   19  C   UNL     1      39.853 -13.929  -2.775  1.00  0.00     0.015 A 
HETATM   20  S   UNL     1      38.272 -14.084  -3.433  1.00  0.00    -0.104 SA
HETATM   21  C   UNL     1      38.546 -15.709  -3.881  1.00  0.00     0.050 A 
HETATM   22  C   UNL     1      39.812 -16.131  -3.545  1.00  0.00     0.008 A 
HETATM   23  C   UNL     1      40.567 -15.107  -2.902  1.00  0.00     0.017 A 
ENDBRANCH  12  19
ENDBRANCH  11  12
ENDBRANCH   8  11
ENDBRANCH   2   7
BRANCH   1  24
HETATM   24  S   UNL     1      40.612 -16.807   1.565  1.00  0.00    -0.120 SA
BRANCH  24  25
HETATM   25  C   UNL     1      42.259 -16.478   0.836  1.00  0.00     0.182 C 
BRANCH  25  26
HETATM   26  C   UNL     1      43.354 -17.269   1.532  1.00  0.00     0.231 C 
HETATM   27  N   UNL     1      42.851 -18.204   2.425  1.00  0.00    -0.327 N 
HETATM   28  H   UNL     1      41.879 -18.130   2.690  1.00  0.00     0.169 HD
HETATM   29  O   UNL     1      44.538 -17.085   1.271  1.00  0.00    -0.272 OA
BRANCH  27  30
HETATM   30  C   UNL     1      43.544 -19.290   2.998  1.00  0.00     0.034 A 
HETATM   31  C   UNL     1      43.810 -20.486   2.331  1.00  0.00     0.030 A 
HETATM   32  C   UNL     1      44.429 -21.547   2.999  1.00  0.00     0.009 A 
HETATM   33  C   UNL     1      44.792 -21.430   4.343  1.00  0.00    -0.062 A 
HETATM   34  C   UNL     1      45.468 -22.570   5.045  1.00  0.00     0.048 C 
HETATM   35  C   UNL     1      44.555 -20.222   5.004  1.00  0.00     0.009 A 
HETATM   36  C   UNL     1      43.930 -19.165   4.339  1.00  0.00     0.030 A 
ENDBRANCH  27  30
ENDBRANCH  25  26
ENDBRANCH  24  25
ENDBRANCH   1  24
TORSDOF 9
ENDMDL
MODEL 6
REMARK VINA RESULT:      -8.1      4.583      8.440
REMARK  9 active torsions:
REMARK  status: ('A' for Active; 'I' for Inactive)
REMARK    1  A    between atoms: C_5  and  N_6 
REMARK       I    between atoms: N_6  and  C_7 
REMARK    2  A    between atoms: C_7  and  C_8 
REMARK    3  A    between atoms: C_8  and  S_9 
REMARK    4  A    between atoms: S_9  and  C_10 
REMARK    5  A    between atoms: C_11  and  C_12 
REMARK       I    between atoms: C_12  and  N_13 
REMARK    6  A    between atoms: N_13  and  C_14 
REMARK    7  A    between atoms: C_14  and  C_15 
REMARK    8  A    between atoms: C_15  and  N_16 
REMARK    9  A    between atoms: C_15  and  C_22 
ROOT
HETATM    1  C   UNL     1      42.224 -16.033   6.412  1.00  0.00     0.016 A 
HETATM    2  C   UNL     1      43.514 -15.557   6.695  1.00  0.00     0.048 A 
HETATM    3  C   UNL     1      44.503 -16.412   7.211  1.00  0.00     0.018 A 
HETATM    4  C   UNL     1      44.211 -17.751   7.454  1.00  0.00     0.001 A 
HETATM    5  C   UNL     1      42.926 -18.228   7.219  1.00  0.00     0.001 A 
HETATM    6  C   UNL     1      41.939 -17.370   6.725  1.00  0.00     0.019 A 
ENDROOT
BRANCH   2   7
HETATM    7  C   UNL     1      43.913 -14.144   6.538  1.00  0.00     0.253 C 
HETATM    8  N   UNL     1      43.787 -13.346   7.663  1.00  0.00    -0.354 N 
HETATM    9  H   UNL     1      43.361 -13.797   8.467  1.00  0.00     0.162 HD
HETATM   10  O   UNL     1      44.225 -13.708   5.438  1.00  0.00    -0.268 OA
BRANCH   8  11
HETATM   11  C   UNL     1      43.558 -11.910   7.496  1.00  0.00     0.161 C 
BRANCH  11  12
HETATM   12  C   UNL     1      42.722 -11.232   8.618  1.00  0.00     0.245 C 
BRANCH  12  13
HETATM   13  N   UNL     1      43.490 -10.687   9.831  1.00  0.00    -0.061 N 
HETATM   14  H   UNL     1      43.208  -9.699   9.882  1.00  0.00     0.280 HD
HETATM   15  C   UNL     1      45.004 -10.673   9.836  1.00  0.00     0.236 C 
HETATM   16  C   UNL     1      45.423 -11.712  10.865  1.00  0.00     0.029 C 
HETATM   17  C   UNL     1      44.145 -12.399  11.312  1.00  0.00     0.029 C 
HETATM   18  C   UNL     1      43.098 -11.326  11.139  1.00  0.00     0.236 C 
ENDBRANCH  12  13
BRANCH  12  19
HETATM   19  C   UNL     1      41.856 -10.140   8.021  1.00  0.00     0.015 A 
HETATM   20  S   UNL     1      41.235 -10.298   6.426  1.00  0.00    -0.104 SA
HETATM   21  C   UNL     1      40.420  -8.802   6.523  1.00  0.00     0.050 A 
HETATM   22  C   UNL     1      40.607  -8.190   7.741  1.00  0.00     0.008 A 
HETATM   23  C   UNL     1      41.439  -8.958   8.606  1.00  0.00     0.017 A 
ENDBRANCH  12  19
ENDBRANCH  11  12
ENDBRANCH   8  11
ENDBRANCH   2   7
BRANCH   1  24
HETATM   24  S   UNL     1      40.919 -14.987   5.778  1.00  0.00    -0.120 SA
BRANCH  24  25
HETATM   25  C   UNL     1      41.281 -14.984   3.984  1.00  0.00     0.182 C 
BRANCH  25  26
HETATM   26  C   UNL     1      41.391 -16.393   3.426  1.00  0.00     0.231 C 
HETATM   27  N   UNL     1      42.707 -16.801   3.265  1.00  0.00    -0.327 N 
HETATM   28  H   UNL     1      43.430 -16.097   3.312  1.00  0.00     0.169 HD
HETATM   29  O   UNL     1      40.393 -17.065   3.191  1.00  0.00    -0.272 OA
BRANCH  27  30
HETATM   30  C   UNL     1      43.169 -18.119   3.069  1.00  0.00     0.034 A 
HETATM   31  C   UNL     1      44.020 -18.787   3.949  1.00  0.00     0.030 A 
HETATM   32  C   UNL     1      44.501 -20.063   3.639  1.00  0.00     0.009 A 
HETATM   33  C   UNL     1      44.139 -20.690   2.443  1.00  0.00    -0.062 A 
HETATM   34  C   UNL     1      44.650 -22.065   2.128  1.00  0.00     0.048 C 
HETATM   35  C   UNL     1      43.263 -20.036   1.574  1.00  0.00     0.009 A 
HETATM   36  C   UNL     1      42.788 -18.758   1.881  1.00  0.00     0.030 A 
ENDBRANCH  27  30
ENDBRANCH  25  26
ENDBRANCH  24  25
ENDBRANCH   1  24
TORSDOF 9
ENDMDL
MODEL 7
REMARK VINA RESULT:      -8.0      1.942      2.708
REMARK  9 active torsions:
REMARK  status: ('A' for Active; 'I' for Inactive)
REMARK    1  A    between atoms: C_5  and  N_6 
REMARK       I    between atoms: N_6  and  C_7 
REMARK    2  A    between atoms: C_7  and  C_8 
REMARK    3  A    between atoms: C_8  and  S_9 
REMARK    4  A    between atoms: S_9  and  C_10 
REMARK    5  A    between atoms: C_11  and  C_12 
REMARK       I    between atoms: C_12  and  N_13 
REMARK    6  A    between atoms: N_13  and  C_14 
REMARK    7  A    between atoms: C_14  and  C_15 
REMARK    8  A    between atoms: C_15  and  N_16 
REMARK    9  A    between atoms: C_15  and  C_22 
ROOT
HETATM    1  C   UNL     1      41.737 -13.361   5.151  1.00  0.00     0.016 A 
HETATM    2  C   UNL     1      41.356 -12.705   3.970  1.00  0.00     0.048 A 
HETATM    3  C   UNL     1      40.087 -12.112   3.850  1.00  0.00     0.018 A 
HETATM    4  C   UNL     1      39.185 -12.172   4.908  1.00  0.00     0.001 A 
HETATM    5  C   UNL     1      39.532 -12.855   6.069  1.00  0.00     0.001 A 
HETATM    6  C   UNL     1      40.786 -13.460   6.178  1.00  0.00     0.019 A 
ENDROOT
BRANCH   2   7
HETATM    7  C   UNL     1      42.207 -12.639   2.765  1.00  0.00     0.253 C 
HETATM    8  N   UNL     1      41.722 -11.871   1.718  1.00  0.00    -0.354 N 
HETATM    9  H   UNL     1      40.791 -11.490   1.856  1.00  0.00     0.162 HD
HETATM   10  O   UNL     1      43.219 -13.321   2.685  1.00  0.00    -0.268 OA
BRANCH   8  11
HETATM   11  C   UNL     1      42.117 -12.205   0.348  1.00  0.00     0.161 C 
BRANCH  11  12
HETATM   12  C   UNL     1      41.079 -13.029  -0.464  1.00  0.00     0.245 C 
BRANCH  12  13
HETATM   13  N   UNL     1      41.524 -13.559  -1.835  1.00  0.00    -0.061 N 
HETATM   14  H   UNL     1      41.831 -14.522  -1.642  1.00  0.00     0.280 HD
HETATM   15  C   UNL     1      42.675 -12.909  -2.571  1.00  0.00     0.236 C 
HETATM   16  C   UNL     1      42.057 -12.212  -3.773  1.00  0.00     0.029 C 
HETATM   17  C   UNL     1      40.555 -12.354  -3.612  1.00  0.00     0.029 C 
HETATM   18  C   UNL     1      40.409 -13.646  -2.846  1.00  0.00     0.236 C 
ENDBRANCH  12  13
BRANCH  12  19
HETATM   19  C   UNL     1      40.553 -14.169   0.386  1.00  0.00     0.015 A 
HETATM   20  S   UNL     1      41.484 -15.600   0.593  1.00  0.00    -0.104 SA
HETATM   21  C   UNL     1      40.306 -16.299   1.611  1.00  0.00     0.050 A 
HETATM   22  C   UNL     1      39.226 -15.466   1.799  1.00  0.00     0.008 A 
HETATM   23  C   UNL     1      39.365 -14.238   1.089  1.00  0.00     0.017 A 
ENDBRANCH  12  19
ENDBRANCH  11  12
ENDBRANCH   8  11
ENDBRANCH   2   7
BRANCH   1  24
HETATM   24  S   UNL     1      43.327 -14.155   5.353  1.00  0.00    -0.120 SA
BRANCH  24  25
HETATM   25  C   UNL     1      42.896 -15.592   6.402  1.00  0.00     0.182 C 
BRANCH  25  26
HETATM   26  C   UNL     1      42.551 -16.816   5.571  1.00  0.00     0.231 C 
HETATM   27  N   UNL     1      43.556 -17.153   4.675  1.00  0.00    -0.327 N 
HETATM   28  H   UNL     1      44.281 -16.472   4.500  1.00  0.00     0.169 HD
HETATM   29  O   UNL     1      41.499 -17.424   5.737  1.00  0.00    -0.272 OA
BRANCH  27  30
HETATM   30  C   UNL     1      43.704 -18.373   3.984  1.00  0.00     0.034 A 
HETATM   31  C   UNL     1      44.447 -19.454   4.460  1.00  0.00     0.030 A 
HETATM   32  C   UNL     1      44.614 -20.599   3.674  1.00  0.00     0.009 A 
HETATM   33  C   UNL     1      44.042 -20.681   2.402  1.00  0.00    -0.062 A 
HETATM   34  C   UNL     1      44.216 -21.920   1.575  1.00  0.00     0.048 C 
HETATM   35  C   UNL     1      43.271 -19.613   1.937  1.00  0.00     0.009 A 
HETATM   36  C   UNL     1      43.110 -18.466   2.718  1.00  0.00     0.030 A 
ENDBRANCH  27  30
ENDBRANCH  25  26
ENDBRANCH  24  25
ENDBRANCH   1  24
TORSDOF 9
ENDMDL
MODEL 8
REMARK VINA RESULT:      -7.9      5.151      9.382
REMARK  9 active torsions:
REMARK  status: ('A' for Active; 'I' for Inactive)
REMARK    1  A    between atoms: C_5  and  N_6 
REMARK       I    between atoms: N_6  and  C_7 
REMARK    2  A    between atoms: C_7  and  C_8 
REMARK    3  A    between atoms: C_8  and  S_9 
REMARK    4  A    between atoms: S_9  and  C_10 
REMARK    5  A    between atoms: C_11  and  C_12 
REMARK       I    between atoms: C_12  and  N_13 
REMARK    6  A    between atoms: N_13  and  C_14 
REMARK    7  A    between atoms: C_14  and  C_15 
REMARK    8  A    between atoms: C_15  and  N_16 
REMARK    9  A    between atoms: C_15  and  C_22 
ROOT
HETATM    1  C   UNL     1      41.186 -12.578   5.064  1.00  0.00     0.016 A 
HETATM    2  C   UNL     1      40.819 -11.410   5.751  1.00  0.00     0.048 A 
HETATM    3  C   UNL     1      39.596 -10.770   5.487  1.00  0.00     0.018 A 
HETATM    4  C   UNL     1      38.729 -11.289   4.530  1.00  0.00     0.001 A 
HETATM    5  C   UNL     1      39.097 -12.422   3.810  1.00  0.00     0.001 A 
HETATM    6  C   UNL     1      40.323 -13.044   4.062  1.00  0.00     0.019 A 
ENDROOT
BRANCH   2   7
HETATM    7  C   UNL     1      41.690 -10.738   6.737  1.00  0.00     0.253 C 
HETATM    8  N   UNL     1      41.899 -11.415   7.927  1.00  0.00    -0.354 N 
HETATM    9  H   UNL     1      41.371 -12.275   8.034  1.00  0.00     0.162 HD
HETATM   10  O   UNL     1      42.095  -9.602   6.530  1.00  0.00    -0.268 OA
BRANCH   8  11
HETATM   11  C   UNL     1      42.191 -10.649   9.140  1.00  0.00     0.161 C 
BRANCH  11  12
HETATM   12  C   UNL     1      41.192 -10.850  10.314  1.00  0.00     0.245 C 
BRANCH  12  13
HETATM   13  N   UNL     1      41.743 -11.475  11.603  1.00  0.00    -0.061 N 
HETATM   14  H   UNL     1      41.405 -12.446  11.574  1.00  0.00     0.280 HD
HETATM   15  C   UNL     1      41.318 -10.941  12.955  1.00  0.00     0.236 C 
HETATM   16  C   UNL     1      42.547 -10.261  13.537  1.00  0.00     0.029 C 
HETATM   17  C   UNL     1      43.599 -10.290  12.443  1.00  0.00     0.029 C 
HETATM   18  C   UNL     1      43.248 -11.531  11.659  1.00  0.00     0.236 C 
ENDBRANCH  12  13
BRANCH  12  19
HETATM   19  C   UNL     1      40.503  -9.536  10.628  1.00  0.00     0.015 A 
HETATM   20  S   UNL     1      38.808  -9.491  10.918  1.00  0.00    -0.104 SA
HETATM   21  C   UNL     1      38.834  -7.807  11.198  1.00  0.00     0.050 A 
HETATM   22  C   UNL     1      40.101  -7.284  11.081  1.00  0.00     0.008 A 
HETATM   23  C   UNL     1      41.065  -8.279  10.747  1.00  0.00     0.017 A 
ENDBRANCH  12  19
ENDBRANCH  11  12
ENDBRANCH   8  11
ENDBRANCH   2   7
BRANCH   1  24
HETATM   24  S   UNL     1      42.739 -13.421   5.340  1.00  0.00    -0.120 SA
BRANCH  24  25
HETATM   25  C   UNL     1      42.180 -15.009   6.059  1.00  0.00     0.182 C 
BRANCH  25  26
HETATM   26  C   UNL     1      42.076 -16.101   5.008  1.00  0.00     0.231 C 
HETATM   27  N   UNL     1      43.318 -16.533   4.563  1.00  0.00    -0.327 N 
HETATM   28  H   UNL     1      44.124 -15.968   4.789  1.00  0.00     0.169 HD
HETATM   29  O   UNL     1      40.989 -16.541   4.650  1.00  0.00    -0.272 OA
BRANCH  27  30
HETATM   30  C   UNL     1      43.598 -17.711   3.840  1.00  0.00     0.034 A 
HETATM   31  C   UNL     1      43.342 -17.870   2.478  1.00  0.00     0.030 A 
HETATM   32  C   UNL     1      43.570 -19.101   1.854  1.00  0.00     0.009 A 
HETATM   33  C   UNL     1      44.057 -20.191   2.581  1.00  0.00    -0.062 A 
HETATM   34  C   UNL     1      44.312 -21.501   1.897  1.00  0.00     0.048 C 
HETATM   35  C   UNL     1      44.343 -20.024   3.938  1.00  0.00     0.009 A 
HETATM   36  C   UNL     1      44.109 -18.797   4.563  1.00  0.00     0.030 A 
ENDBRANCH  27  30
ENDBRANCH  25  26
ENDBRANCH  24  25
ENDBRANCH   1  24
TORSDOF 9
ENDMDL
MODEL 9
REMARK VINA RESULT:      -7.8      1.993      3.323
REMARK  9 active torsions:
REMARK  status: ('A' for Active; 'I' for Inactive)
REMARK    1  A    between atoms: C_5  and  N_6 
REMARK       I    between atoms: N_6  and  C_7 
REMARK    2  A    between atoms: C_7  and  C_8 
REMARK    3  A    between atoms: C_8  and  S_9 
REMARK    4  A    between atoms: S_9  and  C_10 
REMARK    5  A    between atoms: C_11  and  C_12 
REMARK       I    between atoms: C_12  and  N_13 
REMARK    6  A    between atoms: N_13  and  C_14 
REMARK    7  A    between atoms: C_14  and  C_15 
REMARK    8  A    between atoms: C_15  and  N_16 
REMARK    9  A    between atoms: C_15  and  C_22 
ROOT
HETATM    1  C   UNL     1      41.694 -13.236   4.817  1.00  0.00     0.016 A 
HETATM    2  C   UNL     1      40.970 -13.319   3.618  1.00  0.00     0.048 A 
HETATM    3  C   UNL     1      39.681 -12.769   3.512  1.00  0.00     0.018 A 
HETATM    4  C   UNL     1      39.101 -12.132   4.605  1.00  0.00     0.001 A 
HETATM    5  C   UNL     1      39.789 -12.078   5.813  1.00  0.00     0.001 A 
HETATM    6  C   UNL     1      41.061 -12.645   5.921  1.00  0.00     0.019 A 
ENDROOT
BRANCH   2   7
HETATM    7  C   UNL     1      41.460 -14.028   2.418  1.00  0.00     0.253 C 
HETATM    8  N   UNL     1      41.815 -13.231   1.343  1.00  0.00    -0.354 N 
HETATM    9  H   UNL     1      41.631 -12.239   1.459  1.00  0.00     0.162 HD
HETATM   10  O   UNL     1      41.438 -15.250   2.370  1.00  0.00    -0.268 OA
BRANCH   8  11
HETATM   11  C   UNL     1      41.718 -13.779  -0.012  1.00  0.00     0.161 C 
BRANCH  11  12
HETATM   12  C   UNL     1      41.261 -12.775  -1.108  1.00  0.00     0.245 C 
BRANCH  12  13
HETATM   13  N   UNL     1      39.757 -12.489  -1.213  1.00  0.00    -0.061 N 
HETATM   14  H   UNL     1      39.617 -11.664  -0.615  1.00  0.00     0.280 HD
HETATM   15  C   UNL     1      38.748 -13.510  -0.731  1.00  0.00     0.236 C 
HETATM   16  C   UNL     1      38.068 -14.042  -1.983  1.00  0.00     0.029 C 
HETATM   17  C   UNL     1      38.807 -13.425  -3.156  1.00  0.00     0.029 C 
HETATM   18  C   UNL     1      39.303 -12.112  -2.600  1.00  0.00     0.236 C 
ENDBRANCH  12  13
BRANCH  12  19
HETATM   19  C   UNL     1      42.026 -11.473  -0.958  1.00  0.00     0.015 A 
HETATM   20  S   UNL     1      41.360 -10.173  -0.051  1.00  0.00    -0.104 SA
HETATM   21  C   UNL     1      42.729  -9.192  -0.326  1.00  0.00     0.050 A 
HETATM   22  C   UNL     1      43.680  -9.834  -1.086  1.00  0.00     0.008 A 
HETATM   23  C   UNL     1      43.274 -11.149  -1.457  1.00  0.00     0.017 A 
ENDBRANCH  12  19
ENDBRANCH  11  12
ENDBRANCH   8  11
ENDBRANCH   2   7
BRANCH   1  24
HETATM   24  S   UNL     1      43.326 -13.940   5.019  1.00  0.00    -0.120 SA
BRANCH  24  25
HETATM   25  C   UNL     1      43.002 -15.302   6.199  1.00  0.00     0.182 C 
BRANCH  25  26
HETATM   26  C   UNL     1      42.626 -16.590   5.487  1.00  0.00     0.231 C 
HETATM   27  N   UNL     1      43.533 -16.935   4.494  1.00  0.00    -0.327 N 
HETATM   28  H   UNL     1      44.195 -16.234   4.194  1.00  0.00     0.169 HD
HETATM   29  O   UNL     1      41.635 -17.235   5.815  1.00  0.00    -0.272 OA
BRANCH  27  30
HETATM   30  C   UNL     1      43.662 -18.188   3.861  1.00  0.00     0.034 A 
HETATM   31  C   UNL     1      44.383 -19.259   4.389  1.00  0.00     0.030 A 
HETATM   32  C   UNL     1      44.533 -20.441   3.657  1.00  0.00     0.009 A 
HETATM   33  C   UNL     1      43.967 -20.571   2.386  1.00  0.00    -0.062 A 
HETATM   34  C   UNL     1      44.123 -21.849   1.617  1.00  0.00     0.048 C 
HETATM   35  C   UNL     1      43.219 -19.511   1.868  1.00  0.00     0.009 A 
HETATM   36  C   UNL     1      43.074 -18.327   2.597  1.00  0.00     0.030 A 
ENDBRANCH  27  30
ENDBRANCH  25  26
ENDBRANCH  24  25
ENDBRANCH   1  24
TORSDOF 9
ENDMDL
MODEL 10
REMARK VINA RESULT:      -7.7      4.607      8.843
REMARK  9 active torsions:
REMARK  status: ('A' for Active; 'I' for Inactive)
REMARK    1  A    between atoms: C_5  and  N_6 
REMARK       I    between atoms: N_6  and  C_7 
REMARK    2  A    between atoms: C_7  and  C_8 
REMARK    3  A    between atoms: C_8  and  S_9 
REMARK    4  A    between atoms: S_9  and  C_10 
REMARK    5  A    between atoms: C_11  and  C_12 
REMARK       I    between atoms: C_12  and  N_13 
REMARK    6  A    between atoms: N_13  and  C_14 
REMARK    7  A    between atoms: C_14  and  C_15 
REMARK    8  A    between atoms: C_15  and  N_16 
REMARK    9  A    between atoms: C_15  and  C_22 
ROOT
HETATM    1  C   UNL     1      40.294 -11.848   4.235  1.00  0.00     0.016 A 
HETATM    2  C   UNL     1      40.655 -12.637   3.132  1.00  0.00     0.048 A 
HETATM    3  C   UNL     1      39.839 -12.698   1.989  1.00  0.00     0.018 A 
HETATM    4  C   UNL     1      38.651 -11.973   1.939  1.00  0.00     0.001 A 
HETATM    5  C   UNL     1      38.259 -11.220   3.042  1.00  0.00     0.001 A 
HETATM    6  C   UNL     1      39.063 -11.178   4.184  1.00  0.00     0.019 A 
ENDROOT
BRANCH   2   7
HETATM    7  C   UNL     1      41.856 -13.495   3.102  1.00  0.00     0.253 C 
HETATM    8  N   UNL     1      41.758 -14.704   3.771  1.00  0.00    -0.354 N 
HETATM    9  H   UNL     1      40.892 -14.848   4.280  1.00  0.00     0.162 HD
HETATM   10  O   UNL     1      42.896 -13.086   2.604  1.00  0.00    -0.268 OA
BRANCH   8  11
HETATM   11  C   UNL     1      42.970 -15.315   4.319  1.00  0.00     0.161 C 
BRANCH  11  12
HETATM   12  C   UNL     1      42.971 -16.869   4.371  1.00  0.00     0.245 C 
BRANCH  12  13
HETATM   13  N   UNL     1      43.725 -17.607   3.256  1.00  0.00    -0.061 N 
HETATM   14  H   UNL     1      44.619 -17.871   3.692  1.00  0.00     0.280 HD
HETATM   15  C   UNL     1      44.098 -16.887   1.977  1.00  0.00     0.236 C 
HETATM   16  C   UNL     1      43.226 -17.496   0.891  1.00  0.00     0.029 C 
HETATM   17  C   UNL     1      42.272 -18.440   1.599  1.00  0.00     0.029 C 
HETATM   18  C   UNL     1      43.058 -18.883   2.809  1.00  0.00     0.236 C 
ENDBRANCH  12  13
BRANCH  12  19
HETATM   19  C   UNL     1      43.465 -17.335   5.727  1.00  0.00     0.015 A 
HETATM   20  S   UNL     1      42.505 -17.095   7.132  1.00  0.00    -0.104 SA
HETATM   21  C   UNL     1      43.659 -17.857   8.132  1.00  0.00     0.050 A 
HETATM   22  C   UNL     1      44.753 -18.292   7.420  1.00  0.00     0.008 A 
HETATM   23  C   UNL     1      44.646 -17.987   6.032  1.00  0.00     0.017 A 
ENDBRANCH  12  19
ENDBRANCH  11  12
ENDBRANCH   8  11
ENDBRANCH   2   7
BRANCH   1  24
HETATM   24  S   UNL     1      41.279 -11.751   5.725  1.00  0.00    -0.120 SA
BRANCH  24  25
HETATM   25  C   UNL     1      39.991 -11.579   7.015  1.00  0.00     0.182 C 
BRANCH  25  26
HETATM   26  C   UNL     1      40.435 -10.658   8.138  1.00  0.00     0.231 C 
HETATM   27  N   UNL     1      40.504 -11.305   9.363  1.00  0.00    -0.327 N 
HETATM   28  H   UNL     1      40.065 -12.211   9.445  1.00  0.00     0.169 HD
HETATM   29  O   UNL     1      40.721  -9.484   7.925  1.00  0.00    -0.272 OA
BRANCH  27  30
HETATM   30  C   UNL     1      41.155 -10.851  10.528  1.00  0.00     0.034 A 
HETATM   31  C   UNL     1      40.490 -10.391  11.665  1.00  0.00     0.030 A 
HETATM   32  C   UNL     1      41.211  -9.877  12.748  1.00  0.00     0.009 A 
HETATM   33  C   UNL     1      42.607  -9.813  12.711  1.00  0.00    -0.062 A 
HETATM   34  C   UNL     1      43.369  -9.273  13.884  1.00  0.00     0.048 C 
HETATM   35  C   UNL     1      43.276 -10.301  11.586  1.00  0.00     0.009 A 
HETATM   36  C   UNL     1      42.556 -10.808  10.501  1.00  0.00     0.030 A 
ENDBRANCH  27  30
ENDBRANCH  25  26
ENDBRANCH  24  25
ENDBRANCH   1  24
TORSDOF 9
ENDMDL
