MODEL 1
REMARK VINA RESULT:      -9.6      0.000      0.000
REMARK  6 active torsions:
REMARK  status: ('A' for Active; 'I' for Inactive)
REMARK    1  A    between atoms: C_3  and  C_4 
REMARK       I    between atoms: C_4  and  N_5 
REMARK    2  A    between atoms: N_5  and  C_6 
REMARK    3  A    between atoms: C_6  and  C_7 
REMARK    4  A    between atoms: C_6  and  C_22 
REMARK       I    between atoms: C_7  and  N_8 
REMARK    5  A    between atoms: N_8  and  C_9 
REMARK    6  A    between atoms: C_11  and  C_12 
ROOT
HETATM    1  C   UNL     1      42.709 -15.622   4.295  1.00  0.00     0.245 C 
HETATM    2  N   UNL     1      41.882 -16.210   3.357  1.00  0.00    -0.325 N 
HETATM    3  O   UNL     1      43.048 -14.440   4.322  1.00  0.00    -0.271 OA
HETATM    4  H   UNL     1      41.847 -17.231   3.388  1.00  0.00     0.169 HD
ENDROOT
BRANCH   1   5
HETATM    5  C   UNL     1      43.185 -16.591   5.411  1.00  0.00     0.180 C 
BRANCH   5   6
HETATM    6  N   UNL     1      43.330 -17.959   4.906  1.00  0.00    -0.343 N 
HETATM    7  C   UNL     1      44.463 -18.724   5.055  1.00  0.00     0.252 C 
HETATM    8  O   UNL     1      45.448 -18.342   5.677  1.00  0.00    -0.268 OA
HETATM    9  H   UNL     1      42.644 -18.261   4.227  1.00  0.00     0.163 HD
BRANCH   7  10
HETATM   10  C   UNL     1      44.472 -20.040   4.355  1.00  0.00     0.037 A 
HETATM   11  C   UNL     1      44.258 -20.207   2.970  1.00  0.00    -0.046 A 
HETATM   12  C   UNL     1      43.929 -19.075   2.035  1.00  0.00     0.049 C 
HETATM   13  C   UNL     1      44.352 -21.502   2.428  1.00  0.00     0.007 A 
HETATM   14  C   UNL     1      44.599 -22.608   3.243  1.00  0.00     0.001 A 
HETATM   15  C   UNL     1      44.759 -22.442   4.614  1.00  0.00     0.001 A 
HETATM   16  C   UNL     1      44.696 -21.164   5.168  1.00  0.00     0.017 A 
ENDBRANCH   7  10
ENDBRANCH   5   6
BRANCH   5  17
HETATM   17  C   UNL     1      42.361 -16.488   6.720  1.00  0.00     0.009 C 
HETATM   18  C   UNL     1      40.929 -16.997   6.511  1.00  0.00     0.012 C 
HETATM   19  C   UNL     1      43.012 -17.287   7.857  1.00  0.00     0.012 C 
ENDBRANCH   5  17
ENDBRANCH   1   5
BRANCH   2  20
HETATM   20  C   UNL     1      41.123 -15.588   2.349  1.00  0.00     0.035 A 
HETATM   21  C   UNL     1      41.527 -15.484   1.013  1.00  0.00     0.042 A 
HETATM   22  C   UNL     1      40.736 -14.821   0.058  1.00  0.00    -0.021 A 
HETATM   23  C   UNL     1      39.532 -14.239   0.479  1.00  0.00     0.012 A 
HETATM   24  C   UNL     1      39.118 -14.338   1.809  1.00  0.00     0.003 A 
HETATM   25  C   UNL     1      39.907 -15.019   2.735  1.00  0.00     0.029 A 
BRANCH  22  26
HETATM   26  C   UNL     1      41.171 -14.754  -1.335  1.00  0.00     0.010 A 
HETATM   27  C   UNL     1      40.908 -15.616  -2.431  1.00  0.00     0.152 A 
HETATM   28  N   UNL     1      41.477 -15.205  -3.569  1.00  0.00    -0.187 NA
HETATM   29  N   UNL     1      42.102 -14.075  -3.212  1.00  0.00    -0.289 N 
HETATM   30  H   UNL     1      42.612 -13.563  -3.924  1.00  0.00     0.188 HD
HETATM   31  C   UNL     1      41.952 -13.761  -1.892  1.00  0.00     0.123 A 
ENDBRANCH  22  26
ENDBRANCH   2  20
TORSDOF 6
ENDMDL
MODEL 2
REMARK VINA RESULT:      -8.9      1.869      2.974
REMARK  6 active torsions:
REMARK  status: ('A' for Active; 'I' for Inactive)
REMARK    1  A    between atoms: C_3  and  C_4 
REMARK       I    between atoms: C_4  and  N_5 
REMARK    2  A    between atoms: N_5  and  C_6 
REMARK    3  A    between atoms: C_6  and  C_7 
REMARK    4  A    between atoms: C_6  and  C_22 
REMARK       I    between atoms: C_7  and  N_8 
REMARK    5  A    between atoms: N_8  and  C_9 
REMARK    6  A    between atoms: C_11  and  C_12 
ROOT
HETATM    1  C   UNL     1      40.840 -15.470   2.522  1.00  0.00     0.245 C 
HETATM    2  N   UNL     1      41.554 -14.514   1.826  1.00  0.00    -0.325 N 
HETATM    3  O   UNL     1      39.808 -16.021   2.143  1.00  0.00    -0.271 OA
HETATM    4  H   UNL     1      42.285 -14.041   2.362  1.00  0.00     0.169 HD
ENDROOT
BRANCH   1   5
HETATM    5  C   UNL     1      41.477 -15.866   3.882  1.00  0.00     0.180 C 
BRANCH   5   6
HETATM    6  N   UNL     1      42.103 -17.190   3.815  1.00  0.00    -0.343 N 
HETATM    7  C   UNL     1      43.279 -17.459   3.156  1.00  0.00     0.252 C 
HETATM    8  O   UNL     1      43.946 -16.591   2.602  1.00  0.00    -0.268 OA
HETATM    9  H   UNL     1      41.520 -17.974   4.077  1.00  0.00     0.163 HD
BRANCH   7  10
HETATM   10  C   UNL     1      43.687 -18.890   3.082  1.00  0.00     0.037 A 
HETATM   11  C   UNL     1      44.389 -19.571   4.100  1.00  0.00    -0.046 A 
HETATM   12  C   UNL     1      44.874 -18.913   5.363  1.00  0.00     0.049 C 
HETATM   13  C   UNL     1      44.660 -20.941   3.926  1.00  0.00     0.007 A 
HETATM   14  C   UNL     1      44.291 -21.606   2.756  1.00  0.00     0.001 A 
HETATM   15  C   UNL     1      43.642 -20.917   1.737  1.00  0.00     0.001 A 
HETATM   16  C   UNL     1      43.341 -19.565   1.899  1.00  0.00     0.017 A 
ENDBRANCH   7  10
ENDBRANCH   5   6
BRANCH   5  17
HETATM   17  C   UNL     1      40.527 -15.681   5.092  1.00  0.00     0.009 C 
HETATM   18  C   UNL     1      40.917 -16.611   6.247  1.00  0.00     0.012 C 
HETATM   19  C   UNL     1      40.537 -14.231   5.596  1.00  0.00     0.012 C 
ENDBRANCH   5  17
ENDBRANCH   1   5
BRANCH   2  20
HETATM   20  C   UNL     1      41.376 -14.083   0.498  1.00  0.00     0.035 A 
HETATM   21  C   UNL     1      40.648 -14.791  -0.465  1.00  0.00     0.042 A 
HETATM   22  C   UNL     1      40.535 -14.323  -1.787  1.00  0.00    -0.021 A 
HETATM   23  C   UNL     1      41.191 -13.133  -2.130  1.00  0.00     0.012 A 
HETATM   24  C   UNL     1      41.918 -12.418  -1.177  1.00  0.00     0.003 A 
HETATM   25  C   UNL     1      42.000 -12.888   0.133  1.00  0.00     0.029 A 
BRANCH  22  26
HETATM   26  C   UNL     1      39.745 -15.069  -2.763  1.00  0.00     0.010 A 
HETATM   27  C   UNL     1      38.512 -14.756  -3.392  1.00  0.00     0.152 A 
HETATM   28  N   UNL     1      38.109 -15.696  -4.252  1.00  0.00    -0.187 NA
HETATM   29  N   UNL     1      39.082 -16.614  -4.186  1.00  0.00    -0.289 N 
HETATM   30  H   UNL     1      39.003 -17.440  -4.770  1.00  0.00     0.188 HD
HETATM   31  C   UNL     1      40.080 -16.289  -3.314  1.00  0.00     0.123 A 
ENDBRANCH  22  26
ENDBRANCH   2  20
TORSDOF 6
ENDMDL
MODEL 3
REMARK VINA RESULT:      -8.9      1.851      2.615
REMARK  6 active torsions:
REMARK  status: ('A' for Active; 'I' for Inactive)
REMARK    1  A    between atoms: C_3  and  C_4 
REMARK       I    between atoms: C_4  and  N_5 
REMARK    2  A    between atoms: N_5  and  C_6 
REMARK    3  A    between atoms: C_6  and  C_7 
REMARK    4  A    between atoms: C_6  and  C_22 
REMARK       I    between atoms: C_7  and  N_8 
REMARK    5  A    between atoms: N_8  and  C_9 
REMARK    6  A    between atoms: C_11  and  C_12 
ROOT
HETATM    1  C   UNL     1      40.592 -16.131   2.579  1.00  0.00     0.245 C 
HETATM    2  N   UNL     1      40.429 -14.814   2.197  1.00  0.00    -0.325 N 
HETATM    3  O   UNL     1      40.085 -17.111   2.035  1.00  0.00    -0.271 OA
HETATM    4  H   UNL     1      40.779 -14.120   2.862  1.00  0.00     0.169 HD
ENDROOT
BRANCH   1   5
HETATM    5  C   UNL     1      41.545 -16.322   3.790  1.00  0.00     0.180 C 
BRANCH   5   6
HETATM    6  N   UNL     1      42.185 -17.640   3.764  1.00  0.00    -0.343 N 
HETATM    7  C   UNL     1      43.362 -17.917   3.109  1.00  0.00     0.252 C 
HETATM    8  O   UNL     1      44.015 -17.061   2.523  1.00  0.00    -0.268 OA
HETATM    9  H   UNL     1      41.613 -18.421   4.056  1.00  0.00     0.163 HD
BRANCH   7  10
HETATM   10  C   UNL     1      43.786 -19.346   3.081  1.00  0.00     0.037 A 
HETATM   11  C   UNL     1      44.483 -19.989   4.126  1.00  0.00    -0.046 A 
HETATM   12  C   UNL     1      44.943 -19.290   5.376  1.00  0.00     0.049 C 
HETATM   13  C   UNL     1      44.770 -21.360   3.995  1.00  0.00     0.007 A 
HETATM   14  C   UNL     1      44.424 -22.062   2.840  1.00  0.00     0.001 A 
HETATM   15  C   UNL     1      43.782 -21.409   1.794  1.00  0.00     0.001 A 
HETATM   16  C   UNL     1      43.463 -20.058   1.914  1.00  0.00     0.017 A 
ENDBRANCH   7  10
ENDBRANCH   5   6
BRANCH   5  17
HETATM   17  C   UNL     1      40.900 -15.963   5.153  1.00  0.00     0.009 C 
HETATM   18  C   UNL     1      41.216 -17.029   6.210  1.00  0.00     0.012 C 
HETATM   19  C   UNL     1      41.385 -14.599   5.662  1.00  0.00     0.012 C 
ENDBRANCH   5  17
ENDBRANCH   1   5
BRANCH   2  20
HETATM   20  C   UNL     1      39.810 -14.309   1.038  1.00  0.00     0.035 A 
HETATM   21  C   UNL     1      40.506 -13.839  -0.082  1.00  0.00     0.042 A 
HETATM   22  C   UNL     1      39.828 -13.316  -1.199  1.00  0.00    -0.021 A 
HETATM   23  C   UNL     1      38.429 -13.253  -1.158  1.00  0.00     0.012 A 
HETATM   24  C   UNL     1      37.725 -13.720  -0.047  1.00  0.00     0.003 A 
HETATM   25  C   UNL     1      38.414 -14.255   1.040  1.00  0.00     0.029 A 
BRANCH  22  26
HETATM   26  C   UNL     1      40.581 -12.861  -2.364  1.00  0.00     0.010 A 
HETATM   27  C   UNL     1      40.276 -11.874  -3.337  1.00  0.00     0.152 A 
HETATM   28  N   UNL     1      41.237 -11.728  -4.255  1.00  0.00    -0.187 NA
HETATM   29  N   UNL     1      42.166 -12.615  -3.874  1.00  0.00    -0.289 N 
HETATM   30  H   UNL     1      43.015 -12.688  -4.425  1.00  0.00     0.188 HD
HETATM   31  C   UNL     1      41.824 -13.316  -2.754  1.00  0.00     0.123 A 
ENDBRANCH  22  26
ENDBRANCH   2  20
TORSDOF 6
ENDMDL
MODEL 4
REMARK VINA RESULT:      -8.7      2.583      3.476
REMARK  6 active torsions:
REMARK  status: ('A' for Active; 'I' for Inactive)
REMARK    1  A    between atoms: C_3  and  C_4 
REMARK       I    between atoms: C_4  and  N_5 
REMARK    2  A    between atoms: N_5  and  C_6 
REMARK    3  A    between atoms: C_6  and  C_7 
REMARK    4  A    between atoms: C_6  and  C_22 
REMARK       I    between atoms: C_7  and  N_8 
REMARK    5  A    between atoms: N_8  and  C_9 
REMARK    6  A    between atoms: C_11  and  C_12 
ROOT
HETATM    1  C   UNL     1      40.743 -16.246   2.185  1.00  0.00     0.245 C 
HETATM    2  N   UNL     1      41.146 -15.259   1.307  1.00  0.00    -0.325 N 
HETATM    3  O   UNL     1      39.787 -17.005   2.033  1.00  0.00    -0.271 OA
HETATM    4  H   UNL     1      41.849 -14.612   1.671  1.00  0.00     0.169 HD
ENDROOT
BRANCH   1   5
HETATM    5  C   UNL     1      41.647 -16.379   3.441  1.00  0.00     0.180 C 
BRANCH   5   6
HETATM    6  N   UNL     1      42.267 -17.705   3.517  1.00  0.00    -0.343 N 
HETATM    7  C   UNL     1      43.453 -18.041   2.908  1.00  0.00     0.252 C 
HETATM    8  O   UNL     1      44.133 -17.235   2.283  1.00  0.00    -0.268 OA
HETATM    9  H   UNL     1      41.676 -18.457   3.845  1.00  0.00     0.163 HD
BRANCH   7  10
HETATM   10  C   UNL     1      43.855 -19.475   2.984  1.00  0.00     0.037 A 
HETATM   11  C   UNL     1      44.503 -20.062   4.092  1.00  0.00    -0.046 A 
HETATM   12  C   UNL     1      44.929 -19.293   5.313  1.00  0.00     0.049 C 
HETATM   13  C   UNL     1      44.773 -21.442   4.056  1.00  0.00     0.007 A 
HETATM   14  C   UNL     1      44.457 -22.210   2.934  1.00  0.00     0.001 A 
HETATM   15  C   UNL     1      43.864 -21.614   1.826  1.00  0.00     0.001 A 
HETATM   16  C   UNL     1      43.563 -20.253   1.851  1.00  0.00     0.017 A 
ENDBRANCH   7  10
ENDBRANCH   5   6
BRANCH   5  17
HETATM   17  C   UNL     1      40.957 -15.932   4.755  1.00  0.00     0.009 C 
HETATM   18  C   UNL     1      41.776 -16.358   5.980  1.00  0.00     0.012 C 
HETATM   19  C   UNL     1      40.756 -14.412   4.795  1.00  0.00     0.012 C 
ENDBRANCH   5  17
ENDBRANCH   1   5
BRANCH   2  20
HETATM   20  C   UNL     1      40.685 -15.010   0.000  1.00  0.00     0.035 A 
HETATM   21  C   UNL     1      39.661 -14.110  -0.312  1.00  0.00     0.042 A 
HETATM   22  C   UNL     1      39.223 -13.929  -1.637  1.00  0.00    -0.021 A 
HETATM   23  C   UNL     1      39.824 -14.694  -2.646  1.00  0.00     0.012 A 
HETATM   24  C   UNL     1      40.848 -15.594  -2.346  1.00  0.00     0.003 A 
HETATM   25  C   UNL     1      41.282 -15.741  -1.029  1.00  0.00     0.029 A 
BRANCH  22  26
HETATM   26  C   UNL     1      38.172 -12.961  -1.935  1.00  0.00     0.010 A 
HETATM   27  C   UNL     1      37.574 -12.591  -3.168  1.00  0.00     0.152 A 
HETATM   28  N   UNL     1      36.618 -11.667  -3.031  1.00  0.00    -0.187 NA
HETATM   29  N   UNL     1      36.591 -11.443  -1.710  1.00  0.00    -0.289 N 
HETATM   30  H   UNL     1      35.924 -10.768  -1.351  1.00  0.00     0.188 HD
HETATM   31  C   UNL     1      37.497 -12.188  -1.012  1.00  0.00     0.123 A 
ENDBRANCH  22  26
ENDBRANCH   2  20
TORSDOF 6
ENDMDL
MODEL 5
REMARK VINA RESULT:      -8.4      1.637      2.329
REMARK  6 active torsions:
REMARK  status: ('A' for Active; 'I' for Inactive)
REMARK    1  A    between atoms: C_3  and  C_4 
REMARK       I    between atoms: C_4  and  N_5 
REMARK    2  A    between atoms: N_5  and  C_6 
REMARK    3  A    between atoms: C_6  and  C_7 
REMARK    4  A    between atoms: C_6  and  C_22 
REMARK       I    between atoms: C_7  and  N_8 
REMARK    5  A    between atoms: N_8  and  C_9 
REMARK    6  A    between atoms: C_11  and  C_12 
ROOT
HETATM    1  C   UNL     1      42.640 -14.548   3.058  1.00  0.00     0.245 C 
HETATM    2  N   UNL     1      41.440 -15.088   2.637  1.00  0.00    -0.325 N 
HETATM    3  O   UNL     1      43.162 -13.520   2.629  1.00  0.00    -0.271 OA
HETATM    4  H   UNL     1      41.245 -16.032   2.976  1.00  0.00     0.169 HD
ENDROOT
BRANCH   1   5
HETATM    5  C   UNL     1      43.320 -15.342   4.206  1.00  0.00     0.180 C 
BRANCH   5   6
HETATM    6  N   UNL     1      43.693 -16.693   3.776  1.00  0.00    -0.343 N 
HETATM    7  C   UNL     1      42.846 -17.776   3.803  1.00  0.00     0.252 C 
HETATM    8  O   UNL     1      41.671 -17.695   4.145  1.00  0.00    -0.268 OA
HETATM    9  H   UNL     1      44.682 -16.871   3.669  1.00  0.00     0.163 HD
BRANCH   7  10
HETATM   10  C   UNL     1      43.446 -19.096   3.455  1.00  0.00     0.037 A 
HETATM   11  C   UNL     1      44.293 -19.834   4.309  1.00  0.00    -0.046 A 
HETATM   12  C   UNL     1      44.750 -19.346   5.657  1.00  0.00     0.049 C 
HETATM   13  C   UNL     1      44.743 -21.096   3.878  1.00  0.00     0.007 A 
HETATM   14  C   UNL     1      44.406 -21.590   2.618  1.00  0.00     0.001 A 
HETATM   15  C   UNL     1      43.611 -20.835   1.763  1.00  0.00     0.001 A 
HETATM   16  C   UNL     1      43.132 -19.594   2.179  1.00  0.00     0.017 A 
ENDBRANCH   7  10
ENDBRANCH   5   6
BRANCH   5  17
HETATM   17  C   UNL     1      42.534 -15.303   5.541  1.00  0.00     0.009 C 
HETATM   18  C   UNL     1      43.439 -15.665   6.725  1.00  0.00     0.012 C 
HETATM   19  C   UNL     1      41.919 -13.919   5.790  1.00  0.00     0.012 C 
ENDBRANCH   5  17
ENDBRANCH   1   5
BRANCH   2  20
HETATM   20  C   UNL     1      40.482 -14.523   1.775  1.00  0.00     0.035 A 
HETATM   21  C   UNL     1      40.485 -14.684   0.385  1.00  0.00     0.042 A 
HETATM   22  C   UNL     1      39.515 -14.065  -0.426  1.00  0.00    -0.021 A 
HETATM   23  C   UNL     1      38.550 -13.257   0.191  1.00  0.00     0.012 A 
HETATM   24  C   UNL     1      38.537 -13.091   1.576  1.00  0.00     0.003 A 
HETATM   25  C   UNL     1      39.493 -13.731   2.364  1.00  0.00     0.029 A 
BRANCH  22  26
HETATM   26  C   UNL     1      39.526 -14.276  -1.871  1.00  0.00     0.010 A 
HETATM   27  C   UNL     1      40.236 -15.212  -2.666  1.00  0.00     0.152 A 
HETATM   28  N   UNL     1      39.966 -15.103  -3.971  1.00  0.00    -0.187 NA
HETATM   29  N   UNL     1      39.078 -14.101  -4.020  1.00  0.00    -0.289 N 
HETATM   30  H   UNL     1      38.710 -13.830  -4.926  1.00  0.00     0.188 HD
HETATM   31  C   UNL     1      38.782 -13.573  -2.797  1.00  0.00     0.123 A 
ENDBRANCH  22  26
ENDBRANCH   2  20
TORSDOF 6
ENDMDL
MODEL 6
REMARK VINA RESULT:      -8.4      2.425      7.140
REMARK  6 active torsions:
REMARK  status: ('A' for Active; 'I' for Inactive)
REMARK    1  A    between atoms: C_3  and  C_4 
REMARK       I    between atoms: C_4  and  N_5 
REMARK    2  A    between atoms: N_5  and  C_6 
REMARK    3  A    between atoms: C_6  and  C_7 
REMARK    4  A    between atoms: C_6  and  C_22 
REMARK       I    between atoms: C_7  and  N_8 
REMARK    5  A    between atoms: N_8  and  C_9 
REMARK    6  A    between atoms: C_11  and  C_12 
ROOT
HETATM    1  C   UNL     1      40.994 -15.581   4.799  1.00  0.00     0.245 C 
HETATM    2  N   UNL     1      42.049 -16.070   4.055  1.00  0.00    -0.325 N 
HETATM    3  O   UNL     1      40.556 -16.067   5.841  1.00  0.00    -0.271 OA
HETATM    4  H   UNL     1      42.165 -15.644   3.132  1.00  0.00     0.169 HD
ENDROOT
BRANCH   1   5
HETATM    5  C   UNL     1      40.374 -14.275   4.232  1.00  0.00     0.180 C 
BRANCH   5   6
HETATM    6  N   UNL     1      40.593 -14.161   2.787  1.00  0.00    -0.343 N 
HETATM    7  C   UNL     1      39.752 -14.683   1.833  1.00  0.00     0.252 C 
HETATM    8  O   UNL     1      38.702 -15.253   2.110  1.00  0.00    -0.268 OA
HETATM    9  H   UNL     1      41.520 -13.880   2.496  1.00  0.00     0.163 HD
BRANCH   7  10
HETATM   10  C   UNL     1      40.212 -14.585   0.418  1.00  0.00     0.037 A 
HETATM   11  C   UNL     1      41.032 -15.540  -0.219  1.00  0.00    -0.046 A 
HETATM   12  C   UNL     1      41.600 -16.748   0.474  1.00  0.00     0.049 C 
HETATM   13  C   UNL     1      41.344 -15.355  -1.579  1.00  0.00     0.007 A 
HETATM   14  C   UNL     1      40.899 -14.229  -2.274  1.00  0.00     0.001 A 
HETATM   15  C   UNL     1      40.132 -13.268  -1.625  1.00  0.00     0.001 A 
HETATM   16  C   UNL     1      39.790 -13.445  -0.285  1.00  0.00     0.017 A 
ENDBRANCH   7  10
ENDBRANCH   5   6
BRANCH   5  17
HETATM   17  C   UNL     1      40.764 -13.003   5.028  1.00  0.00     0.009 C 
HETATM   18  C   UNL     1      39.832 -12.797   6.229  1.00  0.00     0.012 C 
HETATM   19  C   UNL     1      42.212 -13.077   5.529  1.00  0.00     0.012 C 
ENDBRANCH   5  17
ENDBRANCH   1   5
BRANCH   2  20
HETATM   20  C   UNL     1      42.951 -17.098   4.386  1.00  0.00     0.035 A 
HETATM   21  C   UNL     1      43.098 -18.280   3.651  1.00  0.00     0.042 A 
HETATM   22  C   UNL     1      43.996 -19.286   4.053  1.00  0.00    -0.021 A 
HETATM   23  C   UNL     1      44.730 -19.089   5.231  1.00  0.00     0.012 A 
HETATM   24  C   UNL     1      44.592 -17.914   5.971  1.00  0.00     0.003 A 
HETATM   25  C   UNL     1      43.714 -16.920   5.542  1.00  0.00     0.029 A 
BRANCH  22  26
HETATM   26  C   UNL     1      44.148 -20.495   3.250  1.00  0.00     0.010 A 
HETATM   27  C   UNL     1      44.632 -21.784   3.595  1.00  0.00     0.152 A 
HETATM   28  N   UNL     1      44.602 -22.646   2.575  1.00  0.00    -0.187 NA
HETATM   29  N   UNL     1      44.093 -21.920   1.570  1.00  0.00    -0.289 N 
HETATM   30  H   UNL     1      43.964 -22.370   0.670  1.00  0.00     0.188 HD
HETATM   31  C   UNL     1      43.806 -20.632   1.919  1.00  0.00     0.123 A 
ENDBRANCH  22  26
ENDBRANCH   2  20
TORSDOF 6
ENDMDL
MODEL 7
REMARK VINA RESULT:      -8.3      2.185      3.613
REMARK  6 active torsions:
REMARK  status: ('A' for Active; 'I' for Inactive)
REMARK    1  A    between atoms: C_3  and  C_4 
REMARK       I    between atoms: C_4  and  N_5 
REMARK    2  A    between atoms: N_5  and  C_6 
REMARK    3  A    between atoms: C_6  and  C_7 
REMARK    4  A    between atoms: C_6  and  C_22 
REMARK       I    between atoms: C_7  and  N_8 
REMARK    5  A    between atoms: N_8  and  C_9 
REMARK    6  A    between atoms: C_11  and  C_12 
ROOT
HETATM    1  C   UNL     1      40.537 -14.159   2.056  1.00  0.00     0.245 C 
HETATM    2  N   UNL     1      41.509 -13.654   1.216  1.00  0.00    -0.325 N 
HETATM    3  O   UNL     1      39.376 -14.421   1.745  1.00  0.00    -0.271 OA
HETATM    4  H   UNL     1      42.363 -13.334   1.679  1.00  0.00     0.169 HD
ENDROOT
BRANCH   1   5
HETATM    5  C   UNL     1      41.034 -14.432   3.502  1.00  0.00     0.180 C 
BRANCH   5   6
HETATM    6  N   UNL     1      41.699 -15.734   3.602  1.00  0.00    -0.343 N 
HETATM    7  C   UNL     1      43.036 -15.942   3.354  1.00  0.00     0.252 C 
HETATM    8  O   UNL     1      43.810 -15.034   3.073  1.00  0.00    -0.268 OA
HETATM    9  H   UNL     1      41.095 -16.544   3.638  1.00  0.00     0.163 HD
BRANCH   7  10
HETATM   10  C   UNL     1      43.502 -17.358   3.374  1.00  0.00     0.037 A 
HETATM   11  C   UNL     1      43.727 -18.138   2.220  1.00  0.00    -0.046 A 
HETATM   12  C   UNL     1      43.461 -17.653   0.820  1.00  0.00     0.049 C 
HETATM   13  C   UNL     1      44.225 -19.444   2.380  1.00  0.00     0.007 A 
HETATM   14  C   UNL     1      44.443 -19.982   3.649  1.00  0.00     0.001 A 
HETATM   15  C   UNL     1      44.171 -19.224   4.783  1.00  0.00     0.001 A 
HETATM   16  C   UNL     1      43.703 -17.918   4.647  1.00  0.00     0.017 A 
ENDBRANCH   7  10
ENDBRANCH   5   6
BRANCH   5  17
HETATM   17  C   UNL     1      39.954 -14.194   4.588  1.00  0.00     0.009 C 
HETATM   18  C   UNL     1      40.276 -14.974   5.868  1.00  0.00     0.012 C 
HETATM   19  C   UNL     1      39.823 -12.704   4.933  1.00  0.00     0.012 C 
ENDBRANCH   5  17
ENDBRANCH   1   5
BRANCH   2  20
HETATM   20  C   UNL     1      41.458 -13.488  -0.181  1.00  0.00     0.035 A 
HETATM   21  C   UNL     1      40.542 -14.138  -1.015  1.00  0.00     0.042 A 
HETATM   22  C   UNL     1      40.563 -13.954  -2.410  1.00  0.00    -0.021 A 
HETATM   23  C   UNL     1      41.546 -13.118  -2.956  1.00  0.00     0.012 A 
HETATM   24  C   UNL     1      42.465 -12.463  -2.133  1.00  0.00     0.003 A 
HETATM   25  C   UNL     1      42.412 -12.641  -0.751  1.00  0.00     0.029 A 
BRANCH  22  26
HETATM   26  C   UNL     1      39.575 -14.623  -3.252  1.00  0.00     0.010 A 
HETATM   27  C   UNL     1      39.623 -15.871  -3.926  1.00  0.00     0.152 A 
HETATM   28  N   UNL     1      38.499 -16.150  -4.593  1.00  0.00    -0.187 NA
HETATM   29  N   UNL     1      37.721 -15.088  -4.346  1.00  0.00    -0.289 N 
HETATM   30  H   UNL     1      36.790 -15.071  -4.750  1.00  0.00     0.188 HD
HETATM   31  C   UNL     1      38.314 -14.149  -3.553  1.00  0.00     0.123 A 
ENDBRANCH  22  26
ENDBRANCH   2  20
TORSDOF 6
ENDMDL
MODEL 8
REMARK VINA RESULT:      -8.2      4.346      7.754
REMARK  6 active torsions:
REMARK  status: ('A' for Active; 'I' for Inactive)
REMARK    1  A    between atoms: C_3  and  C_4 
REMARK       I    between atoms: C_4  and  N_5 
REMARK    2  A    between atoms: N_5  and  C_6 
REMARK    3  A    between atoms: C_6  and  C_7 
REMARK    4  A    between atoms: C_6  and  C_22 
REMARK       I    between atoms: C_7  and  N_8 
REMARK    5  A    between atoms: N_8  and  C_9 
REMARK    6  A    between atoms: C_11  and  C_12 
ROOT
HETATM    1  C   UNL     1      42.298 -14.064   5.606  1.00  0.00     0.245 C 
HETATM    2  N   UNL     1      43.520 -14.462   6.111  1.00  0.00    -0.325 N 
HETATM    3  O   UNL     1      41.678 -13.050   5.924  1.00  0.00    -0.271 OA
HETATM    4  H   UNL     1      43.805 -15.413   5.863  1.00  0.00     0.169 HD
ENDROOT
BRANCH   1   5
HETATM    5  C   UNL     1      41.729 -15.009   4.512  1.00  0.00     0.180 C 
BRANCH   5   6
HETATM    6  N   UNL     1      42.562 -16.205   4.352  1.00  0.00    -0.343 N 
HETATM    7  C   UNL     1      42.100 -17.494   4.478  1.00  0.00     0.252 C 
HETATM    8  O   UNL     1      40.922 -17.761   4.688  1.00  0.00    -0.268 OA
HETATM    9  H   UNL     1      43.563 -16.059   4.372  1.00  0.00     0.163 HD
BRANCH   7  10
HETATM   10  C   UNL     1      43.124 -18.575   4.416  1.00  0.00     0.037 A 
HETATM   11  C   UNL     1      43.666 -19.090   3.219  1.00  0.00    -0.046 A 
HETATM   12  C   UNL     1      43.226 -18.653   1.848  1.00  0.00     0.049 C 
HETATM   13  C   UNL     1      44.671 -20.070   3.306  1.00  0.00     0.007 A 
HETATM   14  C   UNL     1      45.091 -20.565   4.541  1.00  0.00     0.001 A 
HETATM   15  C   UNL     1      44.517 -20.088   5.714  1.00  0.00     0.001 A 
HETATM   16  C   UNL     1      43.539 -19.097   5.653  1.00  0.00     0.017 A 
ENDBRANCH   7  10
ENDBRANCH   5   6
BRANCH   5  17
HETATM   17  C   UNL     1      41.398 -14.292   3.179  1.00  0.00     0.009 C 
HETATM   18  C   UNL     1      42.405 -14.666   2.085  1.00  0.00     0.012 C 
HETATM   19  C   UNL     1      39.984 -14.636   2.693  1.00  0.00     0.012 C 
ENDBRANCH   5  17
ENDBRANCH   1   5
BRANCH   2  20
HETATM   20  C   UNL     1      44.396 -13.746   6.948  1.00  0.00     0.035 A 
HETATM   21  C   UNL     1      44.007 -13.120   8.138  1.00  0.00     0.042 A 
HETATM   22  C   UNL     1      44.925 -12.390   8.915  1.00  0.00    -0.021 A 
HETATM   23  C   UNL     1      46.246 -12.282   8.457  1.00  0.00     0.012 A 
HETATM   24  C   UNL     1      46.644 -12.904   7.273  1.00  0.00     0.003 A 
HETATM   25  C   UNL     1      45.724 -13.641   6.529  1.00  0.00     0.029 A 
BRANCH  22  26
HETATM   26  C   UNL     1      44.497 -11.772  10.167  1.00  0.00     0.010 A 
HETATM   27  C   UNL     1      44.383 -10.407  10.536  1.00  0.00     0.152 A 
HETATM   28  N   UNL     1      43.932 -10.236  11.782  1.00  0.00    -0.187 NA
HETATM   29  N   UNL     1      43.748 -11.489  12.219  1.00  0.00    -0.289 N 
HETATM   30  H   UNL     1      43.395 -11.623  13.161  1.00  0.00     0.188 HD
HETATM   31  C   UNL     1      44.069 -12.442  11.295  1.00  0.00     0.123 A 
ENDBRANCH  22  26
ENDBRANCH   2  20
TORSDOF 6
ENDMDL
MODEL 9
REMARK VINA RESULT:      -8.2      3.260      9.207
REMARK  6 active torsions:
REMARK  status: ('A' for Active; 'I' for Inactive)
REMARK    1  A    between atoms: C_3  and  C_4 
REMARK       I    between atoms: C_4  and  N_5 
REMARK    2  A    between atoms: N_5  and  C_6 
REMARK    3  A    between atoms: C_6  and  C_7 
REMARK    4  A    between atoms: C_6  and  C_22 
REMARK       I    between atoms: C_7  and  N_8 
REMARK    5  A    between atoms: N_8  and  C_9 
REMARK    6  A    between atoms: C_11  and  C_12 
ROOT
HETATM    1  C   UNL     1      40.955 -14.968  -0.412  1.00  0.00     0.245 C 
HETATM    2  N   UNL     1      42.052 -15.783  -0.217  1.00  0.00    -0.325 N 
HETATM    3  O   UNL     1      40.128 -14.649   0.441  1.00  0.00    -0.271 OA
HETATM    4  H   UNL     1      42.532 -16.080  -1.070  1.00  0.00     0.169 HD
ENDROOT
BRANCH   1   5
HETATM    5  C   UNL     1      40.837 -14.404  -1.855  1.00  0.00     0.180 C 
BRANCH   5   6
HETATM    6  N   UNL     1      41.235 -12.995  -1.914  1.00  0.00    -0.343 N 
HETATM    7  C   UNL     1      42.450 -12.551  -2.381  1.00  0.00     0.252 C 
HETATM    8  O   UNL     1      43.299 -13.303  -2.846  1.00  0.00    -0.268 OA
HETATM    9  H   UNL     1      40.672 -12.349  -1.377  1.00  0.00     0.163 HD
BRANCH   7  10
HETATM   10  C   UNL     1      42.724 -11.094  -2.236  1.00  0.00     0.037 A 
HETATM   11  C   UNL     1      42.471 -10.132  -3.237  1.00  0.00    -0.046 A 
HETATM   12  C   UNL     1      41.951 -10.472  -4.607  1.00  0.00     0.049 C 
HETATM   13  C   UNL     1      42.723  -8.779  -2.946  1.00  0.00     0.007 A 
HETATM   14  C   UNL     1      43.259  -8.394  -1.716  1.00  0.00     0.001 A 
HETATM   15  C   UNL     1      43.552  -9.352  -0.752  1.00  0.00     0.001 A 
HETATM   16  C   UNL     1      43.286 -10.696  -1.010  1.00  0.00     0.017 A 
ENDBRANCH   7  10
ENDBRANCH   5   6
BRANCH   5  17
HETATM   17  C   UNL     1      39.474 -14.701  -2.530  1.00  0.00     0.009 C 
HETATM   18  C   UNL     1      38.831 -13.416  -3.064  1.00  0.00     0.012 C 
HETATM   19  C   UNL     1      39.627 -15.699  -3.687  1.00  0.00     0.012 C 
ENDBRANCH   5  17
ENDBRANCH   1   5
BRANCH   2  20
HETATM   20  C   UNL     1      42.564 -16.286   0.994  1.00  0.00     0.035 A 
HETATM   21  C   UNL     1      42.912 -17.625   1.203  1.00  0.00     0.042 A 
HETATM   22  C   UNL     1      43.388 -18.071   2.450  1.00  0.00    -0.021 A 
HETATM   23  C   UNL     1      43.486 -17.144   3.496  1.00  0.00     0.012 A 
HETATM   24  C   UNL     1      43.144 -15.805   3.298  1.00  0.00     0.003 A 
HETATM   25  C   UNL     1      42.695 -15.379   2.049  1.00  0.00     0.029 A 
BRANCH  22  26
HETATM   26  C   UNL     1      43.771 -19.469   2.629  1.00  0.00     0.010 A 
HETATM   27  C   UNL     1      43.522 -20.610   1.823  1.00  0.00     0.152 A 
HETATM   28  N   UNL     1      44.058 -21.730   2.319  1.00  0.00    -0.187 NA
HETATM   29  N   UNL     1      44.658 -21.314   3.442  1.00  0.00    -0.289 N 
HETATM   30  H   UNL     1      45.152 -22.000   4.004  1.00  0.00     0.188 HD
HETATM   31  C   UNL     1      44.517 -19.976   3.674  1.00  0.00     0.123 A 
ENDBRANCH  22  26
ENDBRANCH   2  20
TORSDOF 6
ENDMDL
MODEL 10
REMARK VINA RESULT:      -7.9      2.395      7.720
REMARK  6 active torsions:
REMARK  status: ('A' for Active; 'I' for Inactive)
REMARK    1  A    between atoms: C_3  and  C_4 
REMARK       I    between atoms: C_4  and  N_5 
REMARK    2  A    between atoms: N_5  and  C_6 
REMARK    3  A    between atoms: C_6  and  C_7 
REMARK    4  A    between atoms: C_6  and  C_22 
REMARK       I    between atoms: C_7  and  N_8 
REMARK    5  A    between atoms: N_8  and  C_9 
REMARK    6  A    between atoms: C_11  and  C_12 
ROOT
HETATM    1  C   UNL     1      42.435 -14.970   3.347  1.00  0.00     0.245 C 
HETATM    2  N   UNL     1      42.164 -16.114   4.071  1.00  0.00    -0.325 N 
HETATM    3  O   UNL     1      43.550 -14.574   3.008  1.00  0.00    -0.271 OA
HETATM    4  H   UNL     1      41.204 -16.197   4.411  1.00  0.00     0.169 HD
ENDROOT
BRANCH   1   5
HETATM    5  C   UNL     1      41.169 -14.178   2.923  1.00  0.00     0.180 C 
BRANCH   5   6
HETATM    6  N   UNL     1      41.128 -13.970   1.472  1.00  0.00    -0.343 N 
HETATM    7  C   UNL     1      40.083 -14.352   0.664  1.00  0.00     0.252 C 
HETATM    8  O   UNL     1      39.056 -14.861   1.099  1.00  0.00    -0.268 OA
HETATM    9  H   UNL     1      42.007 -13.738   1.029  1.00  0.00     0.163 HD
BRANCH   7  10
HETATM   10  C   UNL     1      40.282 -14.181  -0.803  1.00  0.00     0.037 A 
HETATM   11  C   UNL     1      39.931 -13.020  -1.524  1.00  0.00    -0.046 A 
HETATM   12  C   UNL     1      39.248 -11.830  -0.907  1.00  0.00     0.049 C 
HETATM   13  C   UNL     1      40.229 -12.968  -2.898  1.00  0.00     0.007 A 
HETATM   14  C   UNL     1      40.811 -14.055  -3.551  1.00  0.00     0.001 A 
HETATM   15  C   UNL     1      41.109 -15.215  -2.844  1.00  0.00     0.001 A 
HETATM   16  C   UNL     1      40.847 -15.278  -1.476  1.00  0.00     0.017 A 
ENDBRANCH   7  10
ENDBRANCH   5   6
BRANCH   5  17
HETATM   17  C   UNL     1      40.935 -12.887   3.749  1.00  0.00     0.009 C 
HETATM   18  C   UNL     1      41.834 -12.856   4.991  1.00  0.00     0.012 C 
HETATM   19  C   UNL     1      41.199 -11.629   2.911  1.00  0.00     0.012 C 
ENDBRANCH   5  17
ENDBRANCH   1   5
BRANCH   2  20
HETATM   20  C   UNL     1      43.046 -17.151   4.431  1.00  0.00     0.035 A 
HETATM   21  C   UNL     1      43.195 -18.340   3.709  1.00  0.00     0.042 A 
HETATM   22  C   UNL     1      44.070 -19.353   4.140  1.00  0.00    -0.021 A 
HETATM   23  C   UNL     1      44.780 -19.156   5.332  1.00  0.00     0.012 A 
HETATM   24  C   UNL     1      44.640 -17.973   6.060  1.00  0.00     0.003 A 
HETATM   25  C   UNL     1      43.784 -16.972   5.603  1.00  0.00     0.029 A 
BRANCH  22  26
HETATM   26  C   UNL     1      44.227 -20.571   3.349  1.00  0.00     0.010 A 
HETATM   27  C   UNL     1      44.680 -21.864   3.718  1.00  0.00     0.152 A 
HETATM   28  N   UNL     1      44.665 -22.734   2.703  1.00  0.00    -0.187 NA
HETATM   29  N   UNL     1      44.196 -22.008   1.679  1.00  0.00    -0.289 N 
HETATM   30  H   UNL     1      44.086 -22.462   0.779  1.00  0.00     0.188 HD
HETATM   31  C   UNL     1      43.920 -20.713   2.011  1.00  0.00     0.123 A 
ENDBRANCH  22  26
ENDBRANCH   2  20
TORSDOF 6
ENDMDL
