MODEL 1
REMARK VINA RESULT:      -8.7      0.000      0.000
REMARK  9 active torsions:
REMARK  status: ('A' for Active; 'I' for Inactive)
REMARK    1  A    between atoms: C_4  and  C_5 
REMARK    2  A    between atoms: C_7  and  O_8 
REMARK    3  A    between atoms: C_10  and  O_11 
REMARK    4  A    between atoms: C_16  and  C_17 
REMARK    5  A    between atoms: C_20  and  C_21 
REMARK    6  A    between atoms: C_21  and  N_22 
REMARK    7  A    between atoms: N_22  and  C_23 
REMARK    8  A    between atoms: C_23  and  N_24 
REMARK    9  A    between atoms: N_24  and  C_25 
ROOT
HETATM    1  C   UNL     1      40.252 -14.130   2.009  1.00  0.00     0.067 C 
HETATM    2  C   UNL     1      41.129 -12.884   1.704  1.00  0.00     0.001 C 
HETATM    3  C   UNL     1      42.065 -12.581   2.894  1.00  0.00     0.040 C 
HETATM    4  C   UNL     1      41.254 -12.230   4.153  1.00  0.00     0.206 C 
HETATM    5  N   UNL     1      39.775 -12.487   3.833  1.00  0.00    -0.065 N 
HETATM    6  H   UNL     1      39.217 -12.332   4.685  1.00  0.00     0.280 HD
HETATM    7  C   UNL     1      39.521 -13.919   3.351  1.00  0.00     0.246 C 
HETATM    8  C   UNL     1      40.184 -11.676   1.535  1.00  0.00     0.033 C 
HETATM    9  C   UNL     1      39.306 -11.499   2.777  1.00  0.00     0.236 C 
ENDROOT
BRANCH   1  10
HETATM   10  C   UNL     1      41.045 -15.404   1.941  1.00  0.00     0.038 A 
HETATM   11  N   UNL     1      41.456 -15.979   0.760  1.00  0.00    -0.277 N 
HETATM   12  C   UNL     1      41.173 -15.546  -0.591  1.00  0.00     0.179 C 
HETATM   13  N   UNL     1      42.233 -17.052   0.930  1.00  0.00    -0.172 NA
HETATM   14  C   UNL     1      42.333 -17.224   2.255  1.00  0.00     0.089 A 
HETATM   15  C   UNL     1      41.564 -16.232   2.922  1.00  0.00     0.061 A 
BRANCH  14  16
HETATM   16  C   UNL     1      43.170 -18.283   2.833  1.00  0.00    -0.003 A 
HETATM   17  C   UNL     1      43.584 -18.199   4.174  1.00  0.00     0.053 A 
HETATM   18  C   UNL     1      44.353 -19.210   4.763  1.00  0.00     0.102 A 
HETATM   19  C   UNL     1      44.729 -20.331   3.998  1.00  0.00     0.101 A 
HETATM   20  C   UNL     1      44.322 -20.420   2.664  1.00  0.00     0.040 A 
HETATM   21  C   UNL     1      43.550 -19.405   2.086  1.00  0.00     0.017 A 
BRANCH  18  22
HETATM   22  O   UNL     1      44.784 -19.199   6.066  1.00  0.00    -0.353 OA
HETATM   23  C   UNL     1      43.800 -19.277   7.089  1.00  0.00     0.210 C 
ENDBRANCH  18  22
BRANCH  19  24
HETATM   24  O   UNL     1      45.474 -21.282   4.648  1.00  0.00    -0.353 OA
HETATM   25  C   UNL     1      44.819 -22.480   5.037  1.00  0.00     0.210 C 
ENDBRANCH  19  24
ENDBRANCH  14  16
ENDBRANCH   1  10
BRANCH   4  26
HETATM   26  C   UNL     1      41.680 -12.954   5.447  1.00  0.00     0.155 C 
BRANCH  26  27
HETATM   27  N   UNL     1      41.216 -12.329   6.678  1.00  0.00    -0.365 N 
HETATM   28  H   UNL     1      40.751 -12.910   7.371  1.00  0.00     0.161 HD
BRANCH  27  29
HETATM   29  C   UNL     1      41.800 -11.223   7.246  1.00  0.00     0.172 C 
HETATM   30  S   UNL     1      41.434  -9.638   6.865  1.00  0.00    -0.041 SA
BRANCH  29  31
HETATM   31  N   UNL     1      42.801 -11.459   8.143  1.00  0.00    -0.333 N 
HETATM   32  H   UNL     1      43.582 -11.979   7.750  1.00  0.00     0.168 HD
BRANCH  31  33
HETATM   33  C   UNL     1      43.006 -10.960   9.445  1.00  0.00     0.034 A 
HETATM   34  C   UNL     1      44.271 -10.805  10.019  1.00  0.00     0.031 A 
HETATM   35  C   UNL     1      44.401 -10.353  11.336  1.00  0.00     0.026 A 
HETATM   36  C   UNL     1      43.263 -10.060  12.084  1.00  0.00     0.034 A 
HETATM   37 CL   UNL     1      43.425  -9.504  13.703  1.00  0.00    -0.084 Cl
HETATM   38  C   UNL     1      41.997 -10.231  11.531  1.00  0.00     0.026 A 
HETATM   39  C   UNL     1      41.871 -10.692  10.217  1.00  0.00     0.031 A 
ENDBRANCH  31  33
ENDBRANCH  29  31
ENDBRANCH  27  29
ENDBRANCH  26  27
ENDBRANCH   4  26
TORSDOF 9
ENDMDL
MODEL 2
REMARK VINA RESULT:      -8.7      4.691      7.683
REMARK  9 active torsions:
REMARK  status: ('A' for Active; 'I' for Inactive)
REMARK    1  A    between atoms: C_4  and  C_5 
REMARK    2  A    between atoms: C_7  and  O_8 
REMARK    3  A    between atoms: C_10  and  O_11 
REMARK    4  A    between atoms: C_16  and  C_17 
REMARK    5  A    between atoms: C_20  and  C_21 
REMARK    6  A    between atoms: C_21  and  N_22 
REMARK    7  A    between atoms: N_22  and  C_23 
REMARK    8  A    between atoms: C_23  and  N_24 
REMARK    9  A    between atoms: N_24  and  C_25 
ROOT
HETATM    1  C   UNL     1      40.797 -13.743   2.958  1.00  0.00     0.067 C 
HETATM    2  C   UNL     1      39.394 -14.140   2.422  1.00  0.00     0.001 C 
HETATM    3  C   UNL     1      39.526 -15.155   1.266  1.00  0.00     0.040 C 
HETATM    4  C   UNL     1      40.274 -14.533   0.074  1.00  0.00     0.206 C 
HETATM    5  N   UNL     1      40.798 -13.162   0.525  1.00  0.00    -0.065 N 
HETATM    6  H   UNL     1      41.368 -12.757  -0.230  1.00  0.00     0.280 HD
HETATM    7  C   UNL     1      41.668 -13.253   1.783  1.00  0.00     0.246 C 
HETATM    8  C   UNL     1      38.734 -12.867   1.851  1.00  0.00     0.033 C 
HETATM    9  C   UNL     1      39.624 -12.230   0.781  1.00  0.00     0.236 C 
ENDROOT
BRANCH   1  10
HETATM   10  C   UNL     1      41.423 -14.848   3.762  1.00  0.00     0.038 A 
HETATM   11  N   UNL     1      41.128 -15.083   5.085  1.00  0.00    -0.277 N 
HETATM   12  C   UNL     1      40.257 -14.324   5.956  1.00  0.00     0.179 C 
HETATM   13  N   UNL     1      41.720 -16.174   5.578  1.00  0.00    -0.172 NA
HETATM   14  C   UNL     1      42.451 -16.678   4.576  1.00  0.00     0.089 A 
HETATM   15  C   UNL     1      42.323 -15.847   3.429  1.00  0.00     0.061 A 
BRANCH  14  16
HETATM   16  C   UNL     1      43.205 -17.930   4.725  1.00  0.00    -0.003 A 
HETATM   17  C   UNL     1      43.611 -18.646   3.585  1.00  0.00     0.053 A 
HETATM   18  C   UNL     1      44.361 -19.824   3.695  1.00  0.00     0.102 A 
HETATM   19  C   UNL     1      44.709 -20.308   4.971  1.00  0.00     0.101 A 
HETATM   20  C   UNL     1      44.307 -19.601   6.107  1.00  0.00     0.040 A 
HETATM   21  C   UNL     1      43.561 -18.423   5.986  1.00  0.00     0.017 A 
BRANCH  18  22
HETATM   22  O   UNL     1      44.799 -20.568   2.628  1.00  0.00    -0.353 OA
HETATM   23  C   UNL     1      43.822 -21.221   1.831  1.00  0.00     0.210 C 
ENDBRANCH  18  22
BRANCH  19  24
HETATM   24  O   UNL     1      45.452 -21.462   4.996  1.00  0.00    -0.353 OA
HETATM   25  C   UNL     1      44.760 -22.687   5.185  1.00  0.00     0.210 C 
ENDBRANCH  19  24
ENDBRANCH  14  16
ENDBRANCH   1  10
BRANCH   4  26
HETATM   26  C   UNL     1      41.406 -15.392  -0.528  1.00  0.00     0.155 C 
BRANCH  26  27
HETATM   27  N   UNL     1      41.321 -15.591  -1.968  1.00  0.00    -0.365 N 
HETATM   28  H   UNL     1      41.025 -16.500  -2.315  1.00  0.00     0.161 HD
BRANCH  27  29
HETATM   29  C   UNL     1      41.057 -14.588  -2.869  1.00  0.00     0.172 C 
HETATM   30  S   UNL     1      39.568 -14.283  -3.562  1.00  0.00    -0.041 SA
BRANCH  29  31
HETATM   31  N   UNL     1      42.123 -13.833  -3.265  1.00  0.00    -0.333 N 
HETATM   32  H   UNL     1      42.679 -14.270  -3.996  1.00  0.00     0.168 HD
BRANCH  31  33
HETATM   33  C   UNL     1      42.470 -12.502  -2.960  1.00  0.00     0.034 A 
HETATM   34  C   UNL     1      42.934 -12.095  -1.705  1.00  0.00     0.031 A 
HETATM   35  C   UNL     1      43.212 -10.747  -1.456  1.00  0.00     0.026 A 
HETATM   36  C   UNL     1      43.020  -9.802  -2.460  1.00  0.00     0.034 A 
HETATM   37 CL   UNL     1      43.363  -8.146  -2.150  1.00  0.00    -0.084 Cl
HETATM   38  C   UNL     1      42.538 -10.191  -3.707  1.00  0.00     0.026 A 
HETATM   39  C   UNL     1      42.254 -11.538  -3.951  1.00  0.00     0.031 A 
ENDBRANCH  31  33
ENDBRANCH  29  31
ENDBRANCH  27  29
ENDBRANCH  26  27
ENDBRANCH   4  26
TORSDOF 9
ENDMDL
MODEL 3
REMARK VINA RESULT:      -8.6      1.645      2.505
REMARK  9 active torsions:
REMARK  status: ('A' for Active; 'I' for Inactive)
REMARK    1  A    between atoms: C_4  and  C_5 
REMARK    2  A    between atoms: C_7  and  O_8 
REMARK    3  A    between atoms: C_10  and  O_11 
REMARK    4  A    between atoms: C_16  and  C_17 
REMARK    5  A    between atoms: C_20  and  C_21 
REMARK    6  A    between atoms: C_21  and  N_22 
REMARK    7  A    between atoms: N_22  and  C_23 
REMARK    8  A    between atoms: C_23  and  N_24 
REMARK    9  A    between atoms: N_24  and  C_25 
ROOT
HETATM    1  C   UNL     1      39.560 -13.123   4.174  1.00  0.00     0.067 C 
HETATM    2  C   UNL     1      40.443 -12.003   3.558  1.00  0.00     0.001 C 
HETATM    3  C   UNL     1      41.712 -11.787   4.411  1.00  0.00     0.040 C 
HETATM    4  C   UNL     1      41.345 -11.307   5.826  1.00  0.00     0.206 C 
HETATM    5  N   UNL     1      39.818 -11.388   5.957  1.00  0.00    -0.065 N 
HETATM    6  H   UNL     1      39.552 -11.144   6.921  1.00  0.00     0.280 HD
HETATM    7  C   UNL     1      39.278 -12.789   5.654  1.00  0.00     0.246 C 
HETATM    8  C   UNL     1      39.629 -10.692   3.593  1.00  0.00     0.033 C 
HETATM    9  C   UNL     1      39.174 -10.377   5.021  1.00  0.00     0.236 C 
ENDROOT
BRANCH   1  10
HETATM   10  C   UNL     1      40.153 -14.487   3.959  1.00  0.00     0.038 A 
HETATM   11  N   UNL     1      39.930 -15.240   2.829  1.00  0.00    -0.277 N 
HETATM   12  C   UNL     1      39.075 -14.933   1.704  1.00  0.00     0.179 C 
HETATM   13  N   UNL     1      40.632 -16.376   2.799  1.00  0.00    -0.172 NA
HETATM   14  C   UNL     1      41.329 -16.406   3.942  1.00  0.00     0.089 A 
HETATM   15  C   UNL     1      41.021 -15.255   4.717  1.00  0.00     0.061 A 
BRANCH  14  16
HETATM   16  C   UNL     1      42.275 -17.490   4.239  1.00  0.00    -0.003 A 
HETATM   17  C   UNL     1      42.874 -18.208   3.189  1.00  0.00     0.053 A 
HETATM   18  C   UNL     1      43.805 -19.223   3.440  1.00  0.00     0.102 A 
HETATM   19  C   UNL     1      44.146 -19.539   4.769  1.00  0.00     0.101 A 
HETATM   20  C   UNL     1      43.554 -18.829   5.817  1.00  0.00     0.040 A 
HETATM   21  C   UNL     1      42.626 -17.815   5.555  1.00  0.00     0.017 A 
BRANCH  18  22
HETATM   22  O   UNL     1      44.435 -19.957   2.466  1.00  0.00    -0.353 OA
HETATM   23  C   UNL     1      43.679 -20.955   1.796  1.00  0.00     0.210 C 
ENDBRANCH  18  22
BRANCH  19  24
HETATM   24  O   UNL     1      45.072 -20.538   4.933  1.00  0.00    -0.353 OA
HETATM   25  C   UNL     1      44.634 -21.755   5.518  1.00  0.00     0.210 C 
ENDBRANCH  19  24
ENDBRANCH  14  16
ENDBRANCH   1  10
BRANCH   4  26
HETATM   26  C   UNL     1      42.045 -12.046   6.985  1.00  0.00     0.155 C 
BRANCH  26  27
HETATM   27  N   UNL     1      42.565 -11.180   8.035  1.00  0.00    -0.365 N 
HETATM   28  H   UNL     1      43.304 -10.523   7.800  1.00  0.00     0.161 HD
BRANCH  27  29
HETATM   29  C   UNL     1      41.833 -10.762   9.120  1.00  0.00     0.172 C 
HETATM   30  S   UNL     1      40.674  -9.560   9.093  1.00  0.00    -0.041 SA
BRANCH  29  31
HETATM   31  N   UNL     1      42.137 -11.343  10.317  1.00  0.00    -0.333 N 
HETATM   32  H   UNL     1      42.472 -12.300  10.229  1.00  0.00     0.168 HD
BRANCH  31  33
HETATM   33  C   UNL     1      42.232 -10.790  11.610  1.00  0.00     0.034 A 
HETATM   34  C   UNL     1      43.328 -10.042  12.049  1.00  0.00     0.031 A 
HETATM   35  C   UNL     1      43.380  -9.567  13.364  1.00  0.00     0.026 A 
HETATM   36  C   UNL     1      42.337  -9.845  14.244  1.00  0.00     0.034 A 
HETATM   37 CL   UNL     1      42.404  -9.259  15.858  1.00  0.00    -0.084 Cl
HETATM   38  C   UNL     1      41.250 -10.607  13.824  1.00  0.00     0.026 A 
HETATM   39  C   UNL     1      41.205 -11.088  12.513  1.00  0.00     0.031 A 
ENDBRANCH  31  33
ENDBRANCH  29  31
ENDBRANCH  27  29
ENDBRANCH  26  27
ENDBRANCH   4  26
TORSDOF 9
ENDMDL
MODEL 4
REMARK VINA RESULT:      -8.5      4.772      9.712
REMARK  9 active torsions:
REMARK  status: ('A' for Active; 'I' for Inactive)
REMARK    1  A    between atoms: C_4  and  C_5 
REMARK    2  A    between atoms: C_7  and  O_8 
REMARK    3  A    between atoms: C_10  and  O_11 
REMARK    4  A    between atoms: C_16  and  C_17 
REMARK    5  A    between atoms: C_20  and  C_21 
REMARK    6  A    between atoms: C_21  and  N_22 
REMARK    7  A    between atoms: N_22  and  C_23 
REMARK    8  A    between atoms: C_23  and  N_24 
REMARK    9  A    between atoms: N_24  and  C_25 
ROOT
HETATM    1  C   UNL     1      40.996 -11.475   4.620  1.00  0.00     0.067 C 
HETATM    2  C   UNL     1      39.502 -11.899   4.670  1.00  0.00     0.001 C 
HETATM    3  C   UNL     1      39.332 -13.172   5.529  1.00  0.00     0.040 C 
HETATM    4  C   UNL     1      40.088 -14.358   4.905  1.00  0.00     0.206 C 
HETATM    5  N   UNL     1      40.911 -13.811   3.730  1.00  0.00    -0.065 N 
HETATM    6  H   UNL     1      41.486 -14.572   3.342  1.00  0.00     0.280 HD
HETATM    7  C   UNL     1      41.847 -12.673   4.150  1.00  0.00     0.246 C 
HETATM    8  C   UNL     1      39.065 -12.245   3.232  1.00  0.00     0.033 C 
HETATM    9  C   UNL     1      39.973 -13.325   2.636  1.00  0.00     0.236 C 
ENDROOT
BRANCH   1  10
HETATM   10  C   UNL     1      41.453 -10.876   5.921  1.00  0.00     0.038 A 
HETATM   11  N   UNL     1      41.645  -9.526   6.106  1.00  0.00    -0.277 N 
HETATM   12  C   UNL     1      41.524  -8.463   5.133  1.00  0.00     0.179 C 
HETATM   13  N   UNL     1      41.955  -9.199   7.364  1.00  0.00    -0.172 NA
HETATM   14  C   UNL     1      41.996 -10.353   8.042  1.00  0.00     0.089 A 
HETATM   15  C   UNL     1      41.727 -11.434   7.158  1.00  0.00     0.061 A 
BRANCH  14  16
HETATM   16  C   UNL     1      42.249 -10.389   9.489  1.00  0.00    -0.003 A 
HETATM   17  C   UNL     1      41.172 -10.336  10.392  1.00  0.00     0.053 A 
HETATM   18  C   UNL     1      41.380 -10.403  11.775  1.00  0.00     0.102 A 
HETATM   19  C   UNL     1      42.691 -10.516  12.276  1.00  0.00     0.101 A 
HETATM   20  C   UNL     1      43.765 -10.567  11.383  1.00  0.00     0.040 A 
HETATM   21  C   UNL     1      43.546 -10.503  10.002  1.00  0.00     0.017 A 
BRANCH  18  22
HETATM   22  O   UNL     1      40.378 -10.367  12.713  1.00  0.00    -0.353 OA
HETATM   23  C   UNL     1      39.353  -9.398  12.550  1.00  0.00     0.210 C 
ENDBRANCH  18  22
BRANCH  19  24
HETATM   24  O   UNL     1      42.812 -10.585  13.641  1.00  0.00    -0.353 OA
HETATM   25  C   UNL     1      43.028  -9.372  14.346  1.00  0.00     0.210 C 
ENDBRANCH  19  24
ENDBRANCH  14  16
ENDBRANCH   1  10
BRANCH   4  26
HETATM   26  C   UNL     1      40.970 -15.172   5.873  1.00  0.00     0.155 C 
BRANCH  26  27
HETATM   27  N   UNL     1      41.705 -16.268   5.255  1.00  0.00    -0.365 N 
HETATM   28  H   UNL     1      41.786 -16.286   4.242  1.00  0.00     0.161 HD
BRANCH  27  29
HETATM   29  C   UNL     1      42.735 -16.942   5.864  1.00  0.00     0.172 C 
HETATM   30  S   UNL     1      42.868 -17.220   7.505  1.00  0.00    -0.041 SA
BRANCH  29  31
HETATM   31  N   UNL     1      43.752 -17.355   5.052  1.00  0.00    -0.333 N 
HETATM   32  H   UNL     1      44.600 -16.801   5.152  1.00  0.00     0.168 HD
BRANCH  31  33
HETATM   33  C   UNL     1      43.878 -18.505   4.247  1.00  0.00     0.034 A 
HETATM   34  C   UNL     1      44.560 -19.656   4.652  1.00  0.00     0.031 A 
HETATM   35  C   UNL     1      44.692 -20.743   3.781  1.00  0.00     0.026 A 
HETATM   36  C   UNL     1      44.147 -20.678   2.501  1.00  0.00     0.034 A 
HETATM   37 CL   UNL     1      44.310 -22.015   1.434  1.00  0.00    -0.084 Cl
HETATM   38  C   UNL     1      43.485 -19.528   2.079  1.00  0.00     0.026 A 
HETATM   39  C   UNL     1      43.362 -18.440   2.948  1.00  0.00     0.031 A 
ENDBRANCH  31  33
ENDBRANCH  29  31
ENDBRANCH  27  29
ENDBRANCH  26  27
ENDBRANCH   4  26
TORSDOF 9
ENDMDL
MODEL 5
REMARK VINA RESULT:      -8.5      3.566      4.096
REMARK  9 active torsions:
REMARK  status: ('A' for Active; 'I' for Inactive)
REMARK    1  A    between atoms: C_4  and  C_5 
REMARK    2  A    between atoms: C_7  and  O_8 
REMARK    3  A    between atoms: C_10  and  O_11 
REMARK    4  A    between atoms: C_16  and  C_17 
REMARK    5  A    between atoms: C_20  and  C_21 
REMARK    6  A    between atoms: C_21  and  N_22 
REMARK    7  A    between atoms: N_22  and  C_23 
REMARK    8  A    between atoms: C_23  and  N_24 
REMARK    9  A    between atoms: N_24  and  C_25 
ROOT
HETATM    1  C   UNL     1      40.908 -14.792  -0.473  1.00  0.00     0.067 C 
HETATM    2  C   UNL     1      41.974 -13.691  -0.726  1.00  0.00     0.001 C 
HETATM    3  C   UNL     1      41.925 -12.628   0.393  1.00  0.00     0.040 C 
HETATM    4  C   UNL     1      40.566 -11.907   0.405  1.00  0.00     0.206 C 
HETATM    5  N   UNL     1      39.653 -12.632  -0.594  1.00  0.00    -0.065 N 
HETATM    6  H   UNL     1      38.712 -12.216  -0.549  1.00  0.00     0.280 HD
HETATM    7  C   UNL     1      39.527 -14.129  -0.290  1.00  0.00     0.246 C 
HETATM    8  C   UNL     1      41.616 -12.989  -2.052  1.00  0.00     0.033 C 
HETATM    9  C   UNL     1      40.188 -12.438  -2.004  1.00  0.00     0.236 C 
ENDROOT
BRANCH   1  10
HETATM   10  C   UNL     1      41.300 -15.703   0.657  1.00  0.00     0.038 A 
HETATM   11  N   UNL     1      40.494 -15.950   1.745  1.00  0.00    -0.277 N 
HETATM   12  C   UNL     1      39.206 -15.370   2.055  1.00  0.00     0.179 C 
HETATM   13  N   UNL     1      40.993 -16.867   2.580  1.00  0.00    -0.172 NA
HETATM   14  C   UNL     1      42.171 -17.233   2.060  1.00  0.00     0.089 A 
HETATM   15  C   UNL     1      42.418 -16.492   0.872  1.00  0.00     0.061 A 
BRANCH  14  16
HETATM   16  C   UNL     1      42.992 -18.283   2.678  1.00  0.00    -0.003 A 
HETATM   17  C   UNL     1      43.375 -18.173   4.026  1.00  0.00     0.053 A 
HETATM   18  C   UNL     1      44.129 -19.174   4.652  1.00  0.00     0.102 A 
HETATM   19  C   UNL     1      44.520 -20.310   3.917  1.00  0.00     0.101 A 
HETATM   20  C   UNL     1      44.144 -20.424   2.576  1.00  0.00     0.040 A 
HETATM   21  C   UNL     1      43.387 -19.419   1.962  1.00  0.00     0.017 A 
BRANCH  18  22
HETATM   22  O   UNL     1      44.529 -19.138   5.964  1.00  0.00    -0.353 OA
HETATM   23  C   UNL     1      45.103 -17.933   6.449  1.00  0.00     0.210 C 
ENDBRANCH  18  22
BRANCH  19  24
HETATM   24  O   UNL     1      45.248 -21.250   4.602  1.00  0.00    -0.353 OA
HETATM   25  C   UNL     1      44.819 -22.601   4.525  1.00  0.00     0.210 C 
ENDBRANCH  19  24
ENDBRANCH  14  16
ENDBRANCH   1  10
BRANCH   4  26
HETATM   26  C   UNL     1      39.891 -11.774   1.785  1.00  0.00     0.155 C 
BRANCH  26  27
HETATM   27  N   UNL     1      40.393 -10.684   2.609  1.00  0.00    -0.365 N 
HETATM   28  H   UNL     1      39.932  -9.780   2.551  1.00  0.00     0.161 HD
BRANCH  27  29
HETATM   29  C   UNL     1      41.023 -10.860   3.817  1.00  0.00     0.172 C 
HETATM   30  S   UNL     1      40.826  -9.885   5.159  1.00  0.00    -0.041 SA
BRANCH  29  31
HETATM   31  N   UNL     1      41.926 -11.882   3.886  1.00  0.00    -0.333 N 
HETATM   32  H   UNL     1      42.810 -11.672   3.427  1.00  0.00     0.168 HD
BRANCH  31  33
HETATM   33  C   UNL     1      41.903 -13.083   4.622  1.00  0.00     0.034 A 
HETATM   34  C   UNL     1      43.057 -13.774   5.005  1.00  0.00     0.031 A 
HETATM   35  C   UNL     1      42.959 -14.989   5.691  1.00  0.00     0.026 A 
HETATM   36  C   UNL     1      41.707 -15.519   5.990  1.00  0.00     0.034 A 
HETATM   37 CL   UNL     1      41.591 -17.012   6.833  1.00  0.00    -0.084 Cl
HETATM   38  C   UNL     1      40.551 -14.852   5.595  1.00  0.00     0.026 A 
HETATM   39  C   UNL     1      40.651 -13.642   4.902  1.00  0.00     0.031 A 
ENDBRANCH  31  33
ENDBRANCH  29  31
ENDBRANCH  27  29
ENDBRANCH  26  27
ENDBRANCH   4  26
TORSDOF 9
ENDMDL
MODEL 6
REMARK VINA RESULT:      -8.4      5.075      7.830
REMARK  9 active torsions:
REMARK  status: ('A' for Active; 'I' for Inactive)
REMARK    1  A    between atoms: C_4  and  C_5 
REMARK    2  A    between atoms: C_7  and  O_8 
REMARK    3  A    between atoms: C_10  and  O_11 
REMARK    4  A    between atoms: C_16  and  C_17 
REMARK    5  A    between atoms: C_20  and  C_21 
REMARK    6  A    between atoms: C_21  and  N_22 
REMARK    7  A    between atoms: N_22  and  C_23 
REMARK    8  A    between atoms: C_23  and  N_24 
REMARK    9  A    between atoms: N_24  and  C_25 
ROOT
HETATM    1  C   UNL     1      38.922 -13.918   2.548  1.00  0.00     0.067 C 
HETATM    2  C   UNL     1      38.611 -14.092   1.036  1.00  0.00     0.001 C 
HETATM    3  C   UNL     1      39.761 -13.518   0.180  1.00  0.00     0.040 C 
HETATM    4  C   UNL     1      39.912 -12.004   0.410  1.00  0.00     0.206 C 
HETATM    5  N   UNL     1      38.975 -11.619   1.563  1.00  0.00    -0.065 N 
HETATM    6  H   UNL     1      39.113 -10.624   1.788  1.00  0.00     0.280 HD
HETATM    7  C   UNL     1      39.243 -12.436   2.832  1.00  0.00     0.246 C 
HETATM    8  C   UNL     1      37.342 -13.272   0.722  1.00  0.00     0.033 C 
HETATM    9  C   UNL     1      37.530 -11.808   1.128  1.00  0.00     0.236 C 
ENDROOT
BRANCH   1  10
HETATM   10  C   UNL     1      39.985 -14.872   3.015  1.00  0.00     0.038 A 
HETATM   11  N   UNL     1      40.375 -14.986   4.330  1.00  0.00    -0.277 N 
HETATM   12  C   UNL     1      39.925 -14.215   5.467  1.00  0.00     0.179 C 
HETATM   13  N   UNL     1      41.262 -15.964   4.540  1.00  0.00    -0.172 NA
HETATM   14  C   UNL     1      41.497 -16.509   3.339  1.00  0.00     0.089 A 
HETATM   15  C   UNL     1      40.743 -15.820   2.349  1.00  0.00     0.061 A 
BRANCH  14  16
HETATM   16  C   UNL     1      42.384 -17.668   3.180  1.00  0.00    -0.003 A 
HETATM   17  C   UNL     1      43.061 -18.194   4.295  1.00  0.00     0.053 A 
HETATM   18  C   UNL     1      43.887 -19.319   4.181  1.00  0.00     0.102 A 
HETATM   19  C   UNL     1      44.052 -19.934   2.925  1.00  0.00     0.101 A 
HETATM   20  C   UNL     1      43.383 -19.415   1.813  1.00  0.00     0.040 A 
HETATM   21  C   UNL     1      42.557 -18.292   1.939  1.00  0.00     0.017 A 
BRANCH  18  22
HETATM   22  O   UNL     1      44.568 -19.891   5.225  1.00  0.00    -0.353 OA
HETATM   23  C   UNL     1      43.881 -20.046   6.459  1.00  0.00     0.210 C 
ENDBRANCH  18  22
BRANCH  19  24
HETATM   24  O   UNL     1      44.868 -21.036   2.895  1.00  0.00    -0.353 OA
HETATM   25  C   UNL     1      44.561 -22.061   1.962  1.00  0.00     0.210 C 
ENDBRANCH  19  24
ENDBRANCH  14  16
ENDBRANCH   1  10
BRANCH   4  26
HETATM   26  C   UNL     1      41.349 -11.506   0.668  1.00  0.00     0.155 C 
BRANCH  26  27
HETATM   27  N   UNL     1      42.357 -12.061  -0.225  1.00  0.00    -0.365 N 
HETATM   28  H   UNL     1      42.440 -13.072  -0.294  1.00  0.00     0.161 HD
BRANCH  27  29
HETATM   29  C   UNL     1      42.811 -11.431  -1.358  1.00  0.00     0.172 C 
HETATM   30  S   UNL     1      43.564  -9.941  -1.396  1.00  0.00    -0.041 SA
BRANCH  29  31
HETATM   31  N   UNL     1      42.560 -12.061  -2.543  1.00  0.00    -0.333 N 
HETATM   32  H   UNL     1      43.335 -12.010  -3.200  1.00  0.00     0.168 HD
BRANCH  31  33
HETATM   33  C   UNL     1      41.498 -12.903  -2.931  1.00  0.00     0.034 A 
HETATM   34  C   UNL     1      40.208 -12.437  -3.202  1.00  0.00     0.031 A 
HETATM   35  C   UNL     1      39.187 -13.335  -3.532  1.00  0.00     0.026 A 
HETATM   36  C   UNL     1      39.453 -14.701  -3.584  1.00  0.00     0.034 A 
HETATM   37 CL   UNL     1      38.196 -15.801  -3.990  1.00  0.00    -0.084 Cl
HETATM   38  C   UNL     1      40.729 -15.178  -3.294  1.00  0.00     0.026 A 
HETATM   39  C   UNL     1      41.745 -14.279  -2.957  1.00  0.00     0.031 A 
ENDBRANCH  31  33
ENDBRANCH  29  31
ENDBRANCH  27  29
ENDBRANCH  26  27
ENDBRANCH   4  26
TORSDOF 9
ENDMDL
MODEL 7
REMARK VINA RESULT:      -8.4      3.458      5.065
REMARK  9 active torsions:
REMARK  status: ('A' for Active; 'I' for Inactive)
REMARK    1  A    between atoms: C_4  and  C_5 
REMARK    2  A    between atoms: C_7  and  O_8 
REMARK    3  A    between atoms: C_10  and  O_11 
REMARK    4  A    between atoms: C_16  and  C_17 
REMARK    5  A    between atoms: C_20  and  C_21 
REMARK    6  A    between atoms: C_21  and  N_22 
REMARK    7  A    between atoms: N_22  and  C_23 
REMARK    8  A    between atoms: C_23  and  N_24 
REMARK    9  A    between atoms: N_24  and  C_25 
ROOT
HETATM    1  C   UNL     1      40.011 -14.081  -1.367  1.00  0.00     0.067 C 
HETATM    2  C   UNL     1      41.350 -14.019  -2.153  1.00  0.00     0.001 C 
HETATM    3  C   UNL     1      42.271 -12.930  -1.560  1.00  0.00     0.040 C 
HETATM    4  C   UNL     1      41.633 -11.537  -1.701  1.00  0.00     0.206 C 
HETATM    5  N   UNL     1      40.203 -11.738  -2.221  1.00  0.00    -0.065 N 
HETATM    6  H   UNL     1      39.727 -10.824  -2.251  1.00  0.00     0.280 HD
HETATM    7  C   UNL     1      39.381 -12.673  -1.327  1.00  0.00     0.246 C 
HETATM    8  C   UNL     1      41.022 -13.613  -3.605  1.00  0.00     0.033 C 
HETATM    9  C   UNL     1      40.250 -12.291  -3.636  1.00  0.00     0.236 C 
ENDROOT
BRANCH   1  10
HETATM   10  C   UNL     1      40.183 -14.710  -0.014  1.00  0.00     0.038 A 
HETATM   11  N   UNL     1      39.203 -14.709   0.953  1.00  0.00    -0.277 N 
HETATM   12  C   UNL     1      37.901 -14.082   0.905  1.00  0.00     0.179 C 
HETATM   13  N   UNL     1      39.529 -15.409   2.043  1.00  0.00    -0.172 NA
HETATM   14  C   UNL     1      40.764 -15.877   1.823  1.00  0.00     0.089 A 
HETATM   15  C   UNL     1      41.225 -15.422   0.557  1.00  0.00     0.061 A 
BRANCH  14  16
HETATM   16  C   UNL     1      41.439 -16.754   2.788  1.00  0.00    -0.003 A 
HETATM   17  C   UNL     1      42.404 -17.676   2.344  1.00  0.00     0.053 A 
HETATM   18  C   UNL     1      43.089 -18.501   3.244  1.00  0.00     0.102 A 
HETATM   19  C   UNL     1      42.804 -18.415   4.620  1.00  0.00     0.101 A 
HETATM   20  C   UNL     1      41.845 -17.502   5.067  1.00  0.00     0.040 A 
HETATM   21  C   UNL     1      41.168 -16.680   4.159  1.00  0.00     0.017 A 
BRANCH  18  22
HETATM   22  O   UNL     1      44.049 -19.414   2.884  1.00  0.00    -0.353 OA
HETATM   23  C   UNL     1      43.653 -20.499   2.056  1.00  0.00     0.210 C 
ENDBRANCH  18  22
BRANCH  19  24
HETATM   24  O   UNL     1      43.523 -19.249   5.438  1.00  0.00    -0.353 OA
HETATM   25  C   UNL     1      44.537 -18.669   6.244  1.00  0.00     0.210 C 
ENDBRANCH  19  24
ENDBRANCH  14  16
ENDBRANCH   1  10
BRANCH   4  26
HETATM   26  C   UNL     1      41.648 -10.663  -0.430  1.00  0.00     0.155 C 
BRANCH  26  27
HETATM   27  N   UNL     1      41.962 -11.379   0.800  1.00  0.00    -0.365 N 
HETATM   28  H   UNL     1      42.935 -11.592   1.001  1.00  0.00     0.161 HD
BRANCH  27  29
HETATM   29  C   UNL     1      41.205 -11.309   1.944  1.00  0.00     0.172 C 
HETATM   30  S   UNL     1      40.493  -9.922   2.545  1.00  0.00    -0.041 SA
BRANCH  29  31
HETATM   31  N   UNL     1      41.091 -12.461   2.666  1.00  0.00    -0.333 N 
HETATM   32  H   UNL     1      40.374 -13.091   2.312  1.00  0.00     0.168 HD
BRANCH  31  33
HETATM   33  C   UNL     1      41.901 -12.990   3.690  1.00  0.00     0.034 A 
HETATM   34  C   UNL     1      41.593 -12.881   5.050  1.00  0.00     0.031 A 
HETATM   35  C   UNL     1      42.469 -13.383   6.017  1.00  0.00     0.026 A 
HETATM   36  C   UNL     1      43.660 -13.991   5.626  1.00  0.00     0.034 A 
HETATM   37 CL   UNL     1      44.735 -14.608   6.817  1.00  0.00    -0.084 Cl
HETATM   38  C   UNL     1      43.988 -14.086   4.277  1.00  0.00     0.026 A 
HETATM   39  C   UNL     1      43.114 -13.575   3.313  1.00  0.00     0.031 A 
ENDBRANCH  31  33
ENDBRANCH  29  31
ENDBRANCH  27  29
ENDBRANCH  26  27
ENDBRANCH   4  26
TORSDOF 9
ENDMDL
MODEL 8
REMARK VINA RESULT:      -8.3      5.072      8.464
REMARK  9 active torsions:
REMARK  status: ('A' for Active; 'I' for Inactive)
REMARK    1  A    between atoms: C_4  and  C_5 
REMARK    2  A    between atoms: C_7  and  O_8 
REMARK    3  A    between atoms: C_10  and  O_11 
REMARK    4  A    between atoms: C_16  and  C_17 
REMARK    5  A    between atoms: C_20  and  C_21 
REMARK    6  A    between atoms: C_21  and  N_22 
REMARK    7  A    between atoms: N_22  and  C_23 
REMARK    8  A    between atoms: C_23  and  N_24 
REMARK    9  A    between atoms: N_24  and  C_25 
ROOT
HETATM    1  C   UNL     1      39.404 -14.269   2.820  1.00  0.00     0.067 C 
HETATM    2  C   UNL     1      38.889 -14.956   1.525  1.00  0.00     0.001 C 
HETATM    3  C   UNL     1      39.973 -14.916   0.426  1.00  0.00     0.040 C 
HETATM    4  C   UNL     1      40.302 -13.465   0.034  1.00  0.00     0.206 C 
HETATM    5  N   UNL     1      39.561 -12.545   1.014  1.00  0.00    -0.065 N 
HETATM    6  H   UNL     1      39.825 -11.569   0.821  1.00  0.00     0.280 HD
HETATM    7  C   UNL     1      39.904 -12.850   2.476  1.00  0.00     0.246 C 
HETATM    8  C   UNL     1      37.679 -14.146   1.015  1.00  0.00     0.033 C 
HETATM    9  C   UNL     1      38.061 -12.679   0.801  1.00  0.00     0.236 C 
ENDROOT
BRANCH   1  10
HETATM   10  C   UNL     1      40.417 -15.115   3.538  1.00  0.00     0.038 A 
HETATM   11  N   UNL     1      40.689 -14.993   4.882  1.00  0.00    -0.277 N 
HETATM   12  C   UNL     1      40.143 -14.039   5.822  1.00  0.00     0.179 C 
HETATM   13  N   UNL     1      41.549 -15.909   5.337  1.00  0.00    -0.172 NA
HETATM   14  C   UNL     1      41.886 -16.654   4.276  1.00  0.00     0.089 A 
HETATM   15  C   UNL     1      41.226 -16.157   3.118  1.00  0.00     0.061 A 
BRANCH  14  16
HETATM   16  C   UNL     1      42.779 -17.813   4.401  1.00  0.00    -0.003 A 
HETATM   17  C   UNL     1      43.160 -18.533   3.254  1.00  0.00     0.053 A 
HETATM   18  C   UNL     1      44.037 -19.621   3.338  1.00  0.00     0.102 A 
HETATM   19  C   UNL     1      44.542 -20.011   4.593  1.00  0.00     0.101 A 
HETATM   20  C   UNL     1      44.166 -19.301   5.736  1.00  0.00     0.040 A 
HETATM   21  C   UNL     1      43.291 -18.212   5.641  1.00  0.00     0.017 A 
BRANCH  18  22
HETATM   22  O   UNL     1      44.460 -20.361   2.262  1.00  0.00    -0.353 OA
HETATM   23  C   UNL     1      43.605 -21.394   1.792  1.00  0.00     0.210 C 
ENDBRANCH  18  22
BRANCH  19  24
HETATM   24  O   UNL     1      45.403 -21.080   4.591  1.00  0.00    -0.353 OA
HETATM   25  C   UNL     1      44.975 -22.272   5.233  1.00  0.00     0.210 C 
ENDBRANCH  19  24
ENDBRANCH  14  16
ENDBRANCH   1  10
BRANCH   4  26
HETATM   26  C   UNL     1      41.802 -13.114  -0.036  1.00  0.00     0.155 C 
BRANCH  26  27
HETATM   27  N   UNL     1      42.480 -13.567  -1.243  1.00  0.00    -0.365 N 
HETATM   28  H   UNL     1      42.808 -14.528  -1.283  1.00  0.00     0.161 HD
BRANCH  27  29
HETATM   29  C   UNL     1      42.245 -13.053  -2.495  1.00  0.00     0.172 C 
HETATM   30  S   UNL     1      42.631 -11.505  -2.990  1.00  0.00    -0.041 SA
BRANCH  29  31
HETATM   31  N   UNL     1      41.586 -13.868  -3.370  1.00  0.00    -0.333 N 
HETATM   32  H   UNL     1      42.204 -14.492  -3.885  1.00  0.00     0.168 HD
BRANCH  31  33
HETATM   33  C   UNL     1      40.209 -14.106  -3.546  1.00  0.00     0.034 A 
HETATM   34  C   UNL     1      39.679 -15.361  -3.864  1.00  0.00     0.031 A 
HETATM   35  C   UNL     1      38.306 -15.516  -4.076  1.00  0.00     0.026 A 
HETATM   36  C   UNL     1      37.459 -14.415  -3.978  1.00  0.00     0.034 A 
HETATM   37 CL   UNL     1      35.771 -14.609  -4.239  1.00  0.00    -0.084 Cl
HETATM   38  C   UNL     1      37.977 -13.156  -3.684  1.00  0.00     0.026 A 
HETATM   39  C   UNL     1      39.352 -13.003  -3.480  1.00  0.00     0.031 A 
ENDBRANCH  31  33
ENDBRANCH  29  31
ENDBRANCH  27  29
ENDBRANCH  26  27
ENDBRANCH   4  26
TORSDOF 9
ENDMDL
MODEL 9
REMARK VINA RESULT:      -8.3      3.423      3.983
REMARK  9 active torsions:
REMARK  status: ('A' for Active; 'I' for Inactive)
REMARK    1  A    between atoms: C_4  and  C_5 
REMARK    2  A    between atoms: C_7  and  O_8 
REMARK    3  A    between atoms: C_10  and  O_11 
REMARK    4  A    between atoms: C_16  and  C_17 
REMARK    5  A    between atoms: C_20  and  C_21 
REMARK    6  A    between atoms: C_21  and  N_22 
REMARK    7  A    between atoms: N_22  and  C_23 
REMARK    8  A    between atoms: C_23  and  N_24 
REMARK    9  A    between atoms: N_24  and  C_25 
ROOT
HETATM    1  C   UNL     1      39.731 -14.171   0.618  1.00  0.00     0.067 C 
HETATM    2  C   UNL     1      40.452 -13.044  -0.171  1.00  0.00     0.001 C 
HETATM    3  C   UNL     1      41.497 -12.342   0.724  1.00  0.00     0.040 C 
HETATM    4  C   UNL     1      40.818 -11.654   1.921  1.00  0.00     0.206 C 
HETATM    5  N   UNL     1      39.339 -12.065   1.909  1.00  0.00    -0.065 N 
HETATM    6  H   UNL     1      38.878 -11.678   2.745  1.00  0.00     0.280 HD
HETATM    7  C   UNL     1      39.154 -13.586   1.924  1.00  0.00     0.246 C 
HETATM    8  C   UNL     1      39.391 -11.993  -0.560  1.00  0.00     0.033 C 
HETATM    9  C   UNL     1      38.659 -11.478   0.682  1.00  0.00     0.236 C 
ENDROOT
BRANCH   1  10
HETATM   10  C   UNL     1      40.619 -15.366   0.826  1.00  0.00     0.038 A 
HETATM   11  N   UNL     1      41.261 -16.020  -0.200  1.00  0.00    -0.277 N 
HETATM   12  C   UNL     1      41.172 -15.760  -1.620  1.00  0.00     0.179 C 
HETATM   13  N   UNL     1      42.078 -16.992   0.215  1.00  0.00    -0.172 NA
HETATM   14  C   UNL     1      41.972 -17.014   1.550  1.00  0.00     0.089 A 
HETATM   15  C   UNL     1      41.031 -16.033   1.968  1.00  0.00     0.061 A 
BRANCH  14  16
HETATM   16  C   UNL     1      42.780 -17.924   2.372  1.00  0.00    -0.003 A 
HETATM   17  C   UNL     1      43.361 -19.065   1.793  1.00  0.00     0.053 A 
HETATM   18  C   UNL     1      44.164 -19.933   2.543  1.00  0.00     0.102 A 
HETATM   19  C   UNL     1      44.390 -19.664   3.907  1.00  0.00     0.101 A 
HETATM   20  C   UNL     1      43.814 -18.532   4.489  1.00  0.00     0.040 A 
HETATM   21  C   UNL     1      43.015 -17.669   3.729  1.00  0.00     0.017 A 
BRANCH  18  22
HETATM   22  O   UNL     1      44.770 -21.058   2.043  1.00  0.00    -0.353 OA
HETATM   23  C   UNL     1      43.948 -22.024   1.403  1.00  0.00     0.210 C 
ENDBRANCH  18  22
BRANCH  19  24
HETATM   24  O   UNL     1      45.195 -20.554   4.572  1.00  0.00    -0.353 OA
HETATM   25  C   UNL     1      44.595 -21.373   5.565  1.00  0.00     0.210 C 
ENDBRANCH  19  24
ENDBRANCH  14  16
ENDBRANCH   1  10
BRANCH   4  26
HETATM   26  C   UNL     1      41.461 -11.919   3.298  1.00  0.00     0.155 C 
BRANCH  26  27
HETATM   27  N   UNL     1      40.573 -11.720   4.435  1.00  0.00    -0.365 N 
HETATM   28  H   UNL     1      39.837 -11.023   4.359  1.00  0.00     0.161 HD
BRANCH  27  29
HETATM   29  C   UNL     1      40.258 -12.699   5.345  1.00  0.00     0.172 C 
HETATM   30  S   UNL     1      39.444 -12.453   6.783  1.00  0.00    -0.041 SA
BRANCH  29  31
HETATM   31  N   UNL     1      40.711 -13.956   5.064  1.00  0.00    -0.333 N 
HETATM   32  H   UNL     1      40.573 -14.228   4.093  1.00  0.00     0.168 HD
BRANCH  31  33
HETATM   33  C   UNL     1      41.480 -14.851   5.835  1.00  0.00     0.034 A 
HETATM   34  C   UNL     1      42.840 -14.662   6.103  1.00  0.00     0.031 A 
HETATM   35  C   UNL     1      43.556 -15.617   6.832  1.00  0.00     0.026 A 
HETATM   36  C   UNL     1      42.915 -16.766   7.288  1.00  0.00     0.034 A 
HETATM   37 CL   UNL     1      43.798 -17.938   8.184  1.00  0.00    -0.084 Cl
HETATM   38  C   UNL     1      41.567 -16.975   7.009  1.00  0.00     0.026 A 
HETATM   39  C   UNL     1      40.856 -16.023   6.273  1.00  0.00     0.031 A 
ENDBRANCH  31  33
ENDBRANCH  29  31
ENDBRANCH  27  29
ENDBRANCH  26  27
ENDBRANCH   4  26
TORSDOF 9
ENDMDL
MODEL 10
REMARK VINA RESULT:      -8.1      4.702      7.776
REMARK  9 active torsions:
REMARK  status: ('A' for Active; 'I' for Inactive)
REMARK    1  A    between atoms: C_4  and  C_5 
REMARK    2  A    between atoms: C_7  and  O_8 
REMARK    3  A    between atoms: C_10  and  O_11 
REMARK    4  A    between atoms: C_16  and  C_17 
REMARK    5  A    between atoms: C_20  and  C_21 
REMARK    6  A    between atoms: C_21  and  N_22 
REMARK    7  A    between atoms: N_22  and  C_23 
REMARK    8  A    between atoms: C_23  and  N_24 
REMARK    9  A    between atoms: N_24  and  C_25 
ROOT
HETATM    1  C   UNL     1      41.023 -13.545   2.803  1.00  0.00     0.067 C 
HETATM    2  C   UNL     1      39.527 -13.801   2.471  1.00  0.00     0.001 C 
HETATM    3  C   UNL     1      39.397 -14.858   1.352  1.00  0.00     0.040 C 
HETATM    4  C   UNL     1      40.040 -14.356   0.048  1.00  0.00     0.206 C 
HETATM    5  N   UNL     1      40.759 -13.038   0.368  1.00  0.00    -0.065 N 
HETATM    6  H   UNL     1      41.263 -12.719  -0.472  1.00  0.00     0.280 HD
HETATM    7  C   UNL     1      41.776 -13.187   1.505  1.00  0.00     0.246 C 
HETATM    8  C   UNL     1      38.933 -12.481   1.937  1.00  0.00     0.033 C 
HETATM    9  C   UNL     1      39.734 -11.976   0.733  1.00  0.00     0.236 C 
ENDROOT
BRANCH   1  10
HETATM   10  C   UNL     1      41.632 -14.688   3.566  1.00  0.00     0.038 A 
HETATM   11  N   UNL     1      41.417 -14.903   4.908  1.00  0.00    -0.277 N 
HETATM   12  C   UNL     1      40.662 -14.089   5.835  1.00  0.00     0.179 C 
HETATM   13  N   UNL     1      41.971 -16.030   5.363  1.00  0.00    -0.172 NA
HETATM   14  C   UNL     1      42.595 -16.581   4.313  1.00  0.00     0.089 A 
HETATM   15  C   UNL     1      42.439 -15.743   3.175  1.00  0.00     0.061 A 
BRANCH  14  16
HETATM   16  C   UNL     1      43.274 -17.879   4.415  1.00  0.00    -0.003 A 
HETATM   17  C   UNL     1      43.290 -18.570   5.640  1.00  0.00     0.053 A 
HETATM   18  C   UNL     1      43.900 -19.824   5.759  1.00  0.00     0.102 A 
HETATM   19  C   UNL     1      44.519 -20.405   4.635  1.00  0.00     0.101 A 
HETATM   20  C   UNL     1      44.508 -19.722   3.416  1.00  0.00     0.040 A 
HETATM   21  C   UNL     1      43.892 -18.470   3.307  1.00  0.00     0.017 A 
BRANCH  18  22
HETATM   22  O   UNL     1      43.945 -20.559   6.917  1.00  0.00    -0.353 OA
HETATM   23  C   UNL     1      43.975 -19.852   8.149  1.00  0.00     0.210 C 
ENDBRANCH  18  22
BRANCH  19  24
HETATM   24  O   UNL     1      45.086 -21.639   4.829  1.00  0.00    -0.353 OA
HETATM   25  C   UNL     1      44.640 -22.707   4.007  1.00  0.00     0.210 C 
ENDBRANCH  19  24
ENDBRANCH  14  16
ENDBRANCH   1  10
BRANCH   4  26
HETATM   26  C   UNL     1      40.985 -15.350  -0.658  1.00  0.00     0.155 C 
BRANCH  26  27
HETATM   27  N   UNL     1      41.813 -14.768  -1.705  1.00  0.00    -0.365 N 
HETATM   28  H   UNL     1      42.784 -15.060  -1.774  1.00  0.00     0.161 HD
BRANCH  27  29
HETATM   29  C   UNL     1      41.327 -14.319  -2.909  1.00  0.00     0.172 C 
HETATM   30  S   UNL     1      39.903 -14.823  -3.622  1.00  0.00    -0.041 SA
BRANCH  29  31
HETATM   31  N   UNL     1      42.116 -13.438  -3.591  1.00  0.00    -0.333 N 
HETATM   32  H   UNL     1      42.559 -13.844  -4.412  1.00  0.00     0.168 HD
BRANCH  31  33
HETATM   33  C   UNL     1      42.276 -12.045  -3.449  1.00  0.00     0.034 A 
HETATM   34  C   UNL     1      42.024 -11.133  -4.478  1.00  0.00     0.031 A 
HETATM   35  C   UNL     1      42.253  -9.767  -4.285  1.00  0.00     0.026 A 
HETATM   36  C   UNL     1      42.741  -9.311  -3.063  1.00  0.00     0.034 A 
HETATM   37 CL   UNL     1      43.021  -7.631  -2.829  1.00  0.00    -0.084 Cl
HETATM   38  C   UNL     1      43.016 -10.211  -2.038  1.00  0.00     0.026 A 
HETATM   39  C   UNL     1      42.794 -11.577  -2.237  1.00  0.00     0.031 A 
ENDBRANCH  31  33
ENDBRANCH  29  31
ENDBRANCH  27  29
ENDBRANCH  26  27
ENDBRANCH   4  26
TORSDOF 9
ENDMDL
