MODEL 1
REMARK VINA RESULT:      -9.0      0.000      0.000
REMARK  6 active torsions:
REMARK  status: ('A' for Active; 'I' for Inactive)
REMARK    1  A    between atoms: C_4  and  C_5 
REMARK    2  A    between atoms: C_5  and  N_6 
REMARK       I    between atoms: N_6  and  C_7 
REMARK    3  A    between atoms: C_7  and  C_8 
REMARK    4  A    between atoms: C_12  and  C_13 
REMARK    5  A    between atoms: C_13  and  O_14 
REMARK    6  A    between atoms: O_14  and  C_15 
ROOT
HETATM    1  C   UNL     1      44.306 -14.884   6.854  1.00  0.00     0.146 A 
HETATM    2  N   UNL     1      43.971 -15.889   7.690  1.00  0.00    -0.169 NA
HETATM    3  N   UNL     1      43.327 -16.771   6.904  1.00  0.00    -0.279 N 
HETATM    4  H   UNL     1      43.009 -17.642   7.317  1.00  0.00     0.189 HD
HETATM    5  C   UNL     1      43.178 -16.353   5.612  1.00  0.00     0.054 A 
HETATM    6  C   UNL     1      43.830 -15.142   5.542  1.00  0.00     0.068 A 
ENDROOT
BRANCH   1   7
HETATM    7  C   UNL     1      45.057 -13.697   7.289  1.00  0.00     0.272 C 
HETATM    8  N   UNL     1      44.583 -13.115   8.436  1.00  0.00    -0.350 N 
HETATM    9  H   UNL     1      43.788 -13.539   8.907  1.00  0.00     0.163 HD
HETATM   10  O   UNL     1      46.025 -13.262   6.669  1.00  0.00    -0.266 OA
BRANCH   8  11
HETATM   11  C   UNL     1      45.221 -11.969   9.031  1.00  0.00     0.182 C 
BRANCH  11  12
HETATM   12  C   UNL     1      44.264 -11.086   9.802  1.00  0.00     0.052 A 
HETATM   13  N   UNL     1      43.163 -10.608   9.161  1.00  0.00    -0.257 NA
HETATM   14  C   UNL     1      42.313  -9.818   9.861  1.00  0.00     0.031 A 
HETATM   15  C   UNL     1      41.113  -9.288   9.135  1.00  0.00     0.070 C 
HETATM   16  C   UNL     1      42.522  -9.490  11.196  1.00  0.00     0.027 A 
HETATM   17  C   UNL     1      43.645  -9.991  11.842  1.00  0.00     0.004 A 
HETATM   18  C   UNL     1      44.529 -10.801  11.139  1.00  0.00     0.029 A 
ENDBRANCH  11  12
ENDBRANCH   8  11
ENDBRANCH   1   7
BRANCH   5  19
HETATM   19  C   UNL     1      42.442 -17.143   4.595  1.00  0.00     0.234 C 
BRANCH  19  20
HETATM   20  O   UNL     1      43.363 -17.398   3.539  1.00  0.00    -0.345 OA
BRANCH  20  21
HETATM   21  C   UNL     1      43.624 -18.714   3.261  1.00  0.00     0.072 A 
HETATM   22  C   UNL     1      44.119 -19.452   4.342  1.00  0.00     0.076 A 
HETATM   23  C   UNL     1      44.412 -20.784   4.142  1.00  0.00     0.107 A 
HETATM   24  C   UNL     1      44.221 -21.390   2.923  1.00  0.00     0.105 A 
HETATM   25  O   UNL     1      44.907 -21.642   5.074  1.00  0.00    -0.323 OA
HETATM   26  O   UNL     1      44.572 -22.703   2.935  1.00  0.00    -0.323 OA
HETATM   27  C   UNL     1      43.725 -20.697   1.842  1.00  0.00     0.042 A 
HETATM   28  C   UNL     1      45.014 -22.854   4.299  1.00  0.00     0.352 A 
HETATM   29  C   UNL     1      43.420 -19.342   2.017  1.00  0.00     0.039 A 
ENDBRANCH  20  21
ENDBRANCH  19  20
ENDBRANCH   5  19
TORSDOF 6
ENDMDL
MODEL 2
REMARK VINA RESULT:      -8.8      6.110      9.984
REMARK  6 active torsions:
REMARK  status: ('A' for Active; 'I' for Inactive)
REMARK    1  A    between atoms: C_4  and  C_5 
REMARK    2  A    between atoms: C_5  and  N_6 
REMARK       I    between atoms: N_6  and  C_7 
REMARK    3  A    between atoms: C_7  and  C_8 
REMARK    4  A    between atoms: C_12  and  C_13 
REMARK    5  A    between atoms: C_13  and  O_14 
REMARK    6  A    between atoms: O_14  and  C_15 
ROOT
HETATM    1  C   UNL     1      41.439 -16.707   2.739  1.00  0.00     0.146 A 
HETATM    2  N   UNL     1      40.210 -16.987   2.259  1.00  0.00    -0.169 NA
HETATM    3  N   UNL     1      40.018 -16.075   1.290  1.00  0.00    -0.279 N 
HETATM    4  H   UNL     1      39.158 -16.115   0.752  1.00  0.00     0.189 HD
HETATM    5  C   UNL     1      41.042 -15.179   1.164  1.00  0.00     0.054 A 
HETATM    6  C   UNL     1      41.994 -15.583   2.074  1.00  0.00     0.068 A 
ENDROOT
BRANCH   1   7
HETATM    7  C   UNL     1      42.075 -17.483   3.814  1.00  0.00     0.272 C 
HETATM    8  N   UNL     1      43.430 -17.639   3.675  1.00  0.00    -0.350 N 
HETATM    9  H   UNL     1      43.893 -17.206   2.880  1.00  0.00     0.163 HD
HETATM   10  O   UNL     1      41.440 -17.957   4.754  1.00  0.00    -0.266 OA
BRANCH   8  11
HETATM   11  C   UNL     1      44.223 -18.335   4.654  1.00  0.00     0.182 C 
BRANCH  11  12
HETATM   12  C   UNL     1      44.367 -19.813   4.367  1.00  0.00     0.052 A 
HETATM   13  N   UNL     1      44.237 -20.240   3.081  1.00  0.00    -0.257 NA
HETATM   14  C   UNL     1      44.367 -21.566   2.835  1.00  0.00     0.031 A 
HETATM   15  C   UNL     1      44.207 -22.020   1.415  1.00  0.00     0.070 C 
HETATM   16  C   UNL     1      44.632 -22.492   3.837  1.00  0.00     0.027 A 
HETATM   17  C   UNL     1      44.770 -22.044   5.146  1.00  0.00     0.004 A 
HETATM   18  C   UNL     1      44.638 -20.687   5.417  1.00  0.00     0.029 A 
ENDBRANCH  11  12
ENDBRANCH   8  11
ENDBRANCH   1   7
BRANCH   5  19
HETATM   19  C   UNL     1      41.007 -14.052   0.201  1.00  0.00     0.234 C 
BRANCH  19  20
HETATM   20  O   UNL     1      41.486 -14.565  -1.038  1.00  0.00    -0.345 OA
BRANCH  20  21
HETATM   21  C   UNL     1      40.540 -14.860  -1.984  1.00  0.00     0.072 A 
HETATM   22  C   UNL     1      39.469 -13.960  -2.038  1.00  0.00     0.076 A 
HETATM   23  C   UNL     1      38.470 -14.191  -2.960  1.00  0.00     0.107 A 
HETATM   24  C   UNL     1      38.513 -15.266  -3.817  1.00  0.00     0.105 A 
HETATM   25  O   UNL     1      37.359 -13.429  -3.141  1.00  0.00    -0.323 OA
HETATM   26  O   UNL     1      37.435 -15.314  -4.643  1.00  0.00    -0.323 OA
HETATM   27  C   UNL     1      39.557 -16.163  -3.799  1.00  0.00     0.042 A 
HETATM   28  C   UNL     1      36.703 -14.151  -4.204  1.00  0.00     0.352 A 
HETATM   29  C   UNL     1      40.584 -15.954  -2.871  1.00  0.00     0.039 A 
ENDBRANCH  20  21
ENDBRANCH  19  20
ENDBRANCH   5  19
TORSDOF 6
ENDMDL
MODEL 3
REMARK VINA RESULT:      -8.4      2.295      3.147
REMARK  6 active torsions:
REMARK  status: ('A' for Active; 'I' for Inactive)
REMARK    1  A    between atoms: C_4  and  C_5 
REMARK    2  A    between atoms: C_5  and  N_6 
REMARK       I    between atoms: N_6  and  C_7 
REMARK    3  A    between atoms: C_7  and  C_8 
REMARK    4  A    between atoms: C_12  and  C_13 
REMARK    5  A    between atoms: C_13  and  O_14 
REMARK    6  A    between atoms: O_14  and  C_15 
ROOT
HETATM    1  C   UNL     1      40.851 -13.094   5.857  1.00  0.00     0.146 A 
HETATM    2  N   UNL     1      39.630 -13.658   5.965  1.00  0.00    -0.169 NA
HETATM    3  N   UNL     1      39.791 -14.893   5.459  1.00  0.00    -0.279 N 
HETATM    4  H   UNL     1      38.998 -15.527   5.470  1.00  0.00     0.189 HD
HETATM    5  C   UNL     1      41.045 -15.131   4.972  1.00  0.00     0.054 A 
HETATM    6  C   UNL     1      41.765 -13.989   5.243  1.00  0.00     0.068 A 
ENDROOT
BRANCH   1   7
HETATM    7  C   UNL     1      41.146 -11.729   6.319  1.00  0.00     0.272 C 
HETATM    8  N   UNL     1      40.927 -11.523   7.656  1.00  0.00    -0.350 N 
HETATM    9  H   UNL     1      40.608 -12.303   8.225  1.00  0.00     0.163 HD
HETATM   10  O   UNL     1      41.551 -10.848   5.564  1.00  0.00    -0.266 OA
BRANCH   8  11
HETATM   11  C   UNL     1      41.203 -10.260   8.290  1.00  0.00     0.182 C 
BRANCH  11  12
HETATM   12  C   UNL     1      42.243 -10.354   9.384  1.00  0.00     0.052 A 
HETATM   13  N   UNL     1      43.521 -10.671   9.039  1.00  0.00    -0.257 NA
HETATM   14  C   UNL     1      44.444 -10.753  10.027  1.00  0.00     0.031 A 
HETATM   15  C   UNL     1      45.844 -11.119   9.631  1.00  0.00     0.070 C 
HETATM   16  C   UNL     1      44.136 -10.521  11.363  1.00  0.00     0.027 A 
HETATM   17  C   UNL     1      42.830 -10.190  11.702  1.00  0.00     0.004 A 
HETATM   18  C   UNL     1      41.869 -10.103  10.702  1.00  0.00     0.029 A 
ENDBRANCH  11  12
ENDBRANCH   8  11
ENDBRANCH   1   7
BRANCH   5  19
HETATM   19  C   UNL     1      41.420 -16.405   4.312  1.00  0.00     0.234 C 
BRANCH  19  20
HETATM   20  O   UNL     1      42.843 -16.456   4.312  1.00  0.00    -0.345 OA
BRANCH  20  21
HETATM   21  C   UNL     1      43.410 -17.698   4.196  1.00  0.00     0.072 A 
HETATM   22  C   UNL     1      43.095 -18.374   3.011  1.00  0.00     0.076 A 
HETATM   23  C   UNL     1      43.621 -19.634   2.821  1.00  0.00     0.107 A 
HETATM   24  C   UNL     1      44.443 -20.222   3.754  1.00  0.00     0.105 A 
HETATM   25  O   UNL     1      43.412 -20.432   1.740  1.00  0.00    -0.323 OA
HETATM   26  O   UNL     1      44.852 -21.462   3.377  1.00  0.00    -0.323 OA
HETATM   27  C   UNL     1      44.783 -19.581   4.923  1.00  0.00     0.042 A 
HETATM   28  C   UNL     1      44.188 -21.592   2.103  1.00  0.00     0.352 A 
HETATM   29  C   UNL     1      44.260 -18.300   5.144  1.00  0.00     0.039 A 
ENDBRANCH  20  21
ENDBRANCH  19  20
ENDBRANCH   5  19
TORSDOF 6
ENDMDL
MODEL 4
REMARK VINA RESULT:      -8.3      2.392      3.100
REMARK  6 active torsions:
REMARK  status: ('A' for Active; 'I' for Inactive)
REMARK    1  A    between atoms: C_4  and  C_5 
REMARK    2  A    between atoms: C_5  and  N_6 
REMARK       I    between atoms: N_6  and  C_7 
REMARK    3  A    between atoms: C_7  and  C_8 
REMARK    4  A    between atoms: C_12  and  C_13 
REMARK    5  A    between atoms: C_13  and  O_14 
REMARK    6  A    between atoms: O_14  and  C_15 
ROOT
HETATM    1  C   UNL     1      40.690 -12.851   6.024  1.00  0.00     0.146 A 
HETATM    2  N   UNL     1      39.405 -13.257   5.964  1.00  0.00    -0.169 NA
HETATM    3  N   UNL     1      39.472 -14.480   5.407  1.00  0.00    -0.279 N 
HETATM    4  H   UNL     1      38.611 -15.006   5.295  1.00  0.00     0.189 HD
HETATM    5  C   UNL     1      40.735 -14.855   5.048  1.00  0.00     0.054 A 
HETATM    6  C   UNL     1      41.553 -13.828   5.463  1.00  0.00     0.068 A 
ENDROOT
BRANCH   1   7
HETATM    7  C   UNL     1      41.095 -11.557   6.594  1.00  0.00     0.272 C 
HETATM    8  N   UNL     1      41.009 -11.488   7.960  1.00  0.00    -0.350 N 
HETATM    9  H   UNL     1      40.704 -12.311   8.473  1.00  0.00     0.163 HD
HETATM   10  O   UNL     1      41.473 -10.616   5.899  1.00  0.00    -0.266 OA
BRANCH   8  11
HETATM   11  C   UNL     1      41.405 -10.312   8.692  1.00  0.00     0.182 C 
BRANCH  11  12
HETATM   12  C   UNL     1      42.682 -10.501   9.480  1.00  0.00     0.052 A 
HETATM   13  N   UNL     1      43.768 -11.017   8.842  1.00  0.00    -0.257 NA
HETATM   14  C   UNL     1      44.907 -11.182   9.557  1.00  0.00     0.031 A 
HETATM   15  C   UNL     1      46.089 -11.766   8.842  1.00  0.00     0.070 C 
HETATM   16  C   UNL     1      45.005 -10.839  10.901  1.00  0.00     0.027 A 
HETATM   17  C   UNL     1      43.892 -10.305  11.540  1.00  0.00     0.004 A 
HETATM   18  C   UNL     1      42.715 -10.131  10.822  1.00  0.00     0.029 A 
ENDBRANCH  11  12
ENDBRANCH   8  11
ENDBRANCH   1   7
BRANCH   5  19
HETATM   19  C   UNL     1      41.025 -16.136   4.359  1.00  0.00     0.234 C 
BRANCH  19  20
HETATM   20  O   UNL     1      42.327 -16.007   3.798  1.00  0.00    -0.345 OA
BRANCH  20  21
HETATM   21  C   UNL     1      42.988 -17.172   3.513  1.00  0.00     0.072 A 
HETATM   22  C   UNL     1      43.294 -17.958   4.630  1.00  0.00     0.076 A 
HETATM   23  C   UNL     1      43.964 -19.145   4.427  1.00  0.00     0.107 A 
HETATM   24  C   UNL     1      44.323 -19.567   3.169  1.00  0.00     0.105 A 
HETATM   25  O   UNL     1      44.348 -20.021   5.395  1.00  0.00    -0.323 OA
HETATM   26  O   UNL     1      44.975 -20.759   3.186  1.00  0.00    -0.323 OA
HETATM   27  C   UNL     1      44.027 -18.826   2.047  1.00  0.00     0.042 A 
HETATM   28  C   UNL     1      44.995 -21.037   4.601  1.00  0.00     0.352 A 
HETATM   29  C   UNL     1      43.348 -17.613   2.224  1.00  0.00     0.039 A 
ENDBRANCH  20  21
ENDBRANCH  19  20
ENDBRANCH   5  19
TORSDOF 6
ENDMDL
MODEL 5
REMARK VINA RESULT:      -8.3      2.040      2.572
REMARK  6 active torsions:
REMARK  status: ('A' for Active; 'I' for Inactive)
REMARK    1  A    between atoms: C_4  and  C_5 
REMARK    2  A    between atoms: C_5  and  N_6 
REMARK       I    between atoms: N_6  and  C_7 
REMARK    3  A    between atoms: C_7  and  C_8 
REMARK    4  A    between atoms: C_12  and  C_13 
REMARK    5  A    between atoms: C_13  and  O_14 
REMARK    6  A    between atoms: O_14  and  C_15 
ROOT
HETATM    1  C   UNL     1      42.224 -13.214   5.012  1.00  0.00     0.146 A 
HETATM    2  N   UNL     1      43.270 -13.279   4.163  1.00  0.00    -0.169 NA
HETATM    3  N   UNL     1      43.350 -14.582   3.837  1.00  0.00    -0.279 N 
HETATM    4  H   UNL     1      44.056 -14.868   3.166  1.00  0.00     0.189 HD
HETATM    5  C   UNL     1      42.441 -15.370   4.484  1.00  0.00     0.054 A 
HETATM    6  C   UNL     1      41.675 -14.505   5.233  1.00  0.00     0.068 A 
ENDROOT
BRANCH   1   7
HETATM    7  C   UNL     1      41.754 -11.956   5.609  1.00  0.00     0.272 C 
HETATM    8  N   UNL     1      41.905 -11.883   6.970  1.00  0.00    -0.350 N 
HETATM    9  H   UNL     1      42.336 -12.665   7.457  1.00  0.00     0.163 HD
HETATM   10  O   UNL     1      41.262 -11.048   4.941  1.00  0.00    -0.266 OA
BRANCH   8  11
HETATM   11  C   UNL     1      41.538 -10.708   7.717  1.00  0.00     0.182 C 
BRANCH  11  12
HETATM   12  C   UNL     1      42.347 -10.528   8.983  1.00  0.00     0.052 A 
HETATM   13  N   UNL     1      43.673 -10.833   8.954  1.00  0.00    -0.257 NA
HETATM   14  C   UNL     1      44.389 -10.668  10.092  1.00  0.00     0.031 A 
HETATM   15  C   UNL     1      45.845 -11.023  10.047  1.00  0.00     0.070 C 
HETATM   16  C   UNL     1      43.823 -10.198  11.272  1.00  0.00     0.027 A 
HETATM   17  C   UNL     1      42.469  -9.882  11.288  1.00  0.00     0.004 A 
HETATM   18  C   UNL     1      41.720 -10.047  10.129  1.00  0.00     0.029 A 
ENDBRANCH  11  12
ENDBRANCH   8  11
ENDBRANCH   1   7
BRANCH   5  19
HETATM   19  C   UNL     1      42.397 -16.843   4.319  1.00  0.00     0.234 C 
BRANCH  19  20
HETATM   20  O   UNL     1      43.419 -17.175   3.384  1.00  0.00    -0.345 OA
BRANCH  20  21
HETATM   21  C   UNL     1      43.698 -18.507   3.233  1.00  0.00     0.072 A 
HETATM   22  C   UNL     1      44.101 -19.156   4.406  1.00  0.00     0.076 A 
HETATM   23  C   UNL     1      44.407 -20.498   4.335  1.00  0.00     0.107 A 
HETATM   24  C   UNL     1      44.316 -21.200   3.156  1.00  0.00     0.105 A 
HETATM   25  O   UNL     1      44.822 -21.278   5.370  1.00  0.00    -0.323 OA
HETATM   26  O   UNL     1      44.662 -22.506   3.300  1.00  0.00    -0.323 OA
HETATM   27  C   UNL     1      43.911 -20.596   1.987  1.00  0.00     0.042 A 
HETATM   28  C   UNL     1      44.990 -22.547   4.704  1.00  0.00     0.352 A 
HETATM   29  C   UNL     1      43.596 -19.232   2.029  1.00  0.00     0.039 A 
ENDBRANCH  20  21
ENDBRANCH  19  20
ENDBRANCH   5  19
TORSDOF 6
ENDMDL
MODEL 6
REMARK VINA RESULT:      -8.2      6.368     10.532
REMARK  6 active torsions:
REMARK  status: ('A' for Active; 'I' for Inactive)
REMARK    1  A    between atoms: C_4  and  C_5 
REMARK    2  A    between atoms: C_5  and  N_6 
REMARK       I    between atoms: N_6  and  C_7 
REMARK    3  A    between atoms: C_7  and  C_8 
REMARK    4  A    between atoms: C_12  and  C_13 
REMARK    5  A    between atoms: C_13  and  O_14 
REMARK    6  A    between atoms: O_14  and  C_15 
ROOT
HETATM    1  C   UNL     1      40.963 -15.993   1.860  1.00  0.00     0.146 A 
HETATM    2  N   UNL     1      39.696 -15.545   1.970  1.00  0.00    -0.169 NA
HETATM    3  N   UNL     1      39.422 -15.029   0.759  1.00  0.00    -0.279 N 
HETATM    4  H   UNL     1      38.491 -14.658   0.591  1.00  0.00     0.189 HD
HETATM    5  C   UNL     1      40.476 -15.068  -0.109  1.00  0.00     0.054 A 
HETATM    6  C   UNL     1      41.484 -15.716   0.569  1.00  0.00     0.068 A 
ENDROOT
BRANCH   1   7
HETATM    7  C   UNL     1      41.673 -16.665   2.958  1.00  0.00     0.272 C 
HETATM    8  N   UNL     1      42.883 -17.205   2.605  1.00  0.00    -0.350 N 
HETATM    9  H   UNL     1      43.209 -17.090   1.648  1.00  0.00     0.163 HD
HETATM   10  O   UNL     1      41.214 -16.739   4.096  1.00  0.00    -0.266 OA
BRANCH   8  11
HETATM   11  C   UNL     1      43.734 -17.863   3.562  1.00  0.00     0.182 C 
BRANCH  11  12
HETATM   12  C   UNL     1      43.942 -19.332   3.266  1.00  0.00     0.052 A 
HETATM   13  N   UNL     1      44.463 -20.123   4.243  1.00  0.00    -0.257 NA
HETATM   14  C   UNL     1      44.645 -21.437   3.968  1.00  0.00     0.031 A 
HETATM   15  C   UNL     1      45.234 -22.291   5.051  1.00  0.00     0.070 C 
HETATM   16  C   UNL     1      44.314 -21.999   2.739  1.00  0.00     0.027 A 
HETATM   17  C   UNL     1      43.775 -21.183   1.752  1.00  0.00     0.004 A 
HETATM   18  C   UNL     1      43.584 -19.832   2.016  1.00  0.00     0.029 A 
ENDBRANCH  11  12
ENDBRANCH   8  11
ENDBRANCH   1   7
BRANCH   5  19
HETATM   19  C   UNL     1      40.410 -14.495  -1.476  1.00  0.00     0.234 C 
BRANCH  19  20
HETATM   20  O   UNL     1      41.753 -14.229  -1.867  1.00  0.00    -0.345 OA
BRANCH  20  21
HETATM   21  C   UNL     1      42.055 -12.928  -2.169  1.00  0.00     0.072 A 
HETATM   22  C   UNL     1      42.746 -12.240  -1.165  1.00  0.00     0.076 A 
HETATM   23  C   UNL     1      43.081 -10.922  -1.390  1.00  0.00     0.107 A 
HETATM   24  C   UNL     1      42.763 -10.287  -2.567  1.00  0.00     0.105 A 
HETATM   25  O   UNL     1      43.740 -10.107  -0.524  1.00  0.00    -0.323 OA
HETATM   26  O   UNL     1      43.180  -8.993  -2.588  1.00  0.00    -0.323 OA
HETATM   27  C   UNL     1      42.095 -10.936  -3.580  1.00  0.00     0.042 A 
HETATM   28  C   UNL     1      43.791  -8.883  -1.286  1.00  0.00     0.352 A 
HETATM   29  C   UNL     1      41.740 -12.276  -3.378  1.00  0.00     0.039 A 
ENDBRANCH  20  21
ENDBRANCH  19  20
ENDBRANCH   5  19
TORSDOF 6
ENDMDL
MODEL 7
REMARK VINA RESULT:      -8.1      1.966      3.024
REMARK  6 active torsions:
REMARK  status: ('A' for Active; 'I' for Inactive)
REMARK    1  A    between atoms: C_4  and  C_5 
REMARK    2  A    between atoms: C_5  and  N_6 
REMARK       I    between atoms: N_6  and  C_7 
REMARK    3  A    between atoms: C_7  and  C_8 
REMARK    4  A    between atoms: C_12  and  C_13 
REMARK    5  A    between atoms: C_13  and  O_14 
REMARK    6  A    between atoms: O_14  and  C_15 
ROOT
HETATM    1  C   UNL     1      44.173 -12.529   7.873  1.00  0.00     0.146 A 
HETATM    2  N   UNL     1      42.994 -12.213   7.301  1.00  0.00    -0.169 NA
HETATM    3  N   UNL     1      42.783 -13.201   6.413  1.00  0.00    -0.279 N 
HETATM    4  H   UNL     1      41.919 -13.193   5.879  1.00  0.00     0.189 HD
HETATM    5  C   UNL     1      43.802 -14.107   6.343  1.00  0.00     0.054 A 
HETATM    6  C   UNL     1      44.708 -13.714   7.302  1.00  0.00     0.068 A 
ENDROOT
BRANCH   1   7
HETATM    7  C   UNL     1      44.789 -11.723   8.938  1.00  0.00     0.272 C 
HETATM    8  N   UNL     1      44.039 -11.624  10.080  1.00  0.00    -0.350 N 
HETATM    9  H   UNL     1      43.149 -12.114  10.125  1.00  0.00     0.163 HD
HETATM   10  O   UNL     1      45.884 -11.179   8.807  1.00  0.00    -0.266 OA
BRANCH   8  11
HETATM   11  C   UNL     1      44.504 -10.908  11.240  1.00  0.00     0.182 C 
BRANCH  11  12
HETATM   12  C   UNL     1      43.410 -10.623  12.245  1.00  0.00     0.052 A 
HETATM   13  N   UNL     1      42.232 -11.295  12.130  1.00  0.00    -0.257 NA
HETATM   14  C   UNL     1      41.259 -11.031  13.035  1.00  0.00     0.031 A 
HETATM   15  C   UNL     1      39.962 -11.770  12.885  1.00  0.00     0.070 C 
HETATM   16  C   UNL     1      41.423 -10.115  14.068  1.00  0.00     0.027 A 
HETATM   17  C   UNL     1      42.633  -9.441  14.180  1.00  0.00     0.004 A 
HETATM   18  C   UNL     1      43.642  -9.697  13.259  1.00  0.00     0.029 A 
ENDBRANCH  11  12
ENDBRANCH   8  11
ENDBRANCH   1   7
BRANCH   5  19
HETATM   19  C   UNL     1      43.802 -15.239   5.385  1.00  0.00     0.234 C 
BRANCH  19  20
HETATM   20  O   UNL     1      43.800 -16.430   6.166  1.00  0.00    -0.345 OA
BRANCH  20  21
HETATM   21  C   UNL     1      44.022 -17.602   5.494  1.00  0.00     0.072 A 
HETATM   22  C   UNL     1      43.457 -17.657   4.214  1.00  0.00     0.076 A 
HETATM   23  C   UNL     1      43.630 -18.807   3.475  1.00  0.00     0.107 A 
HETATM   24  C   UNL     1      44.344 -19.878   3.959  1.00  0.00     0.105 A 
HETATM   25  O   UNL     1      43.144 -19.034   2.225  1.00  0.00    -0.323 OA
HETATM   26  O   UNL     1      44.395 -20.911   3.078  1.00  0.00    -0.323 OA
HETATM   27  C   UNL     1      44.923 -19.853   5.208  1.00  0.00     0.042 A 
HETATM   28  C   UNL     1      43.625 -20.372   1.984  1.00  0.00     0.352 A 
HETATM   29  C   UNL     1      44.761 -18.698   5.983  1.00  0.00     0.039 A 
ENDBRANCH  20  21
ENDBRANCH  19  20
ENDBRANCH   5  19
TORSDOF 6
ENDMDL
MODEL 8
REMARK VINA RESULT:      -7.9      5.311      8.589
REMARK  6 active torsions:
REMARK  status: ('A' for Active; 'I' for Inactive)
REMARK    1  A    between atoms: C_4  and  C_5 
REMARK    2  A    between atoms: C_5  and  N_6 
REMARK       I    between atoms: N_6  and  C_7 
REMARK    3  A    between atoms: C_7  and  C_8 
REMARK    4  A    between atoms: C_12  and  C_13 
REMARK    5  A    between atoms: C_13  and  O_14 
REMARK    6  A    between atoms: O_14  and  C_15 
ROOT
HETATM    1  C   UNL     1      41.215 -14.393   2.171  1.00  0.00     0.146 A 
HETATM    2  N   UNL     1      40.580 -14.054   3.312  1.00  0.00    -0.169 NA
HETATM    3  N   UNL     1      41.064 -14.913   4.226  1.00  0.00    -0.279 N 
HETATM    4  H   UNL     1      40.751 -14.821   5.188  1.00  0.00     0.189 HD
HETATM    5  C   UNL     1      41.938 -15.830   3.715  1.00  0.00     0.054 A 
HETATM    6  C   UNL     1      42.079 -15.499   2.386  1.00  0.00     0.068 A 
ENDROOT
BRANCH   1   7
HETATM    7  C   UNL     1      41.006 -13.688   0.898  1.00  0.00     0.272 C 
HETATM    8  N   UNL     1      41.672 -14.233  -0.169  1.00  0.00    -0.350 N 
HETATM    9  H   UNL     1      42.229 -15.071  -0.021  1.00  0.00     0.163 HD
HETATM   10  O   UNL     1      40.295 -12.689   0.803  1.00  0.00    -0.266 OA
BRANCH   8  11
HETATM   11  C   UNL     1      41.549 -13.699  -1.501  1.00  0.00     0.182 C 
BRANCH  11  12
HETATM   12  C   UNL     1      40.515 -14.417  -2.340  1.00  0.00     0.052 A 
HETATM   13  N   UNL     1      39.383 -13.746  -2.688  1.00  0.00    -0.257 NA
HETATM   14  C   UNL     1      38.464 -14.399  -3.440  1.00  0.00     0.031 A 
HETATM   15  C   UNL     1      37.216 -13.650  -3.802  1.00  0.00     0.070 C 
HETATM   16  C   UNL     1      38.639 -15.710  -3.867  1.00  0.00     0.027 A 
HETATM   17  C   UNL     1      39.802 -16.382  -3.512  1.00  0.00     0.004 A 
HETATM   18  C   UNL     1      40.755 -15.729  -2.740  1.00  0.00     0.029 A 
ENDBRANCH  11  12
ENDBRANCH   8  11
ENDBRANCH   1   7
BRANCH   5  19
HETATM   19  C   UNL     1      42.540 -16.908   4.536  1.00  0.00     0.234 C 
BRANCH  19  20
HETATM   20  O   UNL     1      43.764 -17.264   3.902  1.00  0.00    -0.345 OA
BRANCH  20  21
HETATM   21  C   UNL     1      43.877 -18.561   3.476  1.00  0.00     0.072 A 
HETATM   22  C   UNL     1      44.389 -19.446   4.432  1.00  0.00     0.076 A 
HETATM   23  C   UNL     1      44.540 -20.770   4.080  1.00  0.00     0.107 A 
HETATM   24  C   UNL     1      44.193 -21.229   2.831  1.00  0.00     0.105 A 
HETATM   25  O   UNL     1      45.029 -21.758   4.876  1.00  0.00    -0.323 OA
HETATM   26  O   UNL     1      44.421 -22.561   2.685  1.00  0.00    -0.323 OA
HETATM   27  C   UNL     1      43.675 -20.389   1.871  1.00  0.00     0.042 A 
HETATM   28  C   UNL     1      44.959 -22.888   3.983  1.00  0.00     0.352 A 
HETATM   29  C   UNL     1      43.514 -19.038   2.201  1.00  0.00     0.039 A 
ENDBRANCH  20  21
ENDBRANCH  19  20
ENDBRANCH   5  19
TORSDOF 6
ENDMDL
MODEL 9
REMARK VINA RESULT:      -7.8      5.373      8.603
REMARK  6 active torsions:
REMARK  status: ('A' for Active; 'I' for Inactive)
REMARK    1  A    between atoms: C_4  and  C_5 
REMARK    2  A    between atoms: C_5  and  N_6 
REMARK       I    between atoms: N_6  and  C_7 
REMARK    3  A    between atoms: C_7  and  C_8 
REMARK    4  A    between atoms: C_12  and  C_13 
REMARK    5  A    between atoms: C_13  and  O_14 
REMARK    6  A    between atoms: O_14  and  C_15 
ROOT
HETATM    1  C   UNL     1      42.140 -13.564   2.310  1.00  0.00     0.146 A 
HETATM    2  N   UNL     1      43.318 -13.412   2.950  1.00  0.00    -0.169 NA
HETATM    3  N   UNL     1      43.175 -14.130   4.079  1.00  0.00    -0.279 N 
HETATM    4  H   UNL     1      43.966 -14.194   4.713  1.00  0.00     0.189 HD
HETATM    5  C   UNL     1      41.937 -14.688   4.225  1.00  0.00     0.054 A 
HETATM    6  C   UNL     1      41.251 -14.362   3.077  1.00  0.00     0.068 A 
ENDROOT
BRANCH   1   7
HETATM    7  C   UNL     1      41.857 -12.960   1.000  1.00  0.00     0.272 C 
HETATM    8  N   UNL     1      40.667 -13.348   0.442  1.00  0.00    -0.350 N 
HETATM    9  H   UNL     1      40.069 -13.988   0.960  1.00  0.00     0.163 HD
HETATM   10  O   UNL     1      42.629 -12.175   0.451  1.00  0.00    -0.266 OA
BRANCH   8  11
HETATM   11  C   UNL     1      40.207 -12.825  -0.819  1.00  0.00     0.182 C 
BRANCH  11  12
HETATM   12  C   UNL     1      39.928 -13.900  -1.846  1.00  0.00     0.052 A 
HETATM   13  N   UNL     1      38.725 -13.892  -2.482  1.00  0.00    -0.257 NA
HETATM   14  C   UNL     1      38.485 -14.859  -3.400  1.00  0.00     0.031 A 
HETATM   15  C   UNL     1      37.149 -14.845  -4.081  1.00  0.00     0.070 C 
HETATM   16  C   UNL     1      39.417 -15.842  -3.716  1.00  0.00     0.027 A 
HETATM   17  C   UNL     1      40.646 -15.834  -3.066  1.00  0.00     0.004 A 
HETATM   18  C   UNL     1      40.908 -14.851  -2.119  1.00  0.00     0.029 A 
ENDBRANCH  11  12
ENDBRANCH   8  11
ENDBRANCH   1   7
BRANCH   5  19
HETATM   19  C   UNL     1      41.546 -15.465   5.426  1.00  0.00     0.234 C 
BRANCH  19  20
HETATM   20  O   UNL     1      41.199 -16.768   4.968  1.00  0.00    -0.345 OA
BRANCH  20  21
HETATM   21  C   UNL     1      42.216 -17.683   4.903  1.00  0.00     0.072 A 
HETATM   22  C   UNL     1      42.454 -18.202   3.624  1.00  0.00     0.076 A 
HETATM   23  C   UNL     1      43.458 -19.134   3.476  1.00  0.00     0.107 A 
HETATM   24  C   UNL     1      44.223 -19.548   4.540  1.00  0.00     0.105 A 
HETATM   25  O   UNL     1      43.815 -19.744   2.314  1.00  0.00    -0.323 OA
HETATM   26  O   UNL     1      45.155 -20.471   4.183  1.00  0.00    -0.323 OA
HETATM   27  C   UNL     1      44.025 -19.050   5.808  1.00  0.00     0.042 A 
HETATM   28  C   UNL     1      44.885 -20.597   2.772  1.00  0.00     0.352 A 
HETATM   29  C   UNL     1      43.009 -18.103   5.989  1.00  0.00     0.039 A 
ENDBRANCH  20  21
ENDBRANCH  19  20
ENDBRANCH   5  19
TORSDOF 6
ENDMDL
MODEL 10
REMARK VINA RESULT:      -7.7      5.698      9.332
REMARK  6 active torsions:
REMARK  status: ('A' for Active; 'I' for Inactive)
REMARK    1  A    between atoms: C_4  and  C_5 
REMARK    2  A    between atoms: C_5  and  N_6 
REMARK       I    between atoms: N_6  and  C_7 
REMARK    3  A    between atoms: C_7  and  C_8 
REMARK    4  A    between atoms: C_12  and  C_13 
REMARK    5  A    between atoms: C_13  and  O_14 
REMARK    6  A    between atoms: O_14  and  C_15 
ROOT
HETATM    1  C   UNL     1      41.974 -13.627   3.193  1.00  0.00     0.146 A 
HETATM    2  N   UNL     1      41.727 -12.380   3.643  1.00  0.00    -0.169 NA
HETATM    3  N   UNL     1      41.683 -11.629   2.528  1.00  0.00    -0.279 N 
HETATM    4  H   UNL     1      41.468 -10.641   2.620  1.00  0.00     0.189 HD
HETATM    5  C   UNL     1      41.951 -12.325   1.383  1.00  0.00     0.054 A 
HETATM    6  C   UNL     1      42.115 -13.633   1.780  1.00  0.00     0.068 A 
ENDROOT
BRANCH   1   7
HETATM    7  C   UNL     1      42.081 -14.793   4.082  1.00  0.00     0.272 C 
HETATM    8  N   UNL     1      41.531 -15.944   3.578  1.00  0.00    -0.350 N 
HETATM    9  H   UNL     1      41.120 -15.922   2.648  1.00  0.00     0.163 HD
HETATM   10  O   UNL     1      42.616 -14.736   5.188  1.00  0.00    -0.266 OA
BRANCH   8  11
HETATM   11  C   UNL     1      41.582 -17.192   4.294  1.00  0.00     0.182 C 
BRANCH  11  12
HETATM   12  C   UNL     1      42.548 -18.188   3.691  1.00  0.00     0.052 A 
HETATM   13  N   UNL     1      43.319 -18.934   4.529  1.00  0.00    -0.257 NA
HETATM   14  C   UNL     1      44.180 -19.822   3.978  1.00  0.00     0.031 A 
HETATM   15  C   UNL     1      45.032 -20.625   4.916  1.00  0.00     0.070 C 
HETATM   16  C   UNL     1      44.298 -20.000   2.604  1.00  0.00     0.027 A 
HETATM   17  C   UNL     1      43.501 -19.239   1.758  1.00  0.00     0.004 A 
HETATM   18  C   UNL     1      42.613 -18.321   2.306  1.00  0.00     0.029 A 
ENDBRANCH  11  12
ENDBRANCH   8  11
ENDBRANCH   1   7
BRANCH   5  19
HETATM   19  C   UNL     1      42.017 -11.678   0.050  1.00  0.00     0.234 C 
BRANCH  19  20
HETATM   20  O   UNL     1      40.735 -11.848  -0.545  1.00  0.00    -0.345 OA
BRANCH  20  21
HETATM   21  C   UNL     1      40.631 -12.823  -1.502  1.00  0.00     0.072 A 
HETATM   22  C   UNL     1      39.328 -13.284  -1.726  1.00  0.00     0.076 A 
HETATM   23  C   UNL     1      39.140 -14.271  -2.669  1.00  0.00     0.107 A 
HETATM   24  C   UNL     1      40.189 -14.794  -3.388  1.00  0.00     0.105 A 
HETATM   25  O   UNL     1      37.950 -14.838  -3.004  1.00  0.00    -0.323 OA
HETATM   26  O   UNL     1      39.792 -15.754  -4.263  1.00  0.00    -0.323 OA
HETATM   27  C   UNL     1      41.480 -14.355  -3.202  1.00  0.00     0.042 A 
HETATM   28  C   UNL     1      38.372 -15.784  -4.009  1.00  0.00     0.352 A 
HETATM   29  C   UNL     1      41.701 -13.354  -2.247  1.00  0.00     0.039 A 
ENDBRANCH  20  21
ENDBRANCH  19  20
ENDBRANCH   5  19
TORSDOF 6
ENDMDL
