MODEL 1
REMARK VINA RESULT:      -8.5      0.000      0.000
REMARK  2 active torsions:
REMARK  status: ('A' for Active; 'I' for Inactive)
REMARK    1  A    between atoms: O_2  and  C_3 
REMARK    2  A    between atoms: C_4  and  N_5 
REMARK       I    between atoms: N_5  and  C_6 
REMARK       I    between atoms: C_6  and  N_7 
ROOT
HETATM    1  N   UNL     1      42.088 -14.612  -0.594  1.00  0.00    -0.306 N 
HETATM    2  C   UNL     1      41.448 -14.750   0.614  1.00  0.00     0.323 C 
HETATM    3  N   UNL     1      41.840 -15.886   1.319  1.00  0.00    -0.328 N 
HETATM    4  C   UNL     1      41.370 -15.970   2.705  1.00  0.00     0.185 C 
HETATM    5  C   UNL     1      42.145 -17.029   3.406  1.00  0.00     0.035 A 
HETATM    6  C   UNL     1      42.964 -17.979   2.831  1.00  0.00    -0.020 A 
HETATM    7  C   UNL     1      43.198 -18.006   1.361  1.00  0.00     0.061 C 
HETATM    8  C   UNL     1      42.120 -17.174   0.640  1.00  0.00     0.132 C 
HETATM    9  N   UNL     1      42.150 -17.228   4.759  1.00  0.00    -0.357 N 
HETATM   10  H   UNL     1      41.647 -16.676   5.439  1.00  0.00     0.166 HD
HETATM   11  C   UNL     1      42.956 -18.305   5.069  1.00  0.00     0.043 A 
HETATM   12  C   UNL     1      43.477 -18.799   3.869  1.00  0.00    -0.001 A 
HETATM   13  C   UNL     1      43.261 -18.873   6.312  1.00  0.00     0.030 A 
HETATM   14  C   UNL     1      44.118 -19.977   6.328  1.00  0.00     0.002 A 
HETATM   15  C   UNL     1      44.650 -20.491   5.148  1.00  0.00     0.001 A 
HETATM   16  C   UNL     1      44.340 -19.910   3.913  1.00  0.00     0.014 A 
HETATM   17  O   UNL     1      40.655 -13.935   1.078  1.00  0.00    -0.247 OA
HETATM   18  H   UNL     1      42.995 -15.056  -0.656  1.00  0.00     0.171 HD
ENDROOT
BRANCH   1  19
HETATM   19  C   UNL     1      41.837 -13.650  -1.591  1.00  0.00     0.071 A 
HETATM   20  C   UNL     1      40.877 -13.970  -2.567  1.00  0.00     0.095 A 
HETATM   21  C   UNL     1      40.518 -13.053  -3.555  1.00  0.00     0.041 A 
HETATM   22  C   UNL     1      41.145 -11.809  -3.590  1.00  0.00     0.026 A 
HETATM   23  C   UNL     1      42.115 -11.493  -2.636  1.00  0.00     0.036 A 
HETATM   24  C   UNL     1      42.462 -12.403  -1.636  1.00  0.00     0.056 A 
HETATM   25 CL   UNL     1      42.874  -9.948  -2.685  1.00  0.00    -0.084 Cl
BRANCH  20  26
HETATM   26  O   UNL     1      40.266 -15.201  -2.515  1.00  0.00    -0.354 OA
HETATM   27  C   UNL     1      39.508 -15.420  -3.708  1.00  0.00     0.210 C 
ENDBRANCH  20  26
ENDBRANCH   1  19
TORSDOF 2
ENDMDL
MODEL 2
REMARK VINA RESULT:      -8.1      4.416      8.597
REMARK  2 active torsions:
REMARK  status: ('A' for Active; 'I' for Inactive)
REMARK    1  A    between atoms: O_2  and  C_3 
REMARK    2  A    between atoms: C_4  and  N_5 
REMARK       I    between atoms: N_5  and  C_6 
REMARK       I    between atoms: C_6  and  N_7 
ROOT
HETATM    1  N   UNL     1      42.807 -17.498   3.594  1.00  0.00    -0.306 N 
HETATM    2  C   UNL     1      43.088 -16.431   2.777  1.00  0.00     0.323 C 
HETATM    3  N   UNL     1      42.147 -15.406   2.867  1.00  0.00    -0.328 N 
HETATM    4  C   UNL     1      42.507 -14.151   2.200  1.00  0.00     0.185 C 
HETATM    5  C   UNL     1      41.590 -13.080   2.678  1.00  0.00     0.035 A 
HETATM    6  C   UNL     1      40.423 -13.243   3.395  1.00  0.00    -0.020 A 
HETATM    7  C   UNL     1      39.965 -14.593   3.824  1.00  0.00     0.061 C 
HETATM    8  C   UNL     1      40.698 -15.681   3.015  1.00  0.00     0.132 C 
HETATM    9  N   UNL     1      41.770 -11.742   2.460  1.00  0.00    -0.357 N 
HETATM   10  H   UNL     1      42.546 -11.323   1.968  1.00  0.00     0.166 HD
HETATM   11  C   UNL     1      40.726 -11.034   3.018  1.00  0.00     0.043 A 
HETATM   12  C   UNL     1      39.860 -11.959   3.610  1.00  0.00    -0.001 A 
HETATM   13  C   UNL     1      40.486  -9.655   3.046  1.00  0.00     0.030 A 
HETATM   14  C   UNL     1      39.328  -9.210   3.691  1.00  0.00     0.002 A 
HETATM   15  C   UNL     1      38.447 -10.109   4.287  1.00  0.00     0.001 A 
HETATM   16  C   UNL     1      38.702 -11.485   4.256  1.00  0.00     0.014 A 
HETATM   17  O   UNL     1      44.093 -16.334   2.078  1.00  0.00    -0.247 OA
HETATM   18  H   UNL     1      42.251 -17.284   4.411  1.00  0.00     0.171 HD
ENDROOT
BRANCH   1  19
HETATM   19  C   UNL     1      43.483 -18.733   3.652  1.00  0.00     0.071 A 
HETATM   20  C   UNL     1      44.087 -19.078   4.873  1.00  0.00     0.095 A 
HETATM   21  C   UNL     1      44.724 -20.308   5.041  1.00  0.00     0.041 A 
HETATM   22  C   UNL     1      44.785 -21.196   3.969  1.00  0.00     0.026 A 
HETATM   23  C   UNL     1      44.204 -20.850   2.747  1.00  0.00     0.036 A 
HETATM   24  C   UNL     1      43.552 -19.626   2.582  1.00  0.00     0.056 A 
HETATM   25 CL   UNL     1      44.278 -21.961   1.433  1.00  0.00    -0.084 Cl
BRANCH  20  26
HETATM   26  O   UNL     1      44.015 -18.192   5.921  1.00  0.00    -0.354 OA
HETATM   27  C   UNL     1      45.307 -18.027   6.512  1.00  0.00     0.210 C 
ENDBRANCH  20  26
ENDBRANCH   1  19
TORSDOF 2
ENDMDL
MODEL 3
REMARK VINA RESULT:      -8.1      1.896      2.431
REMARK  2 active torsions:
REMARK  status: ('A' for Active; 'I' for Inactive)
REMARK    1  A    between atoms: O_2  and  C_3 
REMARK    2  A    between atoms: C_4  and  N_5 
REMARK       I    between atoms: N_5  and  C_6 
REMARK       I    between atoms: C_6  and  N_7 
ROOT
HETATM    1  N   UNL     1      40.530 -14.975  -0.435  1.00  0.00    -0.306 N 
HETATM    2  C   UNL     1      40.121 -15.042   0.875  1.00  0.00     0.323 C 
HETATM    3  N   UNL     1      40.740 -16.064   1.593  1.00  0.00    -0.328 N 
HETATM    4  C   UNL     1      40.523 -16.046   3.043  1.00  0.00     0.185 C 
HETATM    5  C   UNL     1      41.509 -16.959   3.682  1.00  0.00     0.035 A 
HETATM    6  C   UNL     1      42.309 -17.890   3.053  1.00  0.00    -0.020 A 
HETATM    7  C   UNL     1      42.291 -18.046   1.573  1.00  0.00     0.061 C 
HETATM    8  C   UNL     1      41.029 -17.386   0.987  1.00  0.00     0.132 C 
HETATM    9  N   UNL     1      41.764 -17.018   5.024  1.00  0.00    -0.357 N 
HETATM   10  H   UNL     1      41.330 -16.445   5.734  1.00  0.00     0.166 HD
HETATM   11  C   UNL     1      42.714 -17.986   5.276  1.00  0.00     0.043 A 
HETATM   12  C   UNL     1      43.071 -18.554   4.049  1.00  0.00    -0.001 A 
HETATM   13  C   UNL     1      43.282 -18.397   6.488  1.00  0.00     0.030 A 
HETATM   14  C   UNL     1      44.236 -19.418   6.445  1.00  0.00     0.002 A 
HETATM   15  C   UNL     1      44.609 -20.002   5.238  1.00  0.00     0.001 A 
HETATM   16  C   UNL     1      44.036 -19.579   4.033  1.00  0.00     0.014 A 
HETATM   17  O   UNL     1      39.341 -14.254   1.402  1.00  0.00    -0.247 OA
HETATM   18  H   UNL     1      41.453 -15.345  -0.620  1.00  0.00     0.171 HD
ENDROOT
BRANCH   1  19
HETATM   19  C   UNL     1      40.017 -14.144  -1.450  1.00  0.00     0.071 A 
HETATM   20  C   UNL     1      40.784 -13.023  -1.813  1.00  0.00     0.095 A 
HETATM   21  C   UNL     1      40.385 -12.181  -2.851  1.00  0.00     0.041 A 
HETATM   22  C   UNL     1      39.190 -12.441  -3.519  1.00  0.00     0.026 A 
HETATM   23  C   UNL     1      38.413 -13.541  -3.149  1.00  0.00     0.036 A 
HETATM   24  C   UNL     1      38.820 -14.395  -2.122  1.00  0.00     0.056 A 
HETATM   25 CL   UNL     1      36.943 -13.856  -3.989  1.00  0.00    -0.084 Cl
BRANCH  20  26
HETATM   26  O   UNL     1      41.962 -12.783  -1.145  1.00  0.00    -0.354 OA
HETATM   27  C   UNL     1      42.882 -12.106  -2.006  1.00  0.00     0.210 C 
ENDBRANCH  20  26
ENDBRANCH   1  19
TORSDOF 2
ENDMDL
MODEL 4
REMARK VINA RESULT:      -8.0      3.442      4.536
REMARK  2 active torsions:
REMARK  status: ('A' for Active; 'I' for Inactive)
REMARK    1  A    between atoms: O_2  and  C_3 
REMARK    2  A    between atoms: C_4  and  N_5 
REMARK       I    between atoms: N_5  and  C_6 
REMARK       I    between atoms: C_6  and  N_7 
ROOT
HETATM    1  N   UNL     1      40.881 -14.760   2.695  1.00  0.00    -0.306 N 
HETATM    2  C   UNL     1      41.421 -15.607   1.760  1.00  0.00     0.323 C 
HETATM    3  N   UNL     1      42.244 -16.587   2.313  1.00  0.00    -0.328 N 
HETATM    4  C   UNL     1      42.664 -17.656   1.402  1.00  0.00     0.185 C 
HETATM    5  C   UNL     1      43.223 -18.774   2.209  1.00  0.00     0.035 A 
HETATM    6  C   UNL     1      43.568 -18.745   3.544  1.00  0.00    -0.020 A 
HETATM    7  C   UNL     1      43.358 -17.523   4.368  1.00  0.00     0.061 C 
HETATM    8  C   UNL     1      43.147 -16.301   3.454  1.00  0.00     0.132 C 
HETATM    9  N   UNL     1      43.495 -20.025   1.728  1.00  0.00    -0.357 N 
HETATM   10  H   UNL     1      43.335 -20.343   0.782  1.00  0.00     0.166 HD
HETATM   11  C   UNL     1      44.023 -20.807   2.735  1.00  0.00     0.043 A 
HETATM   12  C   UNL     1      44.084 -20.022   3.890  1.00  0.00    -0.001 A 
HETATM   13  C   UNL     1      44.447 -22.142   2.710  1.00  0.00     0.030 A 
HETATM   14  C   UNL     1      44.949 -22.685   3.896  1.00  0.00     0.002 A 
HETATM   15  C   UNL     1      45.023 -21.925   5.060  1.00  0.00     0.001 A 
HETATM   16  C   UNL     1      44.592 -20.593   5.072  1.00  0.00     0.014 A 
HETATM   17  O   UNL     1      41.169 -15.570   0.558  1.00  0.00    -0.247 OA
HETATM   18  H   UNL     1      40.789 -15.145   3.626  1.00  0.00     0.171 HD
ENDROOT
BRANCH   1  19
HETATM   19  C   UNL     1      40.112 -13.603   2.460  1.00  0.00     0.071 A 
HETATM   20  C   UNL     1      40.610 -12.387   2.958  1.00  0.00     0.095 A 
HETATM   21  C   UNL     1      39.948 -11.183   2.717  1.00  0.00     0.041 A 
HETATM   22  C   UNL     1      38.756 -11.193   1.995  1.00  0.00     0.026 A 
HETATM   23  C   UNL     1      38.245 -12.401   1.515  1.00  0.00     0.036 A 
HETATM   24  C   UNL     1      38.916 -13.605   1.740  1.00  0.00     0.056 A 
HETATM   25 CL   UNL     1      36.777 -12.398   0.616  1.00  0.00    -0.084 Cl
BRANCH  20  26
HETATM   26  O   UNL     1      41.789 -12.395   3.666  1.00  0.00    -0.354 OA
HETATM   27  C   UNL     1      41.621 -11.695   4.902  1.00  0.00     0.210 C 
ENDBRANCH  20  26
ENDBRANCH   1  19
TORSDOF 2
ENDMDL
MODEL 5
REMARK VINA RESULT:      -8.0      3.762      8.998
REMARK  2 active torsions:
REMARK  status: ('A' for Active; 'I' for Inactive)
REMARK    1  A    between atoms: O_2  and  C_3 
REMARK    2  A    between atoms: C_4  and  N_5 
REMARK       I    between atoms: N_5  and  C_6 
REMARK       I    between atoms: C_6  and  N_7 
ROOT
HETATM    1  N   UNL     1      42.465 -17.022   4.203  1.00  0.00    -0.306 N 
HETATM    2  C   UNL     1      42.734 -17.260   2.877  1.00  0.00     0.323 C 
HETATM    3  N   UNL     1      41.836 -16.638   2.013  1.00  0.00    -0.328 N 
HETATM    4  C   UNL     1      42.197 -16.661   0.592  1.00  0.00     0.185 C 
HETATM    5  C   UNL     1      41.347 -15.677  -0.131  1.00  0.00     0.035 A 
HETATM    6  C   UNL     1      40.219 -15.044   0.347  1.00  0.00    -0.020 A 
HETATM    7  C   UNL     1      39.741 -15.268   1.739  1.00  0.00     0.061 C 
HETATM    8  C   UNL     1      40.389 -16.539   2.321  1.00  0.00     0.132 C 
HETATM    9  N   UNL     1      41.559 -15.255  -1.414  1.00  0.00    -0.357 N 
HETATM   10  H   UNL     1      42.319 -15.544  -2.013  1.00  0.00     0.166 HD
HETATM   11  C   UNL     1      40.573 -14.361  -1.779  1.00  0.00     0.043 A 
HETATM   12  C   UNL     1      39.713 -14.214  -0.687  1.00  0.00    -0.001 A 
HETATM   13  C   UNL     1      40.382 -13.674  -2.985  1.00  0.00     0.030 A 
HETATM   14  C   UNL     1      39.280 -12.820  -3.077  1.00  0.00     0.002 A 
HETATM   15  C   UNL     1      38.405 -12.657  -2.005  1.00  0.00     0.001 A 
HETATM   16  C   UNL     1      38.611 -13.346  -0.805  1.00  0.00     0.014 A 
HETATM   17  O   UNL     1      43.699 -17.898   2.466  1.00  0.00    -0.247 OA
HETATM   18  H   UNL     1      41.966 -16.164   4.396  1.00  0.00     0.171 HD
ENDROOT
BRANCH   1  19
HETATM   19  C   UNL     1      43.102 -17.594   5.322  1.00  0.00     0.071 A 
HETATM   20  C   UNL     1      43.796 -16.726   6.181  1.00  0.00     0.095 A 
HETATM   21  C   UNL     1      44.402 -17.195   7.347  1.00  0.00     0.041 A 
HETATM   22  C   UNL     1      44.342 -18.555   7.646  1.00  0.00     0.026 A 
HETATM   23  C   UNL     1      43.671 -19.427   6.786  1.00  0.00     0.036 A 
HETATM   24  C   UNL     1      43.049 -18.955   5.627  1.00  0.00     0.056 A 
HETATM   25 CL   UNL     1      43.596 -21.103   7.173  1.00  0.00    -0.084 Cl
BRANCH  20  26
HETATM   26  O   UNL     1      43.843 -15.387   5.872  1.00  0.00    -0.354 OA
HETATM   27  C   UNL     1      44.337 -14.644   6.990  1.00  0.00     0.210 C 
ENDBRANCH  20  26
ENDBRANCH   1  19
TORSDOF 2
ENDMDL
MODEL 6
REMARK VINA RESULT:      -8.0      2.802      3.457
REMARK  2 active torsions:
REMARK  status: ('A' for Active; 'I' for Inactive)
REMARK    1  A    between atoms: O_2  and  C_3 
REMARK    2  A    between atoms: C_4  and  N_5 
REMARK       I    between atoms: N_5  and  C_6 
REMARK       I    between atoms: C_6  and  N_7 
ROOT
HETATM    1  N   UNL     1      41.520 -14.268   2.060  1.00  0.00    -0.306 N 
HETATM    2  C   UNL     1      42.011 -15.223   1.203  1.00  0.00     0.323 C 
HETATM    3  N   UNL     1      42.707 -16.240   1.854  1.00  0.00    -0.328 N 
HETATM    4  C   UNL     1      43.056 -17.402   1.030  1.00  0.00     0.185 C 
HETATM    5  C   UNL     1      43.465 -18.515   1.928  1.00  0.00     0.035 A 
HETATM    6  C   UNL     1      43.755 -18.434   3.274  1.00  0.00    -0.020 A 
HETATM    7  C   UNL     1      43.634 -17.147   4.011  1.00  0.00     0.061 C 
HETATM    8  C   UNL     1      43.586 -15.971   3.017  1.00  0.00     0.132 C 
HETATM    9  N   UNL     1      43.630 -19.815   1.536  1.00  0.00    -0.357 N 
HETATM   10  H   UNL     1      43.479 -20.175   0.605  1.00  0.00     0.166 HD
HETATM   11  C   UNL     1      44.034 -20.578   2.612  1.00  0.00     0.043 A 
HETATM   12  C   UNL     1      44.125 -19.730   3.719  1.00  0.00    -0.001 A 
HETATM   13  C   UNL     1      44.322 -21.947   2.688  1.00  0.00     0.030 A 
HETATM   14  C   UNL     1      44.718 -22.459   3.927  1.00  0.00     0.002 A 
HETATM   15  C   UNL     1      44.819 -21.636   5.046  1.00  0.00     0.001 A 
HETATM   16  C   UNL     1      44.524 -20.271   4.956  1.00  0.00     0.014 A 
HETATM   17  O   UNL     1      41.814 -15.239  -0.009  1.00  0.00    -0.247 OA
HETATM   18  H   UNL     1      41.350 -14.582   3.006  1.00  0.00     0.171 HD
ENDROOT
BRANCH   1  19
HETATM   19  C   UNL     1      40.881 -13.060   1.719  1.00  0.00     0.071 A 
HETATM   20  C   UNL     1      39.477 -13.043   1.751  1.00  0.00     0.095 A 
HETATM   21  C   UNL     1      38.762 -11.873   1.491  1.00  0.00     0.041 A 
HETATM   22  C   UNL     1      39.456 -10.709   1.164  1.00  0.00     0.026 A 
HETATM   23  C   UNL     1      40.851 -10.725   1.110  1.00  0.00     0.036 A 
HETATM   24  C   UNL     1      41.568 -11.891   1.388  1.00  0.00     0.056 A 
HETATM   25 CL   UNL     1      41.697  -9.277   0.715  1.00  0.00    -0.084 Cl
BRANCH  20  26
HETATM   26  O   UNL     1      38.808 -14.199   2.078  1.00  0.00    -0.354 OA
HETATM   27  C   UNL     1      37.791 -14.466   1.109  1.00  0.00     0.210 C 
ENDBRANCH  20  26
ENDBRANCH   1  19
TORSDOF 2
ENDMDL
MODEL 7
REMARK VINA RESULT:      -8.0      2.556      3.219
REMARK  2 active torsions:
REMARK  status: ('A' for Active; 'I' for Inactive)
REMARK    1  A    between atoms: O_2  and  C_3 
REMARK    2  A    between atoms: C_4  and  N_5 
REMARK       I    between atoms: N_5  and  C_6 
REMARK       I    between atoms: C_6  and  N_7 
ROOT
HETATM    1  N   UNL     1      42.016 -13.348   1.257  1.00  0.00    -0.306 N 
HETATM    2  C   UNL     1      42.417 -13.860   2.467  1.00  0.00     0.323 C 
HETATM    3  N   UNL     1      42.459 -15.253   2.488  1.00  0.00    -0.328 N 
HETATM    4  C   UNL     1      43.094 -15.854   3.665  1.00  0.00     0.185 C 
HETATM    5  C   UNL     1      43.371 -17.287   3.375  1.00  0.00     0.035 A 
HETATM    6  C   UNL     1      42.883 -18.032   2.322  1.00  0.00    -0.020 A 
HETATM    7  C   UNL     1      42.011 -17.418   1.283  1.00  0.00     0.061 C 
HETATM    8  C   UNL     1      41.443 -16.080   1.795  1.00  0.00     0.132 C 
HETATM    9  N   UNL     1      44.162 -18.100   4.139  1.00  0.00    -0.357 N 
HETATM   10  H   UNL     1      44.662 -17.825   4.973  1.00  0.00     0.166 HD
HETATM   11  C   UNL     1      44.185 -19.369   3.598  1.00  0.00     0.043 A 
HETATM   12  C   UNL     1      43.382 -19.354   2.454  1.00  0.00    -0.001 A 
HETATM   13  C   UNL     1      44.853 -20.521   4.033  1.00  0.00     0.030 A 
HETATM   14  C   UNL     1      44.692 -21.688   3.280  1.00  0.00     0.002 A 
HETATM   15  C   UNL     1      43.896 -21.701   2.137  1.00  0.00     0.001 A 
HETATM   16  C   UNL     1      43.238 -20.541   1.712  1.00  0.00     0.014 A 
HETATM   17  O   UNL     1      42.771 -13.182   3.427  1.00  0.00    -0.247 OA
HETATM   18  H   UNL     1      42.191 -13.940   0.457  1.00  0.00     0.171 HD
ENDROOT
BRANCH   1  19
HETATM   19  C   UNL     1      41.755 -11.999   0.943  1.00  0.00     0.071 A 
HETATM   20  C   UNL     1      42.322 -11.493  -0.239  1.00  0.00     0.095 A 
HETATM   21  C   UNL     1      42.065 -10.188  -0.662  1.00  0.00     0.041 A 
HETATM   22  C   UNL     1      41.256  -9.366   0.120  1.00  0.00     0.026 A 
HETATM   23  C   UNL     1      40.706  -9.857   1.306  1.00  0.00     0.036 A 
HETATM   24  C   UNL     1      40.948 -11.168   1.721  1.00  0.00     0.056 A 
HETATM   25 CL   UNL     1      39.699  -8.833   2.256  1.00  0.00    -0.084 Cl
BRANCH  20  26
HETATM   26  O   UNL     1      43.116 -12.319  -0.999  1.00  0.00    -0.354 OA
HETATM   27  C   UNL     1      42.665 -12.316  -2.356  1.00  0.00     0.210 C 
ENDBRANCH  20  26
ENDBRANCH   1  19
TORSDOF 2
ENDMDL
MODEL 8
REMARK VINA RESULT:      -8.0      2.415      2.813
REMARK  2 active torsions:
REMARK  status: ('A' for Active; 'I' for Inactive)
REMARK    1  A    between atoms: O_2  and  C_3 
REMARK    2  A    between atoms: C_4  and  N_5 
REMARK       I    between atoms: N_5  and  C_6 
REMARK       I    between atoms: C_6  and  N_7 
ROOT
HETATM    1  N   UNL     1      41.847 -13.680   0.712  1.00  0.00    -0.306 N 
HETATM    2  C   UNL     1      42.258 -14.069   1.963  1.00  0.00     0.323 C 
HETATM    3  N   UNL     1      42.344 -15.453   2.109  1.00  0.00    -0.328 N 
HETATM    4  C   UNL     1      42.993 -15.926   3.336  1.00  0.00     0.185 C 
HETATM    5  C   UNL     1      43.316 -17.369   3.176  1.00  0.00     0.035 A 
HETATM    6  C   UNL     1      42.856 -18.220   2.193  1.00  0.00    -0.020 A 
HETATM    7  C   UNL     1      41.970 -17.729   1.102  1.00  0.00     0.061 C 
HETATM    8  C   UNL     1      41.357 -16.370   1.491  1.00  0.00     0.132 C 
HETATM    9  N   UNL     1      44.128 -18.085   4.010  1.00  0.00    -0.357 N 
HETATM   10  H   UNL     1      44.615 -17.721   4.817  1.00  0.00     0.166 HD
HETATM   11  C   UNL     1      44.193 -19.397   3.586  1.00  0.00     0.043 A 
HETATM   12  C   UNL     1      43.395 -19.509   2.443  1.00  0.00    -0.001 A 
HETATM   13  C   UNL     1      44.895 -20.483   4.123  1.00  0.00     0.030 A 
HETATM   14  C   UNL     1      44.774 -21.717   3.477  1.00  0.00     0.002 A 
HETATM   15  C   UNL     1      43.984 -21.857   2.338  1.00  0.00     0.001 A 
HETATM   16  C   UNL     1      43.292 -20.762   1.810  1.00  0.00     0.014 A 
HETATM   17  O   UNL     1      42.586 -13.297   2.860  1.00  0.00    -0.247 OA
HETATM   18  H   UNL     1      42.044 -14.336  -0.032  1.00  0.00     0.171 HD
ENDROOT
BRANCH   1  19
HETATM   19  C   UNL     1      41.545 -12.374   0.278  1.00  0.00     0.071 A 
HETATM   20  C   UNL     1      40.205 -11.960   0.367  1.00  0.00     0.095 A 
HETATM   21  C   UNL     1      39.826 -10.663   0.020  1.00  0.00     0.041 A 
HETATM   22  C   UNL     1      40.790  -9.773  -0.451  1.00  0.00     0.026 A 
HETATM   23  C   UNL     1      42.120 -10.185  -0.561  1.00  0.00     0.036 A 
HETATM   24  C   UNL     1      42.504 -11.478  -0.197  1.00  0.00     0.056 A 
HETATM   25 CL   UNL     1      43.303  -9.073  -1.134  1.00  0.00    -0.084 Cl
BRANCH  20  26
HETATM   26  O   UNL     1      39.267 -12.849   0.836  1.00  0.00    -0.354 OA
HETATM   27  C   UNL     1      38.645 -12.327   2.013  1.00  0.00     0.210 C 
ENDBRANCH  20  26
ENDBRANCH   1  19
TORSDOF 2
ENDMDL
MODEL 9
REMARK VINA RESULT:      -8.0      3.346      3.839
REMARK  2 active torsions:
REMARK  status: ('A' for Active; 'I' for Inactive)
REMARK    1  A    between atoms: O_2  and  C_3 
REMARK    2  A    between atoms: C_4  and  N_5 
REMARK       I    between atoms: N_5  and  C_6 
REMARK       I    between atoms: C_6  and  N_7 
ROOT
HETATM    1  N   UNL     1      39.578 -13.889   2.221  1.00  0.00    -0.306 N 
HETATM    2  C   UNL     1      39.861 -14.492   3.422  1.00  0.00     0.323 C 
HETATM    3  N   UNL     1      40.534 -15.705   3.284  1.00  0.00    -0.328 N 
HETATM    4  C   UNL     1      41.066 -16.282   4.522  1.00  0.00     0.185 C 
HETATM    5  C   UNL     1      42.033 -17.356   4.168  1.00  0.00     0.035 A 
HETATM    6  C   UNL     1      42.216 -17.935   2.929  1.00  0.00    -0.020 A 
HETATM    7  C   UNL     1      41.442 -17.476   1.743  1.00  0.00     0.061 C 
HETATM    8  C   UNL     1      40.216 -16.660   2.196  1.00  0.00     0.132 C 
HETATM    9  N   UNL     1      42.897 -17.952   5.045  1.00  0.00    -0.357 N 
HETATM   10  H   UNL     1      42.993 -17.725   6.025  1.00  0.00     0.166 HD
HETATM   11  C   UNL     1      43.632 -18.919   4.391  1.00  0.00     0.043 A 
HETATM   12  C   UNL     1      43.218 -18.931   3.056  1.00  0.00    -0.001 A 
HETATM   13  C   UNL     1      44.627 -19.776   4.878  1.00  0.00     0.030 A 
HETATM   14  C   UNL     1      45.210 -20.672   3.977  1.00  0.00     0.002 A 
HETATM   15  C   UNL     1      44.815 -20.707   2.642  1.00  0.00     0.001 A 
HETATM   16  C   UNL     1      43.823 -19.841   2.168  1.00  0.00     0.014 A 
HETATM   17  O   UNL     1      39.618 -14.002   4.521  1.00  0.00    -0.247 OA
HETATM   18  H   UNL     1      40.195 -14.133   1.458  1.00  0.00     0.171 HD
ENDROOT
BRANCH   1  19
HETATM   19  C   UNL     1      38.811 -12.727   2.006  1.00  0.00     0.071 A 
HETATM   20  C   UNL     1      37.769 -12.808   1.067  1.00  0.00     0.095 A 
HETATM   21  C   UNL     1      36.918 -11.727   0.836  1.00  0.00     0.041 A 
HETATM   22  C   UNL     1      37.126 -10.536   1.530  1.00  0.00     0.026 A 
HETATM   23  C   UNL     1      38.172 -10.443   2.450  1.00  0.00     0.036 A 
HETATM   24  C   UNL     1      39.014 -11.530   2.695  1.00  0.00     0.056 A 
HETATM   25 CL   UNL     1      38.412  -8.969   3.309  1.00  0.00    -0.084 Cl
BRANCH  20  26
HETATM   26  O   UNL     1      37.576 -13.991   0.393  1.00  0.00    -0.354 OA
HETATM   27  C   UNL     1      37.975 -13.846  -0.973  1.00  0.00     0.210 C 
ENDBRANCH  20  26
ENDBRANCH   1  19
TORSDOF 2
ENDMDL
MODEL 10
REMARK VINA RESULT:      -7.9      3.026      3.599
REMARK  2 active torsions:
REMARK  status: ('A' for Active; 'I' for Inactive)
REMARK    1  A    between atoms: O_2  and  C_3 
REMARK    2  A    between atoms: C_4  and  N_5 
REMARK       I    between atoms: N_5  and  C_6 
REMARK       I    between atoms: C_6  and  N_7 
ROOT
HETATM    1  N   UNL     1      39.756 -14.000   1.197  1.00  0.00    -0.306 N 
HETATM    2  C   UNL     1      40.086 -14.348   2.484  1.00  0.00     0.323 C 
HETATM    3  N   UNL     1      40.681 -15.605   2.579  1.00  0.00    -0.328 N 
HETATM    4  C   UNL     1      41.262 -15.937   3.884  1.00  0.00     0.185 C 
HETATM    5  C   UNL     1      42.143 -17.125   3.722  1.00  0.00     0.035 A 
HETATM    6  C   UNL     1      42.211 -17.968   2.632  1.00  0.00    -0.020 A 
HETATM    7  C   UNL     1      41.386 -17.723   1.417  1.00  0.00     0.061 C 
HETATM    8  C   UNL     1      40.239 -16.748   1.745  1.00  0.00     0.132 C 
HETATM    9  N   UNL     1      43.030 -17.575   4.660  1.00  0.00    -0.357 N 
HETATM   10  H   UNL     1      43.204 -17.150   5.560  1.00  0.00     0.166 HD
HETATM   11  C   UNL     1      43.666 -18.708   4.196  1.00  0.00     0.043 A 
HETATM   12  C   UNL     1      43.164 -18.979   2.920  1.00  0.00    -0.001 A 
HETATM   13  C   UNL     1      44.643 -19.505   4.805  1.00  0.00     0.030 A 
HETATM   14  C   UNL     1      45.115 -20.611   4.092  1.00  0.00     0.002 A 
HETATM   15  C   UNL     1      44.631 -20.906   2.820  1.00  0.00     0.001 A 
HETATM   16  C   UNL     1      43.657 -20.097   2.222  1.00  0.00     0.014 A 
HETATM   17  O   UNL     1      39.943 -13.617   3.460  1.00  0.00    -0.247 OA
HETATM   18  H   UNL     1      40.307 -14.444   0.474  1.00  0.00     0.171 HD
ENDROOT
BRANCH   1  19
HETATM   19  C   UNL     1      39.041 -12.862   0.774  1.00  0.00     0.071 A 
HETATM   20  C   UNL     1      39.779 -11.819   0.189  1.00  0.00     0.095 A 
HETATM   21  C   UNL     1      39.147 -10.682  -0.316  1.00  0.00     0.041 A 
HETATM   22  C   UNL     1      37.762 -10.569  -0.211  1.00  0.00     0.026 A 
HETATM   23  C   UNL     1      37.025 -11.594   0.387  1.00  0.00     0.036 A 
HETATM   24  C   UNL     1      37.655 -12.740   0.878  1.00  0.00     0.056 A 
HETATM   25 CL   UNL     1      35.313 -11.446   0.501  1.00  0.00    -0.084 Cl
BRANCH  20  26
HETATM   26  O   UNL     1      41.144 -11.948   0.091  1.00  0.00    -0.354 OA
HETATM   27  C   UNL     1      41.775 -10.694   0.365  1.00  0.00     0.210 C 
ENDBRANCH  20  26
ENDBRANCH   1  19
TORSDOF 2
ENDMDL
