MODEL 1
REMARK VINA RESULT:      -8.6      0.000      0.000
REMARK  6 active torsions:
REMARK  status: ('A' for Active; 'I' for Inactive)
REMARK    1  A    between atoms: C_2  and  C_3 
REMARK    2  A    between atoms: C_3  and  C_4 
REMARK    3  A    between atoms: C_3  and  C_10 
REMARK    4  A    between atoms: C_10  and  C_11 
REMARK       I    between atoms: C_11  and  N_12 
REMARK    5  A    between atoms: N_12  and  C_13 
REMARK    6  A    between atoms: C_20  and  C_21 
REMARK       I    between atoms: C_21  and  N_22 
ROOT
HETATM    1  C   UNL     1      41.062 -16.567   1.026  1.00  0.00     0.035 A 
HETATM    2  C   UNL     1      41.337 -16.026  -0.237  1.00  0.00     0.046 A 
HETATM    3  C   UNL     1      40.776 -14.783  -0.602  1.00  0.00     0.030 A 
HETATM    4  C   UNL     1      39.953 -14.128   0.305  1.00  0.00     0.063 A 
HETATM    5  N   UNL     1      39.557 -12.983  -0.326  1.00  0.00    -0.277 N 
HETATM    6  H   UNL     1      38.941 -12.264   0.036  1.00  0.00     0.189 HD
HETATM    7  N   UNL     1      40.063 -12.822  -1.559  1.00  0.00    -0.168 NA
HETATM    8  C   UNL     1      40.824 -13.926  -1.743  1.00  0.00     0.156 A 
HETATM    9  C   UNL     1      39.662 -14.634   1.574  1.00  0.00     0.034 A 
HETATM   10  C   UNL     1      40.242 -15.862   1.917  1.00  0.00     0.032 A 
ENDROOT
BRANCH   1  11
HETATM   11  N   UNL     1      41.588 -17.797   1.481  1.00  0.00    -0.327 N 
HETATM   12  C   UNL     1      42.921 -18.134   1.606  1.00  0.00     0.222 C 
HETATM   13  O   UNL     1      43.871 -17.413   1.307  1.00  0.00    -0.273 OA
HETATM   14  H   UNL     1      40.916 -18.545   1.568  1.00  0.00     0.169 HD
BRANCH  12  15
HETATM   15  C   UNL     1      43.208 -19.491   2.243  1.00  0.00     0.112 C 
BRANCH  15  16
HETATM   16  C   UNL     1      44.331 -19.609   3.291  1.00  0.00     0.027 C 
BRANCH  16  17
HETATM   17  C   UNL     1      44.696 -21.086   3.572  1.00  0.00     0.005 C 
HETATM   18  C   UNL     1      44.344 -22.036   2.436  1.00  0.00     0.006 C 
ENDBRANCH  16  17
BRANCH  16  19
HETATM   19  C   UNL     1      44.042 -18.923   4.619  1.00  0.00    -0.054 A 
HETATM   20  C   UNL     1      42.763 -18.457   4.959  1.00  0.00     0.007 A 
HETATM   21  C   UNL     1      42.541 -17.816   6.179  1.00  0.00     0.001 A 
HETATM   22  C   UNL     1      43.588 -17.646   7.082  1.00  0.00     0.000 A 
HETATM   23  C   UNL     1      44.859 -18.121   6.768  1.00  0.00     0.001 A 
HETATM   24  C   UNL     1      45.084 -18.758   5.547  1.00  0.00     0.007 A 
ENDBRANCH  16  19
ENDBRANCH  15  16
ENDBRANCH  12  15
ENDBRANCH   1  11
BRANCH   8  25
HETATM   25  C   UNL     1      41.578 -14.133  -2.988  1.00  0.00     0.270 C 
HETATM   26  N   UNL     1      42.776 -13.474  -3.029  1.00  0.00    -0.365 N 
HETATM   27  H   UNL     1      43.054 -12.921  -2.227  1.00  0.00     0.159 HD
HETATM   28  H   UNL     1      43.369 -13.568  -3.839  1.00  0.00     0.159 HD
HETATM   29  O   UNL     1      41.207 -14.832  -3.925  1.00  0.00    -0.266 OA
ENDBRANCH   8  25
TORSDOF 6
ENDMDL
MODEL 2
REMARK VINA RESULT:      -8.3      4.011      5.829
REMARK  6 active torsions:
REMARK  status: ('A' for Active; 'I' for Inactive)
REMARK    1  A    between atoms: C_2  and  C_3 
REMARK    2  A    between atoms: C_3  and  C_4 
REMARK    3  A    between atoms: C_3  and  C_10 
REMARK    4  A    between atoms: C_10  and  C_11 
REMARK       I    between atoms: C_11  and  N_12 
REMARK    5  A    between atoms: N_12  and  C_13 
REMARK    6  A    between atoms: C_20  and  C_21 
REMARK       I    between atoms: C_21  and  N_22 
ROOT
HETATM    1  C   UNL     1      40.451 -14.907   4.131  1.00  0.00     0.035 A 
HETATM    2  C   UNL     1      40.358 -14.063   5.246  1.00  0.00     0.046 A 
HETATM    3  C   UNL     1      39.712 -12.814   5.124  1.00  0.00     0.030 A 
HETATM    4  C   UNL     1      39.188 -12.448   3.890  1.00  0.00     0.063 A 
HETATM    5  N   UNL     1      38.651 -11.206   4.078  1.00  0.00    -0.277 N 
HETATM    6  H   UNL     1      38.189 -10.626   3.387  1.00  0.00     0.189 HD
HETATM    7  N   UNL     1      38.759 -10.735   5.331  1.00  0.00    -0.168 NA
HETATM    8  C   UNL     1      39.410 -11.721   5.992  1.00  0.00     0.156 A 
HETATM    9  C   UNL     1      39.258 -13.266   2.760  1.00  0.00     0.034 A 
HETATM   10  C   UNL     1      39.892 -14.505   2.911  1.00  0.00     0.032 A 
ENDROOT
BRANCH   1  11
HETATM   11  N   UNL     1      41.069 -16.177   4.162  1.00  0.00    -0.327 N 
HETATM   12  C   UNL     1      42.420 -16.441   4.266  1.00  0.00     0.222 C 
HETATM   13  O   UNL     1      43.310 -15.595   4.317  1.00  0.00    -0.273 OA
HETATM   14  H   UNL     1      40.467 -16.953   3.925  1.00  0.00     0.169 HD
BRANCH  12  15
HETATM   15  C   UNL     1      42.803 -17.912   4.403  1.00  0.00     0.112 C 
BRANCH  15  16
HETATM   16  C   UNL     1      43.761 -18.540   3.372  1.00  0.00     0.027 C 
BRANCH  16  17
HETATM   17  C   UNL     1      43.200 -18.434   1.934  1.00  0.00     0.005 C 
HETATM   18  C   UNL     1      43.944 -17.439   1.052  1.00  0.00     0.006 C 
ENDBRANCH  16  17
BRANCH  16  19
HETATM   19  C   UNL     1      44.128 -19.992   3.641  1.00  0.00    -0.054 A 
HETATM   20  C   UNL     1      44.492 -20.450   4.916  1.00  0.00     0.007 A 
HETATM   21  C   UNL     1      44.839 -21.787   5.119  1.00  0.00     0.001 A 
HETATM   22  C   UNL     1      44.812 -22.686   4.056  1.00  0.00     0.000 A 
HETATM   23  C   UNL     1      44.432 -22.253   2.789  1.00  0.00     0.001 A 
HETATM   24  C   UNL     1      44.090 -20.916   2.583  1.00  0.00     0.007 A 
ENDBRANCH  16  19
ENDBRANCH  15  16
ENDBRANCH  12  15
ENDBRANCH   1  11
BRANCH   8  25
HETATM   25  C   UNL     1      39.718 -11.603   7.424  1.00  0.00     0.270 C 
HETATM   26  N   UNL     1      41.051 -11.451   7.696  1.00  0.00    -0.365 N 
HETATM   27  H   UNL     1      41.704 -11.420   6.922  1.00  0.00     0.159 HD
HETATM   28  H   UNL     1      41.355 -11.348   8.651  1.00  0.00     0.159 HD
HETATM   29  O   UNL     1      38.887 -11.624   8.325  1.00  0.00    -0.266 OA
ENDBRANCH   8  25
TORSDOF 6
ENDMDL
MODEL 3
REMARK VINA RESULT:      -8.3      1.056      1.174
REMARK  6 active torsions:
REMARK  status: ('A' for Active; 'I' for Inactive)
REMARK    1  A    between atoms: C_2  and  C_3 
REMARK    2  A    between atoms: C_3  and  C_4 
REMARK    3  A    between atoms: C_3  and  C_10 
REMARK    4  A    between atoms: C_10  and  C_11 
REMARK       I    between atoms: C_11  and  N_12 
REMARK    5  A    between atoms: N_12  and  C_13 
REMARK    6  A    between atoms: C_20  and  C_21 
REMARK       I    between atoms: C_21  and  N_22 
ROOT
HETATM    1  C   UNL     1      41.785 -15.890   0.890  1.00  0.00     0.035 A 
HETATM    2  C   UNL     1      41.368 -15.593  -0.415  1.00  0.00     0.046 A 
HETATM    3  C   UNL     1      41.146 -14.249  -0.788  1.00  0.00     0.030 A 
HETATM    4  C   UNL     1      41.340 -13.251   0.158  1.00  0.00     0.063 A 
HETATM    5  N   UNL     1      41.037 -12.082  -0.482  1.00  0.00    -0.277 N 
HETATM    6  H   UNL     1      41.059 -11.146  -0.093  1.00  0.00     0.189 HD
HETATM    7  N   UNL     1      40.680 -12.226  -1.768  1.00  0.00    -0.168 NA
HETATM    8  C   UNL     1      40.748 -13.562  -1.975  1.00  0.00     0.156 A 
HETATM    9  C   UNL     1      41.760 -13.509   1.464  1.00  0.00     0.034 A 
HETATM   10  C   UNL     1      41.986 -14.849   1.805  1.00  0.00     0.032 A 
ENDROOT
BRANCH   1  11
HETATM   11  N   UNL     1      42.042 -17.201   1.348  1.00  0.00    -0.327 N 
HETATM   12  C   UNL     1      43.268 -17.831   1.417  1.00  0.00     0.222 C 
HETATM   13  O   UNL     1      44.340 -17.348   1.054  1.00  0.00    -0.273 OA
HETATM   14  H   UNL     1      41.223 -17.775   1.486  1.00  0.00     0.169 HD
BRANCH  12  15
HETATM   15  C   UNL     1      43.274 -19.209   2.072  1.00  0.00     0.112 C 
BRANCH  15  16
HETATM   16  C   UNL     1      44.339 -19.532   3.137  1.00  0.00     0.027 C 
BRANCH  16  17
HETATM   17  C   UNL     1      44.547 -21.058   3.292  1.00  0.00     0.005 C 
HETATM   18  C   UNL     1      44.201 -21.858   2.043  1.00  0.00     0.006 C 
ENDBRANCH  16  17
BRANCH  16  19
HETATM   19  C   UNL     1      44.068 -18.941   4.513  1.00  0.00    -0.054 A 
HETATM   20  C   UNL     1      42.804 -18.462   4.887  1.00  0.00     0.007 A 
HETATM   21  C   UNL     1      42.599 -17.910   6.153  1.00  0.00     0.001 A 
HETATM   22  C   UNL     1      43.648 -17.843   7.066  1.00  0.00     0.000 A 
HETATM   23  C   UNL     1      44.904 -18.333   6.718  1.00  0.00     0.001 A 
HETATM   24  C   UNL     1      45.112 -18.881   5.452  1.00  0.00     0.007 A 
ENDBRANCH  16  19
ENDBRANCH  15  16
ENDBRANCH  12  15
ENDBRANCH   1  11
BRANCH   8  25
HETATM   25  C   UNL     1      40.441 -14.147  -3.288  1.00  0.00     0.270 C 
HETATM   26  N   UNL     1      39.238 -13.751  -3.807  1.00  0.00    -0.365 N 
HETATM   27  H   UNL     1      38.671 -13.100  -3.276  1.00  0.00     0.159 HD
HETATM   28  H   UNL     1      38.949 -14.090  -4.711  1.00  0.00     0.159 HD
HETATM   29  O   UNL     1      41.172 -14.916  -3.902  1.00  0.00    -0.266 OA
ENDBRANCH   8  25
TORSDOF 6
ENDMDL
MODEL 4
REMARK VINA RESULT:      -8.3      1.399      2.941
REMARK  6 active torsions:
REMARK  status: ('A' for Active; 'I' for Inactive)
REMARK    1  A    between atoms: C_2  and  C_3 
REMARK    2  A    between atoms: C_3  and  C_4 
REMARK    3  A    between atoms: C_3  and  C_10 
REMARK    4  A    between atoms: C_10  and  C_11 
REMARK       I    between atoms: C_11  and  N_12 
REMARK    5  A    between atoms: N_12  and  C_13 
REMARK    6  A    between atoms: C_20  and  C_21 
REMARK       I    between atoms: C_21  and  N_22 
ROOT
HETATM    1  C   UNL     1      40.673 -15.283   1.428  1.00  0.00     0.035 A 
HETATM    2  C   UNL     1      41.035 -15.116   0.084  1.00  0.00     0.046 A 
HETATM    3  C   UNL     1      40.157 -14.450  -0.798  1.00  0.00     0.030 A 
HETATM    4  C   UNL     1      38.944 -13.981  -0.309  1.00  0.00     0.063 A 
HETATM    5  N   UNL     1      38.319 -13.408  -1.380  1.00  0.00    -0.277 N 
HETATM    6  H   UNL     1      37.405 -12.969  -1.394  1.00  0.00     0.189 HD
HETATM    7  N   UNL     1      39.023 -13.444  -2.522  1.00  0.00    -0.168 NA
HETATM    8  C   UNL     1      40.166 -14.081  -2.177  1.00  0.00     0.156 A 
HETATM    9  C   UNL     1      38.553 -14.125   1.024  1.00  0.00     0.034 A 
HETATM   10  C   UNL     1      39.448 -14.777   1.882  1.00  0.00     0.032 A 
ENDROOT
BRANCH   1  11
HETATM   11  N   UNL     1      41.492 -15.925   2.384  1.00  0.00    -0.327 N 
HETATM   12  C   UNL     1      42.631 -15.418   2.975  1.00  0.00     0.222 C 
HETATM   13  O   UNL     1      43.133 -14.322   2.734  1.00  0.00    -0.273 OA
HETATM   14  H   UNL     1      41.304 -16.908   2.518  1.00  0.00     0.169 HD
BRANCH  12  15
HETATM   15  C   UNL     1      43.253 -16.280   4.070  1.00  0.00     0.112 C 
BRANCH  15  16
HETATM   16  C   UNL     1      42.626 -17.648   4.400  1.00  0.00     0.027 C 
BRANCH  16  17
HETATM   17  C   UNL     1      42.559 -17.890   5.927  1.00  0.00     0.005 C 
HETATM   18  C   UNL     1      43.124 -16.748   6.760  1.00  0.00     0.006 C 
ENDBRANCH  16  17
BRANCH  16  19
HETATM   19  C   UNL     1      43.314 -18.841   3.752  1.00  0.00    -0.054 A 
HETATM   20  C   UNL     1      43.020 -19.256   2.445  1.00  0.00     0.007 A 
HETATM   21  C   UNL     1      43.660 -20.367   1.892  1.00  0.00     0.001 A 
HETATM   22  C   UNL     1      44.612 -21.067   2.629  1.00  0.00     0.000 A 
HETATM   23  C   UNL     1      44.930 -20.655   3.921  1.00  0.00     0.001 A 
HETATM   24  C   UNL     1      44.288 -19.548   4.478  1.00  0.00     0.007 A 
ENDBRANCH  16  19
ENDBRANCH  15  16
ENDBRANCH  12  15
ENDBRANCH   1  11
BRANCH   8  25
HETATM   25  C   UNL     1      41.234 -14.315  -3.160  1.00  0.00     0.270 C 
HETATM   26  N   UNL     1      41.852 -13.174  -3.594  1.00  0.00    -0.365 N 
HETATM   27  H   UNL     1      41.551 -12.284  -3.214  1.00  0.00     0.159 HD
HETATM   28  H   UNL     1      42.606 -13.238  -4.258  1.00  0.00     0.159 HD
HETATM   29  O   UNL     1      41.577 -15.417  -3.574  1.00  0.00    -0.266 OA
ENDBRANCH   8  25
TORSDOF 6
ENDMDL
MODEL 5
REMARK VINA RESULT:      -8.2      2.255      4.133
REMARK  6 active torsions:
REMARK  status: ('A' for Active; 'I' for Inactive)
REMARK    1  A    between atoms: C_2  and  C_3 
REMARK    2  A    between atoms: C_3  and  C_4 
REMARK    3  A    between atoms: C_3  and  C_10 
REMARK    4  A    between atoms: C_10  and  C_11 
REMARK       I    between atoms: C_11  and  N_12 
REMARK    5  A    between atoms: N_12  and  C_13 
REMARK    6  A    between atoms: C_20  and  C_21 
REMARK       I    between atoms: C_21  and  N_22 
ROOT
HETATM    1  C   UNL     1      41.063 -15.281  -1.071  1.00  0.00     0.035 A 
HETATM    2  C   UNL     1      40.097 -14.360  -0.642  1.00  0.00     0.046 A 
HETATM    3  C   UNL     1      39.148 -13.864  -1.562  1.00  0.00     0.030 A 
HETATM    4  C   UNL     1      39.202 -14.299  -2.880  1.00  0.00     0.063 A 
HETATM    5  N   UNL     1      38.188 -13.644  -3.519  1.00  0.00    -0.277 N 
HETATM    6  H   UNL     1      37.935 -13.712  -4.499  1.00  0.00     0.189 HD
HETATM    7  N   UNL     1      37.462 -12.834  -2.732  1.00  0.00    -0.168 NA
HETATM    8  C   UNL     1      38.041 -12.963  -1.515  1.00  0.00     0.156 A 
HETATM    9  C   UNL     1      40.146 -15.219  -3.341  1.00  0.00     0.034 A 
HETATM   10  C   UNL     1      41.068 -15.706  -2.405  1.00  0.00     0.032 A 
ENDROOT
BRANCH   1  11
HETATM   11  N   UNL     1      42.043 -15.838  -0.220  1.00  0.00    -0.327 N 
HETATM   12  C   UNL     1      41.883 -16.904   0.644  1.00  0.00     0.222 C 
HETATM   13  O   UNL     1      40.836 -17.522   0.829  1.00  0.00    -0.273 OA
HETATM   14  H   UNL     1      42.889 -15.296  -0.127  1.00  0.00     0.169 HD
BRANCH  12  15
HETATM   15  C   UNL     1      43.146 -17.379   1.356  1.00  0.00     0.112 C 
BRANCH  15  16
HETATM   16  C   UNL     1      43.024 -18.052   2.737  1.00  0.00     0.027 C 
BRANCH  16  17
HETATM   17  C   UNL     1      43.708 -17.213   3.842  1.00  0.00     0.005 C 
HETATM   18  C   UNL     1      42.749 -16.687   4.902  1.00  0.00     0.006 C 
ENDBRANCH  16  17
BRANCH  16  19
HETATM   19  C   UNL     1      43.564 -19.473   2.807  1.00  0.00    -0.054 A 
HETATM   20  C   UNL     1      44.339 -19.928   3.884  1.00  0.00     0.007 A 
HETATM   21  C   UNL     1      44.832 -21.234   3.903  1.00  0.00     0.001 A 
HETATM   22  C   UNL     1      44.545 -22.107   2.856  1.00  0.00     0.000 A 
HETATM   23  C   UNL     1      43.759 -21.677   1.790  1.00  0.00     0.001 A 
HETATM   24  C   UNL     1      43.270 -20.371   1.766  1.00  0.00     0.007 A 
ENDBRANCH  16  19
ENDBRANCH  15  16
ENDBRANCH  12  15
ENDBRANCH   1  11
BRANCH   8  25
HETATM   25  C   UNL     1      37.526 -12.236  -0.346  1.00  0.00     0.270 C 
HETATM   26  N   UNL     1      36.955 -13.040   0.602  1.00  0.00    -0.365 N 
HETATM   27  H   UNL     1      36.939 -14.040   0.445  1.00  0.00     0.159 HD
HETATM   28  H   UNL     1      36.587 -12.630   1.446  1.00  0.00     0.159 HD
HETATM   29  O   UNL     1      37.590 -11.021  -0.191  1.00  0.00    -0.266 OA
ENDBRANCH   8  25
TORSDOF 6
ENDMDL
MODEL 6
REMARK VINA RESULT:      -8.1      2.892      4.296
REMARK  6 active torsions:
REMARK  status: ('A' for Active; 'I' for Inactive)
REMARK    1  A    between atoms: C_2  and  C_3 
REMARK    2  A    between atoms: C_3  and  C_4 
REMARK    3  A    between atoms: C_3  and  C_10 
REMARK    4  A    between atoms: C_10  and  C_11 
REMARK       I    between atoms: C_11  and  N_12 
REMARK    5  A    between atoms: N_12  and  C_13 
REMARK    6  A    between atoms: C_20  and  C_21 
REMARK       I    between atoms: C_21  and  N_22 
ROOT
HETATM    1  C   UNL     1      40.565 -15.994   2.639  1.00  0.00     0.035 A 
HETATM    2  C   UNL     1      40.643 -15.159   3.762  1.00  0.00     0.046 A 
HETATM    3  C   UNL     1      39.999 -13.903   3.744  1.00  0.00     0.030 A 
HETATM    4  C   UNL     1      39.306 -13.522   2.602  1.00  0.00     0.063 A 
HETATM    5  N   UNL     1      38.814 -12.277   2.875  1.00  0.00    -0.277 N 
HETATM    6  H   UNL     1      38.263 -11.687   2.262  1.00  0.00     0.189 HD
HETATM    7  N   UNL     1      39.108 -11.818   4.102  1.00  0.00    -0.168 NA
HETATM    8  C   UNL     1      39.837 -12.815   4.654  1.00  0.00     0.156 A 
HETATM    9  C   UNL     1      39.203 -14.331   1.468  1.00  0.00     0.034 A 
HETATM   10  C   UNL     1      39.840 -15.577   1.516  1.00  0.00     0.032 A 
ENDROOT
BRANCH   1  11
HETATM   11  N   UNL     1      41.168 -17.270   2.572  1.00  0.00    -0.327 N 
HETATM   12  C   UNL     1      42.321 -17.609   1.893  1.00  0.00     0.222 C 
HETATM   13  O   UNL     1      42.996 -16.844   1.206  1.00  0.00    -0.273 OA
HETATM   14  H   UNL     1      40.605 -18.030   2.926  1.00  0.00     0.169 HD
BRANCH  12  15
HETATM   15  C   UNL     1      42.817 -19.038   2.092  1.00  0.00     0.112 C 
BRANCH  15  16
HETATM   16  C   UNL     1      44.115 -19.281   2.886  1.00  0.00     0.027 C 
BRANCH  16  17
HETATM   17  C   UNL     1      44.656 -20.714   2.669  1.00  0.00     0.005 C 
HETATM   18  C   UNL     1      43.791 -21.570   1.753  1.00  0.00     0.006 C 
ENDBRANCH  16  17
BRANCH  16  19
HETATM   19  C   UNL     1      44.005 -19.029   4.383  1.00  0.00    -0.054 A 
HETATM   20  C   UNL     1      43.856 -17.741   4.917  1.00  0.00     0.007 A 
HETATM   21  C   UNL     1      43.777 -17.549   6.298  1.00  0.00     0.001 A 
HETATM   22  C   UNL     1      43.830 -18.640   7.161  1.00  0.00     0.000 A 
HETATM   23  C   UNL     1      43.957 -19.928   6.646  1.00  0.00     0.001 A 
HETATM   24  C   UNL     1      44.041 -20.122   5.267  1.00  0.00     0.007 A 
ENDBRANCH  16  19
ENDBRANCH  15  16
ENDBRANCH  12  15
ENDBRANCH   1  11
BRANCH   8  25
HETATM   25  C   UNL     1      40.351 -12.712   6.028  1.00  0.00     0.270 C 
HETATM   26  N   UNL     1      39.509 -13.223   6.978  1.00  0.00    -0.365 N 
HETATM   27  H   UNL     1      38.632 -13.631   6.680  1.00  0.00     0.159 HD
HETATM   28  H   UNL     1      39.785 -13.209   7.947  1.00  0.00     0.159 HD
HETATM   29  O   UNL     1      41.434 -12.227   6.337  1.00  0.00    -0.266 OA
ENDBRANCH   8  25
TORSDOF 6
ENDMDL
MODEL 7
REMARK VINA RESULT:      -8.1      2.974      8.792
REMARK  6 active torsions:
REMARK  status: ('A' for Active; 'I' for Inactive)
REMARK    1  A    between atoms: C_2  and  C_3 
REMARK    2  A    between atoms: C_3  and  C_4 
REMARK    3  A    between atoms: C_3  and  C_10 
REMARK    4  A    between atoms: C_10  and  C_11 
REMARK       I    between atoms: C_11  and  N_12 
REMARK    5  A    between atoms: N_12  and  C_13 
REMARK    6  A    between atoms: C_20  and  C_21 
REMARK       I    between atoms: C_21  and  N_22 
ROOT
HETATM    1  C   UNL     1      43.210 -17.288   2.617  1.00  0.00     0.035 A 
HETATM    2  C   UNL     1      43.088 -17.373   4.010  1.00  0.00     0.046 A 
HETATM    3  C   UNL     1      43.584 -18.508   4.687  1.00  0.00     0.030 A 
HETATM    4  C   UNL     1      44.177 -19.523   3.946  1.00  0.00     0.063 A 
HETATM    5  N   UNL     1      44.536 -20.475   4.859  1.00  0.00    -0.277 N 
HETATM    6  H   UNL     1      44.988 -21.363   4.674  1.00  0.00     0.189 HD
HETATM    7  N   UNL     1      44.247 -20.164   6.133  1.00  0.00    -0.168 NA
HETATM    8  C   UNL     1      43.662 -18.947   6.044  1.00  0.00     0.156 A 
HETATM    9  C   UNL     1      44.320 -19.470   2.558  1.00  0.00     0.034 A 
HETATM   10  C   UNL     1      43.832 -18.327   1.913  1.00  0.00     0.032 A 
ENDROOT
BRANCH   1  11
HETATM   11  N   UNL     1      42.754 -16.187   1.858  1.00  0.00    -0.327 N 
HETATM   12  C   UNL     1      41.666 -16.158   1.009  1.00  0.00     0.222 C 
HETATM   13  O   UNL     1      40.932 -17.111   0.756  1.00  0.00    -0.273 OA
HETATM   14  H   UNL     1      43.386 -15.401   1.820  1.00  0.00     0.169 HD
BRANCH  12  15
HETATM   15  C   UNL     1      41.325 -14.796   0.410  1.00  0.00     0.112 C 
BRANCH  15  16
HETATM   16  C   UNL     1      41.598 -14.542  -1.085  1.00  0.00     0.027 C 
BRANCH  16  17
HETATM   17  C   UNL     1      42.072 -13.091  -1.339  1.00  0.00     0.005 C 
HETATM   18  C   UNL     1      42.764 -12.894  -2.682  1.00  0.00     0.006 C 
ENDBRANCH  16  17
BRANCH  16  19
HETATM   19  C   UNL     1      40.425 -14.835  -2.010  1.00  0.00    -0.054 A 
HETATM   20  C   UNL     1      40.486 -15.815  -3.011  1.00  0.00     0.007 A 
HETATM   21  C   UNL     1      39.394 -16.042  -3.851  1.00  0.00     0.001 A 
HETATM   22  C   UNL     1      38.223 -15.305  -3.692  1.00  0.00     0.000 A 
HETATM   23  C   UNL     1      38.139 -14.343  -2.690  1.00  0.00     0.001 A 
HETATM   24  C   UNL     1      39.230 -14.111  -1.852  1.00  0.00     0.007 A 
ENDBRANCH  16  19
ENDBRANCH  15  16
ENDBRANCH  12  15
ENDBRANCH   1  11
BRANCH   8  25
HETATM   25  C   UNL     1      43.201 -18.233   7.244  1.00  0.00     0.270 C 
HETATM   26  N   UNL     1      43.896 -18.549   8.380  1.00  0.00    -0.365 N 
HETATM   27  H   UNL     1      44.655 -19.216   8.315  1.00  0.00     0.159 HD
HETATM   28  H   UNL     1      43.659 -18.097   9.249  1.00  0.00     0.159 HD
HETATM   29  O   UNL     1      42.288 -17.416   7.266  1.00  0.00    -0.266 OA
ENDBRANCH   8  25
TORSDOF 6
ENDMDL
MODEL 8
REMARK VINA RESULT:      -8.1      1.879      3.219
REMARK  6 active torsions:
REMARK  status: ('A' for Active; 'I' for Inactive)
REMARK    1  A    between atoms: C_2  and  C_3 
REMARK    2  A    between atoms: C_3  and  C_4 
REMARK    3  A    between atoms: C_3  and  C_10 
REMARK    4  A    between atoms: C_10  and  C_11 
REMARK       I    between atoms: C_11  and  N_12 
REMARK    5  A    between atoms: N_12  and  C_13 
REMARK    6  A    between atoms: C_20  and  C_21 
REMARK       I    between atoms: C_21  and  N_22 
ROOT
HETATM    1  C   UNL     1      39.662 -14.753   1.110  1.00  0.00     0.035 A 
HETATM    2  C   UNL     1      40.409 -14.473  -0.043  1.00  0.00     0.046 A 
HETATM    3  C   UNL     1      39.781 -13.863  -1.150  1.00  0.00     0.030 A 
HETATM    4  C   UNL     1      38.428 -13.560  -1.070  1.00  0.00     0.063 A 
HETATM    5  N   UNL     1      38.109 -13.003  -2.276  1.00  0.00    -0.277 N 
HETATM    6  H   UNL     1      37.200 -12.669  -2.577  1.00  0.00     0.189 HD
HETATM    7  N   UNL     1      39.138 -12.897  -3.132  1.00  0.00    -0.168 NA
HETATM    8  C   UNL     1      40.182 -13.421  -2.447  1.00  0.00     0.156 A 
HETATM    9  C   UNL     1      37.654 -13.820   0.064  1.00  0.00     0.034 A 
HETATM   10  C   UNL     1      38.304 -14.414   1.153  1.00  0.00     0.032 A 
ENDROOT
BRANCH   1  11
HETATM   11  N   UNL     1      40.208 -15.351   2.268  1.00  0.00    -0.327 N 
HETATM   12  C   UNL     1      40.614 -16.663   2.412  1.00  0.00     0.222 C 
HETATM   13  O   UNL     1      40.533 -17.534   1.548  1.00  0.00    -0.273 OA
HETATM   14  H   UNL     1      40.141 -14.797   3.109  1.00  0.00     0.169 HD
BRANCH  12  15
HETATM   15  C   UNL     1      41.284 -17.011   3.738  1.00  0.00     0.112 C 
BRANCH  15  16
HETATM   16  C   UNL     1      42.822 -16.986   3.834  1.00  0.00     0.027 C 
BRANCH  16  17
HETATM   17  C   UNL     1      43.445 -16.057   2.765  1.00  0.00     0.005 C 
HETATM   18  C   UNL     1      43.592 -14.609   3.214  1.00  0.00     0.006 C 
ENDBRANCH  16  17
BRANCH  16  19
HETATM   19  C   UNL     1      43.492 -18.349   3.738  1.00  0.00    -0.054 A 
HETATM   20  C   UNL     1      44.118 -18.955   4.836  1.00  0.00     0.007 A 
HETATM   21  C   UNL     1      44.737 -20.199   4.704  1.00  0.00     0.001 A 
HETATM   22  C   UNL     1      44.727 -20.860   3.479  1.00  0.00     0.000 A 
HETATM   23  C   UNL     1      44.092 -20.281   2.383  1.00  0.00     0.001 A 
HETATM   24  C   UNL     1      43.476 -19.036   2.512  1.00  0.00     0.007 A 
ENDBRANCH  16  19
ENDBRANCH  15  16
ENDBRANCH  12  15
ENDBRANCH   1  11
BRANCH   8  25
HETATM   25  C   UNL     1      41.528 -13.479  -3.038  1.00  0.00     0.270 C 
HETATM   26  N   UNL     1      41.958 -14.748  -3.318  1.00  0.00    -0.365 N 
HETATM   27  H   UNL     1      41.340 -15.525  -3.118  1.00  0.00     0.159 HD
HETATM   28  H   UNL     1      42.863 -14.885  -3.738  1.00  0.00     0.159 HD
HETATM   29  O   UNL     1      42.230 -12.505  -3.281  1.00  0.00    -0.266 OA
ENDBRANCH   8  25
TORSDOF 6
ENDMDL
MODEL 9
REMARK VINA RESULT:      -7.8      1.821      2.619
REMARK  6 active torsions:
REMARK  status: ('A' for Active; 'I' for Inactive)
REMARK    1  A    between atoms: C_2  and  C_3 
REMARK    2  A    between atoms: C_3  and  C_4 
REMARK    3  A    between atoms: C_3  and  C_10 
REMARK    4  A    between atoms: C_10  and  C_11 
REMARK       I    between atoms: C_11  and  N_12 
REMARK    5  A    between atoms: N_12  and  C_13 
REMARK    6  A    between atoms: C_20  and  C_21 
REMARK       I    between atoms: C_21  and  N_22 
ROOT
HETATM    1  C   UNL     1      41.048 -14.722   1.642  1.00  0.00     0.035 A 
HETATM    2  C   UNL     1      40.998 -15.014   0.272  1.00  0.00     0.046 A 
HETATM    3  C   UNL     1      40.059 -14.353  -0.549  1.00  0.00     0.030 A 
HETATM    4  C   UNL     1      39.198 -13.429   0.029  1.00  0.00     0.063 A 
HETATM    5  N   UNL     1      38.412 -12.978  -0.994  1.00  0.00    -0.277 N 
HETATM    6  H   UNL     1      37.662 -12.298  -0.937  1.00  0.00     0.189 HD
HETATM    7  N   UNL     1      38.695 -13.511  -2.193  1.00  0.00    -0.168 NA
HETATM    8  C   UNL     1      39.717 -14.361  -1.935  1.00  0.00     0.156 A 
HETATM    9  C   UNL     1      39.223 -13.109   1.388  1.00  0.00     0.034 A 
HETATM   10  C   UNL     1      40.173 -13.769   2.178  1.00  0.00     0.032 A 
ENDROOT
BRANCH   1  11
HETATM   11  N   UNL     1      41.961 -15.325   2.537  1.00  0.00    -0.327 N 
HETATM   12  C   UNL     1      41.707 -16.370   3.402  1.00  0.00     0.222 C 
HETATM   13  O   UNL     1      40.619 -16.925   3.552  1.00  0.00    -0.273 OA
HETATM   14  H   UNL     1      42.833 -14.831   2.658  1.00  0.00     0.169 HD
BRANCH  12  15
HETATM   15  C   UNL     1      42.911 -16.908   4.169  1.00  0.00     0.112 C 
BRANCH  15  16
HETATM   16  C   UNL     1      43.797 -17.987   3.517  1.00  0.00     0.027 C 
BRANCH  16  17
HETATM   17  C   UNL     1      43.227 -18.446   2.154  1.00  0.00     0.005 C 
HETATM   18  C   UNL     1      43.830 -17.723   0.957  1.00  0.00     0.006 C 
ENDBRANCH  16  17
BRANCH  16  19
HETATM   19  C   UNL     1      44.042 -19.220   4.376  1.00  0.00    -0.054 A 
HETATM   20  C   UNL     1      44.717 -20.349   3.891  1.00  0.00     0.007 A 
HETATM   21  C   UNL     1      44.908 -21.468   4.705  1.00  0.00     0.001 A 
HETATM   22  C   UNL     1      44.440 -21.467   6.017  1.00  0.00     0.000 A 
HETATM   23  C   UNL     1      43.786 -20.345   6.520  1.00  0.00     0.001 A 
HETATM   24  C   UNL     1      43.591 -19.228   5.707  1.00  0.00     0.007 A 
ENDBRANCH  16  19
ENDBRANCH  15  16
ENDBRANCH  12  15
ENDBRANCH   1  11
BRANCH   8  25
HETATM   25  C   UNL     1      40.341 -15.149  -3.008  1.00  0.00     0.270 C 
HETATM   26  N   UNL     1      39.827 -16.410  -3.145  1.00  0.00    -0.365 N 
HETATM   27  H   UNL     1      39.075 -16.697  -2.530  1.00  0.00     0.159 HD
HETATM   28  H   UNL     1      40.185 -17.017  -3.865  1.00  0.00     0.159 HD
HETATM   29  O   UNL     1      41.238 -14.747  -3.741  1.00  0.00    -0.266 OA
ENDBRANCH   8  25
TORSDOF 6
ENDMDL
MODEL 10
REMARK VINA RESULT:      -7.8      1.905      2.807
REMARK  6 active torsions:
REMARK  status: ('A' for Active; 'I' for Inactive)
REMARK    1  A    between atoms: C_2  and  C_3 
REMARK    2  A    between atoms: C_3  and  C_4 
REMARK    3  A    between atoms: C_3  and  C_10 
REMARK    4  A    between atoms: C_10  and  C_11 
REMARK       I    between atoms: C_11  and  N_12 
REMARK    5  A    between atoms: N_12  and  C_13 
REMARK    6  A    between atoms: C_20  and  C_21 
REMARK       I    between atoms: C_21  and  N_22 
ROOT
HETATM    1  C   UNL     1      41.407 -16.013   0.487  1.00  0.00     0.035 A 
HETATM    2  C   UNL     1      41.202 -14.912   1.330  1.00  0.00     0.046 A 
HETATM    3  C   UNL     1      40.840 -13.665   0.775  1.00  0.00     0.030 A 
HETATM    4  C   UNL     1      40.703 -13.560  -0.603  1.00  0.00     0.063 A 
HETATM    5  N   UNL     1      40.368 -12.256  -0.836  1.00  0.00    -0.277 N 
HETATM    6  H   UNL     1      40.198 -11.817  -1.733  1.00  0.00     0.189 HD
HETATM    7  N   UNL     1      40.255 -11.503   0.270  1.00  0.00    -0.168 NA
HETATM    8  C   UNL     1      40.539 -12.363   1.277  1.00  0.00     0.156 A 
HETATM    9  C   UNL     1      40.894 -14.636  -1.473  1.00  0.00     0.034 A 
HETATM   10  C   UNL     1      41.239 -15.865  -0.896  1.00  0.00     0.032 A 
ENDROOT
BRANCH   1  11
HETATM   11  N   UNL     1      41.760 -17.299   0.953  1.00  0.00    -0.327 N 
HETATM   12  C   UNL     1      43.025 -17.745   1.278  1.00  0.00     0.222 C 
HETATM   13  O   UNL     1      44.061 -17.089   1.182  1.00  0.00    -0.273 OA
HETATM   14  H   UNL     1      41.032 -17.994   0.885  1.00  0.00     0.169 HD
BRANCH  12  15
HETATM   15  C   UNL     1      43.104 -19.147   1.877  1.00  0.00     0.112 C 
BRANCH  15  16
HETATM   16  C   UNL     1      44.209 -19.467   2.902  1.00  0.00     0.027 C 
BRANCH  16  17
HETATM   17  C   UNL     1      44.487 -20.987   2.984  1.00  0.00     0.005 C 
HETATM   18  C   UNL     1      43.990 -21.772   1.778  1.00  0.00     0.006 C 
ENDBRANCH  16  17
BRANCH  16  19
HETATM   19  C   UNL     1      43.947 -18.948   4.309  1.00  0.00    -0.054 A 
HETATM   20  C   UNL     1      42.710 -18.409   4.690  1.00  0.00     0.007 A 
HETATM   21  C   UNL     1      42.513 -17.926   5.986  1.00  0.00     0.001 A 
HETATM   22  C   UNL     1      43.544 -17.990   6.920  1.00  0.00     0.000 A 
HETATM   23  C   UNL     1      44.772 -18.541   6.563  1.00  0.00     0.001 A 
HETATM   24  C   UNL     1      44.971 -19.019   5.268  1.00  0.00     0.007 A 
ENDBRANCH  16  19
ENDBRANCH  15  16
ENDBRANCH  12  15
ENDBRANCH   1  11
BRANCH   8  25
HETATM   25  C   UNL     1      40.511 -11.928   2.681  1.00  0.00     0.270 C 
HETATM   26  N   UNL     1      41.249 -10.803   2.930  1.00  0.00    -0.365 N 
HETATM   27  H   UNL     1      41.734 -10.359   2.159  1.00  0.00     0.159 HD
HETATM   28  H   UNL     1      41.277 -10.423   3.863  1.00  0.00     0.159 HD
HETATM   29  O   UNL     1      39.889 -12.488   3.576  1.00  0.00    -0.266 OA
ENDBRANCH   8  25
TORSDOF 6
ENDMDL
