MODEL 1
REMARK VINA RESULT:      -9.5      0.000      0.000
REMARK  6 active torsions:
REMARK  status: ('A' for Active; 'I' for Inactive)
REMARK    1  A    between atoms: O_2  and  C_3 
REMARK    2  A    between atoms: C_6  and  C_7 
REMARK    3  A    between atoms: C_12  and  C_13 
REMARK       I    between atoms: C_13  and  N_14 
REMARK    4  A    between atoms: N_14  and  C_15 
REMARK    5  A    between atoms: C_15  and  C_16 
REMARK    6  A    between atoms: C_24  and  C_25 
ROOT
HETATM    1  C   UNL     1      42.772 -16.726   4.011  1.00  0.00     0.118 C 
HETATM    2  N   UNL     1      43.073 -16.600   5.435  1.00  0.00    -0.366 N 
HETATM    3  C   UNL     1      43.547 -15.463   5.979  1.00  0.00     0.123 A 
HETATM    4  N   UNL     1      43.649 -14.314   5.248  1.00  0.00    -0.240 N 
HETATM    5  N   UNL     1      44.244 -13.298   5.896  1.00  0.00    -0.165 NA
HETATM    6  C   UNL     1      44.465 -13.805   7.133  1.00  0.00     0.148 A 
HETATM    7  C   UNL     1      44.025 -15.156   7.225  1.00  0.00     0.088 A 
HETATM    8  C   UNL     1      43.263 -14.223   3.854  1.00  0.00     0.221 C 
HETATM    9  C   UNL     1      43.442 -15.600   3.194  1.00  0.00     0.066 C 
HETATM   10  H   UNL     1      42.959 -17.448   5.990  1.00  0.00     0.161 HD
ENDROOT
BRANCH   6  11
HETATM   11  C   UNL     1      45.102 -13.022   8.200  1.00  0.00     0.272 C 
HETATM   12  N   UNL     1      44.299 -12.850   9.301  1.00  0.00    -0.351 N 
HETATM   13  H   UNL     1      43.355 -13.220   9.230  1.00  0.00     0.163 HD
HETATM   14  O   UNL     1      46.240 -12.572   8.106  1.00  0.00    -0.266 OA
BRANCH  12  15
HETATM   15  C   UNL     1      44.704 -12.096  10.457  1.00  0.00     0.161 C 
BRANCH  15  16
HETATM   16  C   UNL     1      43.778 -10.937  10.729  1.00  0.00    -0.041 A 
HETATM   17  C   UNL     1      42.748 -10.608   9.835  1.00  0.00     0.009 A 
HETATM   18  C   UNL     1      41.872  -9.558  10.112  1.00  0.00     0.001 A 
HETATM   19  C   UNL     1      42.003  -8.836  11.295  1.00  0.00     0.000 A 
HETATM   20  C   UNL     1      43.010  -9.163  12.202  1.00  0.00     0.001 A 
HETATM   21  C   UNL     1      43.891 -10.210  11.923  1.00  0.00     0.009 A 
ENDBRANCH  15  16
ENDBRANCH  12  15
ENDBRANCH   6  11
BRANCH   8  22
HETATM   22  C   UNL     1      41.851 -13.700   3.739  1.00  0.00     0.409 C 
HETATM   23  F   UNL     1      41.805 -12.357   3.601  1.00  0.00    -0.169 F 
HETATM   24  F   UNL     1      41.259 -14.220   2.631  1.00  0.00    -0.169 F 
HETATM   25  F   UNL     1      41.065 -14.033   4.784  1.00  0.00    -0.169 F 
ENDBRANCH   8  22
BRANCH   1  26
HETATM   26  C   UNL     1      43.233 -18.089   3.527  1.00  0.00    -0.035 A 
HETATM   27  C   UNL     1      42.865 -18.560   2.259  1.00  0.00     0.012 A 
HETATM   28  C   UNL     1      43.297 -19.813   1.805  1.00  0.00     0.037 A 
HETATM   29  C   UNL     1      44.106 -20.613   2.613  1.00  0.00     0.068 A 
HETATM   30  C   UNL     1      44.469 -20.156   3.879  1.00  0.00     0.037 A 
HETATM   31  C   UNL     1      44.041 -18.908   4.334  1.00  0.00     0.012 A 
BRANCH  29  32
HETATM   32  O   UNL     1      44.598 -21.848   2.292  1.00  0.00    -0.356 OA
HETATM   33  C   UNL     1      44.768 -22.770   3.360  1.00  0.00     0.210 C 
ENDBRANCH  29  32
ENDBRANCH   1  26
TORSDOF 6
ENDMDL
MODEL 2
REMARK VINA RESULT:      -9.0      2.519      3.054
REMARK  6 active torsions:
REMARK  status: ('A' for Active; 'I' for Inactive)
REMARK    1  A    between atoms: O_2  and  C_3 
REMARK    2  A    between atoms: C_6  and  C_7 
REMARK    3  A    between atoms: C_12  and  C_13 
REMARK       I    between atoms: C_13  and  N_14 
REMARK    4  A    between atoms: N_14  and  C_15 
REMARK    5  A    between atoms: C_15  and  C_16 
REMARK    6  A    between atoms: C_24  and  C_25 
ROOT
HETATM    1  C   UNL     1      41.494 -16.930   3.270  1.00  0.00     0.118 C 
HETATM    2  N   UNL     1      40.986 -16.483   4.565  1.00  0.00    -0.366 N 
HETATM    3  C   UNL     1      40.758 -15.186   4.846  1.00  0.00     0.123 A 
HETATM    4  N   UNL     1      40.867 -14.220   3.887  1.00  0.00    -0.240 N 
HETATM    5  N   UNL     1      40.721 -12.966   4.346  1.00  0.00    -0.165 NA
HETATM    6  C   UNL     1      40.429 -13.147   5.657  1.00  0.00     0.148 A 
HETATM    7  C   UNL     1      40.427 -14.528   6.001  1.00  0.00     0.088 A 
HETATM    8  C   UNL     1      41.228 -14.505   2.511  1.00  0.00     0.221 C 
HETATM    9  C   UNL     1      42.114 -15.760   2.477  1.00  0.00     0.066 C 
HETATM   10  H   UNL     1      40.866 -17.210   5.270  1.00  0.00     0.161 HD
ENDROOT
BRANCH   6  11
HETATM   11  C   UNL     1      40.176 -12.022   6.567  1.00  0.00     0.272 C 
HETATM   12  N   UNL     1      41.263 -11.693   7.340  1.00  0.00    -0.351 N 
HETATM   13  H   UNL     1      42.080 -12.289   7.242  1.00  0.00     0.163 HD
HETATM   14  O   UNL     1      39.096 -11.442   6.623  1.00  0.00    -0.266 OA
BRANCH  12  15
HETATM   15  C   UNL     1      41.239 -10.640   8.319  1.00  0.00     0.161 C 
BRANCH  15  16
HETATM   16  C   UNL     1      42.445 -10.682   9.223  1.00  0.00    -0.041 A 
HETATM   17  C   UNL     1      43.596 -11.400   8.863  1.00  0.00     0.009 A 
HETATM   18  C   UNL     1      44.722 -11.403   9.686  1.00  0.00     0.001 A 
HETATM   19  C   UNL     1      44.719 -10.671  10.872  1.00  0.00     0.000 A 
HETATM   20  C   UNL     1      43.591  -9.937  11.233  1.00  0.00     0.001 A 
HETATM   21  C   UNL     1      42.461  -9.939  10.413  1.00  0.00     0.009 A 
ENDBRANCH  15  16
ENDBRANCH  12  15
ENDBRANCH   6  11
BRANCH   8  22
HETATM   22  C   UNL     1      39.984 -14.645   1.667  1.00  0.00     0.409 C 
HETATM   23  F   UNL     1      39.596 -13.473   1.116  1.00  0.00    -0.169 F 
HETATM   24  F   UNL     1      40.227 -15.493   0.632  1.00  0.00    -0.169 F 
HETATM   25  F   UNL     1      38.929 -15.153   2.338  1.00  0.00    -0.169 F 
ENDBRANCH   8  22
BRANCH   1  26
HETATM   26  C   UNL     1      42.519 -18.029   3.495  1.00  0.00    -0.035 A 
HETATM   27  C   UNL     1      42.963 -18.821   2.427  1.00  0.00     0.012 A 
HETATM   28  C   UNL     1      43.915 -19.829   2.630  1.00  0.00     0.037 A 
HETATM   29  C   UNL     1      44.438 -20.058   3.903  1.00  0.00     0.068 A 
HETATM   30  C   UNL     1      43.993 -19.281   4.972  1.00  0.00     0.037 A 
HETATM   31  C   UNL     1      43.045 -18.276   4.773  1.00  0.00     0.012 A 
BRANCH  29  32
HETATM   32  O   UNL     1      45.369 -21.002   4.235  1.00  0.00    -0.356 OA
HETATM   33  C   UNL     1      44.913 -22.121   4.983  1.00  0.00     0.210 C 
ENDBRANCH  29  32
ENDBRANCH   1  26
TORSDOF 6
ENDMDL
MODEL 3
REMARK VINA RESULT:      -9.0      2.484      3.259
REMARK  6 active torsions:
REMARK  status: ('A' for Active; 'I' for Inactive)
REMARK    1  A    between atoms: O_2  and  C_3 
REMARK    2  A    between atoms: C_6  and  C_7 
REMARK    3  A    between atoms: C_12  and  C_13 
REMARK       I    between atoms: C_13  and  N_14 
REMARK    4  A    between atoms: N_14  and  C_15 
REMARK    5  A    between atoms: C_15  and  C_16 
REMARK    6  A    between atoms: C_24  and  C_25 
ROOT
HETATM    1  C   UNL     1      41.422 -16.827   3.123  1.00  0.00     0.118 C 
HETATM    2  N   UNL     1      40.917 -16.415   4.431  1.00  0.00    -0.366 N 
HETATM    3  C   UNL     1      40.730 -15.123   4.762  1.00  0.00     0.123 A 
HETATM    4  N   UNL     1      40.879 -14.125   3.843  1.00  0.00    -0.240 N 
HETATM    5  N   UNL     1      40.770 -12.886   4.351  1.00  0.00    -0.165 NA
HETATM    6  C   UNL     1      40.462 -13.109   5.651  1.00  0.00     0.148 A 
HETATM    7  C   UNL     1      40.411 -14.502   5.939  1.00  0.00     0.088 A 
HETATM    8  C   UNL     1      41.243 -14.366   2.460  1.00  0.00     0.221 C 
HETATM    9  C   UNL     1      42.087 -15.648   2.381  1.00  0.00     0.066 C 
HETATM   10  H   UNL     1      40.768 -17.166   5.105  1.00  0.00     0.161 HD
ENDROOT
BRANCH   6  11
HETATM   11  C   UNL     1      40.237 -12.013   6.604  1.00  0.00     0.272 C 
HETATM   12  N   UNL     1      41.376 -11.631   7.270  1.00  0.00    -0.351 N 
HETATM   13  H   UNL     1      42.212 -12.177   7.080  1.00  0.00     0.163 HD
HETATM   14  O   UNL     1      39.137 -11.499   6.778  1.00  0.00    -0.266 OA
BRANCH  12  15
HETATM   15  C   UNL     1      41.391 -10.595   8.267  1.00  0.00     0.161 C 
BRANCH  15  16
HETATM   16  C   UNL     1      42.606 -10.683   9.156  1.00  0.00    -0.041 A 
HETATM   17  C   UNL     1      42.653 -10.010  10.387  1.00  0.00     0.009 A 
HETATM   18  C   UNL     1      43.765 -10.127  11.221  1.00  0.00     0.001 A 
HETATM   19  C   UNL     1      44.836 -10.935  10.845  1.00  0.00     0.000 A 
HETATM   20  C   UNL     1      44.794 -11.626   9.635  1.00  0.00     0.001 A 
HETATM   21  C   UNL     1      43.685 -11.503   8.796  1.00  0.00     0.009 A 
ENDBRANCH  15  16
ENDBRANCH  12  15
ENDBRANCH   6  11
BRANCH   8  22
HETATM   22  C   UNL     1      40.002 -14.431   1.601  1.00  0.00     0.409 C 
HETATM   23  F   UNL     1      38.917 -14.850   2.288  1.00  0.00    -0.169 F 
HETATM   24  F   UNL     1      39.704 -13.189   1.133  1.00  0.00    -0.169 F 
HETATM   25  F   UNL     1      40.135 -15.225   0.518  1.00  0.00    -0.169 F 
ENDBRANCH   8  22
BRANCH   1  26
HETATM   26  C   UNL     1      42.408 -17.968   3.311  1.00  0.00    -0.035 A 
HETATM   27  C   UNL     1      42.961 -18.233   4.572  1.00  0.00     0.012 A 
HETATM   28  C   UNL     1      43.862 -19.291   4.751  1.00  0.00     0.037 A 
HETATM   29  C   UNL     1      44.222 -20.100   3.673  1.00  0.00     0.068 A 
HETATM   30  C   UNL     1      43.684 -19.836   2.414  1.00  0.00     0.037 A 
HETATM   31  C   UNL     1      42.785 -18.784   2.232  1.00  0.00     0.012 A 
BRANCH  29  32
HETATM   32  O   UNL     1      45.084 -21.161   3.711  1.00  0.00    -0.356 OA
HETATM   33  C   UNL     1      44.990 -22.025   4.836  1.00  0.00     0.210 C 
ENDBRANCH  29  32
ENDBRANCH   1  26
TORSDOF 6
ENDMDL
MODEL 4
REMARK VINA RESULT:      -8.4      4.991      8.136
REMARK  6 active torsions:
REMARK  status: ('A' for Active; 'I' for Inactive)
REMARK    1  A    between atoms: O_2  and  C_3 
REMARK    2  A    between atoms: C_6  and  C_7 
REMARK    3  A    between atoms: C_12  and  C_13 
REMARK       I    between atoms: C_13  and  N_14 
REMARK    4  A    between atoms: N_14  and  C_15 
REMARK    5  A    between atoms: C_15  and  C_16 
REMARK    6  A    between atoms: C_24  and  C_25 
ROOT
HETATM    1  C   UNL     1      42.803 -16.933   4.304  1.00  0.00     0.118 C 
HETATM    2  N   UNL     1      43.235 -16.511   2.974  1.00  0.00    -0.366 N 
HETATM    3  C   UNL     1      42.405 -15.913   2.097  1.00  0.00     0.123 A 
HETATM    4  N   UNL     1      41.138 -15.548   2.452  1.00  0.00    -0.240 N 
HETATM    5  N   UNL     1      40.398 -15.068   1.439  1.00  0.00    -0.165 NA
HETATM    6  C   UNL     1      41.264 -15.058   0.398  1.00  0.00     0.148 A 
HETATM    7  C   UNL     1      42.538 -15.566   0.779  1.00  0.00     0.088 A 
HETATM    8  C   UNL     1      40.591 -15.767   3.777  1.00  0.00     0.221 C 
HETATM    9  C   UNL     1      41.264 -17.002   4.398  1.00  0.00     0.066 C 
HETATM   10  H   UNL     1      44.194 -16.748   2.723  1.00  0.00     0.161 HD
ENDROOT
BRANCH   6  11
HETATM   11  C   UNL     1      40.878 -14.591  -0.940  1.00  0.00     0.272 C 
HETATM   12  N   UNL     1      41.945 -14.175  -1.699  1.00  0.00    -0.351 N 
HETATM   13  H   UNL     1      42.851 -14.178  -1.240  1.00  0.00     0.163 HD
HETATM   14  O   UNL     1      39.715 -14.578  -1.330  1.00  0.00    -0.266 OA
BRANCH  12  15
HETATM   15  C   UNL     1      41.803 -13.654  -3.033  1.00  0.00     0.161 C 
BRANCH  15  16
HETATM   16  C   UNL     1      42.219 -12.207  -3.122  1.00  0.00    -0.041 A 
HETATM   17  C   UNL     1      42.044 -11.475  -4.306  1.00  0.00     0.009 A 
HETATM   18  C   UNL     1      42.396 -10.127  -4.369  1.00  0.00     0.001 A 
HETATM   19  C   UNL     1      42.910  -9.488  -3.243  1.00  0.00     0.000 A 
HETATM   20  C   UNL     1      43.072 -10.197  -2.054  1.00  0.00     0.001 A 
HETATM   21  C   UNL     1      42.726 -11.548  -1.992  1.00  0.00     0.009 A 
ENDBRANCH  15  16
ENDBRANCH  12  15
ENDBRANCH   6  11
BRANCH   8  22
HETATM   22  C   UNL     1      40.759 -14.524   4.619  1.00  0.00     0.409 C 
HETATM   23  F   UNL     1      39.696 -13.695   4.537  1.00  0.00    -0.169 F 
HETATM   24  F   UNL     1      40.874 -14.872   5.929  1.00  0.00    -0.169 F 
HETATM   25  F   UNL     1      41.863 -13.811   4.316  1.00  0.00    -0.169 F 
ENDBRANCH   8  22
BRANCH   1  26
HETATM   26  C   UNL     1      43.421 -18.285   4.618  1.00  0.00    -0.035 A 
HETATM   27  C   UNL     1      43.421 -18.783   5.928  1.00  0.00     0.012 A 
HETATM   28  C   UNL     1      43.982 -20.034   6.220  1.00  0.00     0.037 A 
HETATM   29  C   UNL     1      44.548 -20.805   5.204  1.00  0.00     0.068 A 
HETATM   30  C   UNL     1      44.561 -20.311   3.900  1.00  0.00     0.037 A 
HETATM   31  C   UNL     1      44.002 -19.066   3.606  1.00  0.00     0.012 A 
BRANCH  29  32
HETATM   32  O   UNL     1      45.123 -22.037   5.351  1.00  0.00    -0.356 OA
HETATM   33  C   UNL     1      44.835 -23.004   4.350  1.00  0.00     0.210 C 
ENDBRANCH  29  32
ENDBRANCH   1  26
TORSDOF 6
ENDMDL
MODEL 5
REMARK VINA RESULT:      -8.4      2.540      9.442
REMARK  6 active torsions:
REMARK  status: ('A' for Active; 'I' for Inactive)
REMARK    1  A    between atoms: O_2  and  C_3 
REMARK    2  A    between atoms: C_6  and  C_7 
REMARK    3  A    between atoms: C_12  and  C_13 
REMARK       I    between atoms: C_13  and  N_14 
REMARK    4  A    between atoms: N_14  and  C_15 
REMARK    5  A    between atoms: C_15  and  C_16 
REMARK    6  A    between atoms: C_24  and  C_25 
ROOT
HETATM    1  C   UNL     1      41.079 -12.411   5.999  1.00  0.00     0.118 C 
HETATM    2  N   UNL     1      42.419 -12.951   6.217  1.00  0.00    -0.366 N 
HETATM    3  C   UNL     1      42.716 -14.251   6.030  1.00  0.00     0.123 A 
HETATM    4  N   UNL     1      41.806 -15.119   5.496  1.00  0.00    -0.240 N 
HETATM    5  N   UNL     1      42.211 -16.400   5.478  1.00  0.00    -0.165 NA
HETATM    6  C   UNL     1      43.476 -16.334   5.957  1.00  0.00     0.148 A 
HETATM    7  C   UNL     1      43.831 -14.998   6.297  1.00  0.00     0.088 A 
HETATM    8  C   UNL     1      40.471 -14.722   5.093  1.00  0.00     0.221 C 
HETATM    9  C   UNL     1      40.020 -13.534   5.959  1.00  0.00     0.066 C 
HETATM   10  H   UNL     1      43.109 -12.293   6.578  1.00  0.00     0.161 HD
ENDROOT
BRANCH   6  11
HETATM   11  C   UNL     1      44.323 -17.525   6.105  1.00  0.00     0.272 C 
HETATM   12  N   UNL     1      43.738 -18.671   5.624  1.00  0.00    -0.351 N 
HETATM   13  H   UNL     1      42.784 -18.580   5.285  1.00  0.00     0.163 HD
HETATM   14  O   UNL     1      45.440 -17.488   6.610  1.00  0.00    -0.266 OA
BRANCH  12  15
HETATM   15  C   UNL     1      44.371 -19.961   5.686  1.00  0.00     0.161 C 
BRANCH  15  16
HETATM   16  C   UNL     1      44.384 -20.649   4.344  1.00  0.00    -0.041 A 
HETATM   17  C   UNL     1      44.740 -22.002   4.227  1.00  0.00     0.009 A 
HETATM   18  C   UNL     1      44.712 -22.641   2.987  1.00  0.00     0.001 A 
HETATM   19  C   UNL     1      44.311 -21.941   1.852  1.00  0.00     0.000 A 
HETATM   20  C   UNL     1      43.937 -20.603   1.955  1.00  0.00     0.001 A 
HETATM   21  C   UNL     1      43.970 -19.960   3.194  1.00  0.00     0.009 A 
ENDBRANCH  15  16
ENDBRANCH  12  15
ENDBRANCH   6  11
BRANCH   8  22
HETATM   22  C   UNL     1      40.446 -14.410   3.616  1.00  0.00     0.409 C 
HETATM   23  F   UNL     1      40.205 -15.503   2.859  1.00  0.00    -0.169 F 
HETATM   24  F   UNL     1      39.443 -13.530   3.351  1.00  0.00    -0.169 F 
HETATM   25  F   UNL     1      41.583 -13.840   3.165  1.00  0.00    -0.169 F 
ENDBRANCH   8  22
BRANCH   1  26
HETATM   26  C   UNL     1      40.763 -11.415   7.102  1.00  0.00    -0.035 A 
HETATM   27  C   UNL     1      39.523 -11.442   7.756  1.00  0.00     0.012 A 
HETATM   28  C   UNL     1      39.233 -10.530   8.780  1.00  0.00     0.037 A 
HETATM   29  C   UNL     1      40.179  -9.580   9.166  1.00  0.00     0.068 A 
HETATM   30  C   UNL     1      41.410  -9.541   8.513  1.00  0.00     0.037 A 
HETATM   31  C   UNL     1      41.703 -10.448   7.493  1.00  0.00     0.012 A 
BRANCH  29  32
HETATM   32  O   UNL     1      40.026  -8.641  10.147  1.00  0.00    -0.356 OA
HETATM   33  C   UNL     1      40.625  -8.921  11.405  1.00  0.00     0.210 C 
ENDBRANCH  29  32
ENDBRANCH   1  26
TORSDOF 6
ENDMDL
MODEL 6
REMARK VINA RESULT:      -8.4      4.080      8.458
REMARK  6 active torsions:
REMARK  status: ('A' for Active; 'I' for Inactive)
REMARK    1  A    between atoms: O_2  and  C_3 
REMARK    2  A    between atoms: C_6  and  C_7 
REMARK    3  A    between atoms: C_12  and  C_13 
REMARK       I    between atoms: C_13  and  N_14 
REMARK    4  A    between atoms: N_14  and  C_15 
REMARK    5  A    between atoms: C_15  and  C_16 
REMARK    6  A    between atoms: C_24  and  C_25 
ROOT
HETATM    1  C   UNL     1      39.319 -13.661   2.866  1.00  0.00     0.118 C 
HETATM    2  N   UNL     1      39.798 -15.007   3.173  1.00  0.00    -0.366 N 
HETATM    3  C   UNL     1      40.853 -15.236   3.978  1.00  0.00     0.123 A 
HETATM    4  N   UNL     1      41.459 -14.221   4.662  1.00  0.00    -0.240 N 
HETATM    5  N   UNL     1      42.564 -14.589   5.332  1.00  0.00    -0.165 NA
HETATM    6  C   UNL     1      42.623 -15.926   5.124  1.00  0.00     0.148 A 
HETATM    7  C   UNL     1      41.555 -16.368   4.293  1.00  0.00     0.088 A 
HETATM    8  C   UNL     1      41.025 -12.839   4.582  1.00  0.00     0.221 C 
HETATM    9  C   UNL     1      40.383 -12.596   3.206  1.00  0.00     0.066 C 
HETATM   10  H   UNL     1      39.319 -15.768   2.693  1.00  0.00     0.161 HD
ENDROOT
BRANCH   6  11
HETATM   11  C   UNL     1      43.688 -16.763   5.691  1.00  0.00     0.272 C 
HETATM   12  N   UNL     1      43.791 -17.994   5.091  1.00  0.00    -0.351 N 
HETATM   13  H   UNL     1      43.095 -18.207   4.381  1.00  0.00     0.163 HD
HETATM   14  O   UNL     1      44.409 -16.388   6.611  1.00  0.00    -0.266 OA
BRANCH  12  15
HETATM   15  C   UNL     1      44.747 -18.988   5.498  1.00  0.00     0.161 C 
BRANCH  15  16
HETATM   16  C   UNL     1      44.656 -20.237   4.658  1.00  0.00    -0.041 A 
HETATM   17  C   UNL     1      44.526 -20.163   3.262  1.00  0.00     0.009 A 
HETATM   18  C   UNL     1      44.481 -21.323   2.488  1.00  0.00     0.001 A 
HETATM   19  C   UNL     1      44.585 -22.572   3.098  1.00  0.00     0.000 A 
HETATM   20  C   UNL     1      44.734 -22.660   4.481  1.00  0.00     0.001 A 
HETATM   21  C   UNL     1      44.773 -21.500   5.257  1.00  0.00     0.009 A 
ENDBRANCH  15  16
ENDBRANCH  12  15
ENDBRANCH   6  11
BRANCH   8  22
HETATM   22  C   UNL     1      40.092 -12.521   5.726  1.00  0.00     0.409 C 
HETATM   23  F   UNL     1      39.485 -13.621   6.221  1.00  0.00    -0.169 F 
HETATM   24  F   UNL     1      40.797 -11.977   6.753  1.00  0.00    -0.169 F 
HETATM   25  F   UNL     1      39.131 -11.629   5.407  1.00  0.00    -0.169 F 
ENDBRANCH   8  22
BRANCH   1  26
HETATM   26  C   UNL     1      38.944 -13.595   1.395  1.00  0.00    -0.035 A 
HETATM   27  C   UNL     1      39.781 -14.151   0.418  1.00  0.00     0.012 A 
HETATM   28  C   UNL     1      39.432 -14.100  -0.938  1.00  0.00     0.037 A 
HETATM   29  C   UNL     1      38.240 -13.494  -1.336  1.00  0.00     0.068 A 
HETATM   30  C   UNL     1      37.407 -12.930  -0.371  1.00  0.00     0.037 A 
HETATM   31  C   UNL     1      37.751 -12.980   0.981  1.00  0.00     0.012 A 
BRANCH  29  32
HETATM   32  O   UNL     1      37.782 -13.380  -2.619  1.00  0.00    -0.356 OA
HETATM   33  C   UNL     1      37.597 -14.587  -3.346  1.00  0.00     0.210 C 
ENDBRANCH  29  32
ENDBRANCH   1  26
TORSDOF 6
ENDMDL
MODEL 7
REMARK VINA RESULT:      -8.4      5.194      8.730
REMARK  6 active torsions:
REMARK  status: ('A' for Active; 'I' for Inactive)
REMARK    1  A    between atoms: O_2  and  C_3 
REMARK    2  A    between atoms: C_6  and  C_7 
REMARK    3  A    between atoms: C_12  and  C_13 
REMARK       I    between atoms: C_13  and  N_14 
REMARK    4  A    between atoms: N_14  and  C_15 
REMARK    5  A    between atoms: C_15  and  C_16 
REMARK    6  A    between atoms: C_24  and  C_25 
ROOT
HETATM    1  C   UNL     1      43.374 -17.043   2.770  1.00  0.00     0.118 C 
HETATM    2  N   UNL     1      43.089 -16.668   1.386  1.00  0.00    -0.366 N 
HETATM    3  C   UNL     1      42.102 -15.814   1.054  1.00  0.00     0.123 A 
HETATM    4  N   UNL     1      41.390 -15.144   2.008  1.00  0.00    -0.240 N 
HETATM    5  N   UNL     1      40.367 -14.419   1.525  1.00  0.00    -0.165 NA
HETATM    6  C   UNL     1      40.479 -14.576   0.185  1.00  0.00     0.148 A 
HETATM    7  C   UNL     1      41.568 -15.432  -0.147  1.00  0.00     0.088 A 
HETATM    8  C   UNL     1      41.634 -15.292   3.430  1.00  0.00     0.221 C 
HETATM    9  C   UNL     1      42.190 -16.700   3.699  1.00  0.00     0.066 C 
HETATM   10  H   UNL     1      43.648 -17.139   0.675  1.00  0.00     0.161 HD
ENDROOT
BRANCH   6  11
HETATM   11  C   UNL     1      39.554 -13.937  -0.761  1.00  0.00     0.272 C 
HETATM   12  N   UNL     1      40.118 -13.690  -1.989  1.00  0.00    -0.351 N 
HETATM   13  H   UNL     1      41.105 -13.913  -2.083  1.00  0.00     0.163 HD
HETATM   14  O   UNL     1      38.395 -13.658  -0.471  1.00  0.00    -0.266 OA
BRANCH  12  15
HETATM   15  C   UNL     1      39.407 -13.049  -3.063  1.00  0.00     0.161 C 
BRANCH  15  16
HETATM   16  C   UNL     1      40.266 -12.045  -3.789  1.00  0.00    -0.041 A 
HETATM   17  C   UNL     1      41.665 -12.160  -3.798  1.00  0.00     0.009 A 
HETATM   18  C   UNL     1      42.451 -11.249  -4.503  1.00  0.00     0.001 A 
HETATM   19  C   UNL     1      41.848 -10.222  -5.226  1.00  0.00     0.000 A 
HETATM   20  C   UNL     1      40.459 -10.107  -5.243  1.00  0.00     0.001 A 
HETATM   21  C   UNL     1      39.672 -11.014  -4.532  1.00  0.00     0.009 A 
ENDBRANCH  15  16
ENDBRANCH  12  15
ENDBRANCH   6  11
BRANCH   8  22
HETATM   22  C   UNL     1      42.555 -14.197   3.915  1.00  0.00     0.409 C 
HETATM   23  F   UNL     1      43.321 -13.688   2.925  1.00  0.00    -0.169 F 
HETATM   24  F   UNL     1      41.819 -13.162   4.401  1.00  0.00    -0.169 F 
HETATM   25  F   UNL     1      43.375 -14.585   4.913  1.00  0.00    -0.169 F 
ENDBRANCH   8  22
BRANCH   1  26
HETATM   26  C   UNL     1      43.687 -18.528   2.824  1.00  0.00    -0.035 A 
HETATM   27  C   UNL     1      43.318 -19.375   1.770  1.00  0.00     0.012 A 
HETATM   28  C   UNL     1      43.614 -20.745   1.814  1.00  0.00     0.037 A 
HETATM   29  C   UNL     1      44.286 -21.285   2.910  1.00  0.00     0.068 A 
HETATM   30  C   UNL     1      44.647 -20.450   3.967  1.00  0.00     0.037 A 
HETATM   31  C   UNL     1      44.355 -19.086   3.927  1.00  0.00     0.012 A 
BRANCH  29  32
HETATM   32  O   UNL     1      44.638 -22.596   3.076  1.00  0.00    -0.356 OA
HETATM   33  C   UNL     1      44.719 -23.076   4.411  1.00  0.00     0.210 C 
ENDBRANCH  29  32
ENDBRANCH   1  26
TORSDOF 6
ENDMDL
MODEL 8
REMARK VINA RESULT:      -8.2      4.582      8.468
REMARK  6 active torsions:
REMARK  status: ('A' for Active; 'I' for Inactive)
REMARK    1  A    between atoms: O_2  and  C_3 
REMARK    2  A    between atoms: C_6  and  C_7 
REMARK    3  A    between atoms: C_12  and  C_13 
REMARK       I    between atoms: C_13  and  N_14 
REMARK    4  A    between atoms: N_14  and  C_15 
REMARK    5  A    between atoms: C_15  and  C_16 
REMARK    6  A    between atoms: C_24  and  C_25 
ROOT
HETATM    1  C   UNL     1      43.262 -16.269   4.918  1.00  0.00     0.118 C 
HETATM    2  N   UNL     1      42.954 -16.048   3.507  1.00  0.00    -0.366 N 
HETATM    3  C   UNL     1      41.928 -15.275   3.101  1.00  0.00     0.123 A 
HETATM    4  N   UNL     1      41.194 -14.544   3.989  1.00  0.00    -0.240 N 
HETATM    5  N   UNL     1      40.137 -13.915   3.447  1.00  0.00    -0.165 NA
HETATM    6  C   UNL     1      40.248 -14.202   2.128  1.00  0.00     0.148 A 
HETATM    7  C   UNL     1      41.371 -15.039   1.873  1.00  0.00     0.088 A 
HETATM    8  C   UNL     1      41.451 -14.537   5.416  1.00  0.00     0.221 C 
HETATM    9  C   UNL     1      42.070 -15.885   5.820  1.00  0.00     0.066 C 
HETATM   10  H   UNL     1      43.529 -16.564   2.841  1.00  0.00     0.161 HD
ENDROOT
BRANCH   6  11
HETATM   11  C   UNL     1      39.290 -13.702   1.132  1.00  0.00     0.272 C 
HETATM   12  N   UNL     1      39.849 -13.503  -0.107  1.00  0.00    -0.351 N 
HETATM   13  H   UNL     1      40.851 -13.660  -0.178  1.00  0.00     0.163 HD
HETATM   14  O   UNL     1      38.111 -13.488   1.394  1.00  0.00    -0.266 OA
BRANCH  12  15
HETATM   15  C   UNL     1      39.107 -12.994  -1.229  1.00  0.00     0.161 C 
BRANCH  15  16
HETATM   16  C   UNL     1      38.959 -14.023  -2.321  1.00  0.00    -0.041 A 
HETATM   17  C   UNL     1      40.014 -14.889  -2.649  1.00  0.00     0.009 A 
HETATM   18  C   UNL     1      39.857 -15.863  -3.634  1.00  0.00     0.001 A 
HETATM   19  C   UNL     1      38.637 -15.998  -4.292  1.00  0.00     0.000 A 
HETATM   20  C   UNL     1      37.573 -15.160  -3.963  1.00  0.00     0.001 A 
HETATM   21  C   UNL     1      37.731 -14.179  -2.982  1.00  0.00     0.009 A 
ENDBRANCH  15  16
ENDBRANCH  12  15
ENDBRANCH   6  11
BRANCH   8  22
HETATM   22  C   UNL     1      42.326 -13.361   5.780  1.00  0.00     0.409 C 
HETATM   23  F   UNL     1      42.880 -12.772   4.697  1.00  0.00    -0.169 F 
HETATM   24  F   UNL     1      41.578 -12.406   6.394  1.00  0.00    -0.169 F 
HETATM   25  F   UNL     1      43.324 -13.672   6.633  1.00  0.00    -0.169 F 
ENDBRANCH   8  22
BRANCH   1  26
HETATM   26  C   UNL     1      43.641 -17.726   5.118  1.00  0.00    -0.035 A 
HETATM   27  C   UNL     1      44.069 -18.509   4.036  1.00  0.00     0.012 A 
HETATM   28  C   UNL     1      44.428 -19.851   4.220  1.00  0.00     0.037 A 
HETATM   29  C   UNL     1      44.366 -20.429   5.488  1.00  0.00     0.068 A 
HETATM   30  C   UNL     1      43.931 -19.660   6.567  1.00  0.00     0.037 A 
HETATM   31  C   UNL     1      43.574 -18.323   6.388  1.00  0.00     0.012 A 
BRANCH  29  32
HETATM   32  O   UNL     1      44.689 -21.719   5.804  1.00  0.00    -0.356 OA
HETATM   33  C   UNL     1      44.832 -22.630   4.722  1.00  0.00     0.210 C 
ENDBRANCH  29  32
ENDBRANCH   1  26
TORSDOF 6
ENDMDL
MODEL 9
REMARK VINA RESULT:      -8.2      4.544      7.635
REMARK  6 active torsions:
REMARK  status: ('A' for Active; 'I' for Inactive)
REMARK    1  A    between atoms: O_2  and  C_3 
REMARK    2  A    between atoms: C_6  and  C_7 
REMARK    3  A    between atoms: C_12  and  C_13 
REMARK       I    between atoms: C_13  and  N_14 
REMARK    4  A    between atoms: N_14  and  C_15 
REMARK    5  A    between atoms: C_15  and  C_16 
REMARK    6  A    between atoms: C_24  and  C_25 
ROOT
HETATM    1  C   UNL     1      42.586 -16.515   4.284  1.00  0.00     0.118 C 
HETATM    2  N   UNL     1      43.183 -15.433   3.504  1.00  0.00    -0.366 N 
HETATM    3  C   UNL     1      42.467 -14.387   3.048  1.00  0.00     0.123 A 
HETATM    4  N   UNL     1      41.160 -14.211   3.403  1.00  0.00    -0.240 N 
HETATM    5  N   UNL     1      40.552 -13.188   2.780  1.00  0.00    -0.165 NA
HETATM    6  C   UNL     1      41.546 -12.637   2.043  1.00  0.00     0.148 A 
HETATM    7  C   UNL     1      42.766 -13.354   2.201  1.00  0.00     0.088 A 
HETATM    8  C   UNL     1      40.448 -15.116   4.284  1.00  0.00     0.221 C 
HETATM    9  C   UNL     1      41.048 -16.524   4.146  1.00  0.00     0.066 C 
HETATM   10  H   UNL     1      44.169 -15.545   3.272  1.00  0.00     0.161 HD
ENDROOT
BRANCH   6  11
HETATM   11  C   UNL     1      41.332 -11.460   1.190  1.00  0.00     0.272 C 
HETATM   12  N   UNL     1      42.453 -11.086   0.489  1.00  0.00    -0.351 N 
HETATM   13  H   UNL     1      43.300 -11.614   0.682  1.00  0.00     0.163 HD
HETATM   14  O   UNL     1      40.254 -10.878   1.119  1.00  0.00    -0.266 OA
BRANCH  12  15
HETATM   15  C   UNL     1      42.484  -9.948  -0.390  1.00  0.00     0.161 C 
BRANCH  15  16
HETATM   16  C   UNL     1      42.499 -10.355  -1.841  1.00  0.00    -0.041 A 
HETATM   17  C   UNL     1      42.438 -11.707  -2.215  1.00  0.00     0.009 A 
HETATM   18  C   UNL     1      42.414 -12.074  -3.560  1.00  0.00     0.001 A 
HETATM   19  C   UNL     1      42.431 -11.094  -4.550  1.00  0.00     0.000 A 
HETATM   20  C   UNL     1      42.471  -9.747  -4.194  1.00  0.00     0.001 A 
HETATM   21  C   UNL     1      42.502  -9.379  -2.848  1.00  0.00     0.009 A 
ENDBRANCH  15  16
ENDBRANCH  12  15
ENDBRANCH   6  11
BRANCH   8  22
HETATM   22  C   UNL     1      40.489 -14.600   5.703  1.00  0.00     0.409 C 
HETATM   23  F   UNL     1      39.452 -13.782   5.987  1.00  0.00    -0.169 F 
HETATM   24  F   UNL     1      40.404 -15.643   6.571  1.00  0.00    -0.169 F 
HETATM   25  F   UNL     1      41.628 -13.942   6.005  1.00  0.00    -0.169 F 
ENDBRANCH   8  22
BRANCH   1  26
HETATM   26  C   UNL     1      43.174 -17.838   3.824  1.00  0.00    -0.035 A 
HETATM   27  C   UNL     1      44.044 -18.560   4.654  1.00  0.00     0.012 A 
HETATM   28  C   UNL     1      44.581 -19.785   4.237  1.00  0.00     0.037 A 
HETATM   29  C   UNL     1      44.254 -20.307   2.986  1.00  0.00     0.068 A 
HETATM   30  C   UNL     1      43.398 -19.590   2.151  1.00  0.00     0.037 A 
HETATM   31  C   UNL     1      42.861 -18.370   2.563  1.00  0.00     0.012 A 
BRANCH  29  32
HETATM   32  O   UNL     1      44.703 -21.487   2.461  1.00  0.00    -0.356 OA
HETATM   33  C   UNL     1      44.597 -22.640   3.286  1.00  0.00     0.210 C 
ENDBRANCH  29  32
ENDBRANCH   1  26
TORSDOF 6
ENDMDL
MODEL 10
REMARK VINA RESULT:      -8.1      3.257      4.397
REMARK  6 active torsions:
REMARK  status: ('A' for Active; 'I' for Inactive)
REMARK    1  A    between atoms: O_2  and  C_3 
REMARK    2  A    between atoms: C_6  and  C_7 
REMARK    3  A    between atoms: C_12  and  C_13 
REMARK       I    between atoms: C_13  and  N_14 
REMARK    4  A    between atoms: N_14  and  C_15 
REMARK    5  A    between atoms: C_15  and  C_16 
REMARK    6  A    between atoms: C_24  and  C_25 
ROOT
HETATM    1  C   UNL     1      42.509 -16.106   4.001  1.00  0.00     0.118 C 
HETATM    2  N   UNL     1      43.466 -15.039   4.286  1.00  0.00    -0.366 N 
HETATM    3  C   UNL     1      43.855 -14.729   5.538  1.00  0.00     0.123 A 
HETATM    4  N   UNL     1      43.475 -15.486   6.609  1.00  0.00    -0.240 N 
HETATM    5  N   UNL     1      43.848 -14.985   7.799  1.00  0.00    -0.165 NA
HETATM    6  C   UNL     1      44.569 -13.889   7.463  1.00  0.00     0.148 A 
HETATM    7  C   UNL     1      44.609 -13.708   6.051  1.00  0.00     0.088 A 
HETATM    8  C   UNL     1      42.637 -16.664   6.491  1.00  0.00     0.221 C 
HETATM    9  C   UNL     1      41.721 -16.506   5.267  1.00  0.00     0.066 C 
HETATM   10  H   UNL     1      43.781 -14.499   3.481  1.00  0.00     0.161 HD
ENDROOT
BRANCH   6  11
HETATM   11  C   UNL     1      45.193 -13.021   8.470  1.00  0.00     0.272 C 
HETATM   12  N   UNL     1      44.404 -12.818   9.577  1.00  0.00    -0.351 N 
HETATM   13  H   UNL     1      43.476 -13.231   9.548  1.00  0.00     0.163 HD
HETATM   14  O   UNL     1      46.309 -12.531   8.326  1.00  0.00    -0.266 OA
BRANCH  12  15
HETATM   15  C   UNL     1      44.800 -11.984  10.680  1.00  0.00     0.161 C 
BRANCH  15  16
HETATM   16  C   UNL     1      43.822 -10.861  10.918  1.00  0.00    -0.041 A 
HETATM   17  C   UNL     1      42.838 -10.544   9.968  1.00  0.00     0.009 A 
HETATM   18  C   UNL     1      41.913  -9.529  10.212  1.00  0.00     0.001 A 
HETATM   19  C   UNL     1      41.946  -8.832  11.418  1.00  0.00     0.000 A 
HETATM   20  C   UNL     1      42.904  -9.150  12.379  1.00  0.00     0.001 A 
HETATM   21  C   UNL     1      43.835 -10.161  12.133  1.00  0.00     0.009 A 
ENDBRANCH  15  16
ENDBRANCH  12  15
ENDBRANCH   6  11
BRANCH   8  22
HETATM   22  C   UNL     1      43.495 -17.905   6.423  1.00  0.00     0.409 C 
HETATM   23  F   UNL     1      44.755 -17.643   6.012  1.00  0.00    -0.169 F 
HETATM   24  F   UNL     1      43.603 -18.455   7.663  1.00  0.00    -0.169 F 
HETATM   25  F   UNL     1      42.991 -18.867   5.622  1.00  0.00    -0.169 F 
ENDBRANCH   8  22
BRANCH   1  26
HETATM   26  C   UNL     1      41.565 -15.642   2.905  1.00  0.00    -0.035 A 
HETATM   27  C   UNL     1      40.219 -15.368   3.190  1.00  0.00     0.012 A 
HETATM   28  C   UNL     1      39.348 -14.931   2.182  1.00  0.00     0.037 A 
HETATM   29  C   UNL     1      39.811 -14.760   0.878  1.00  0.00     0.068 A 
HETATM   30  C   UNL     1      41.145 -15.040   0.585  1.00  0.00     0.037 A 
HETATM   31  C   UNL     1      42.015 -15.474   1.586  1.00  0.00     0.012 A 
BRANCH  29  32
HETATM   32  O   UNL     1      39.071 -14.338  -0.192  1.00  0.00    -0.356 OA
HETATM   33  C   UNL     1      39.787 -13.959  -1.360  1.00  0.00     0.210 C 
ENDBRANCH  29  32
ENDBRANCH   1  26
TORSDOF 6
ENDMDL
