MODEL 1
REMARK VINA RESULT:      -8.5      0.000      0.000
REMARK  4 active torsions:
REMARK  status: ('A' for Active; 'I' for Inactive)
REMARK    1  A    between atoms: C_9  and  C_10 
REMARK       I    between atoms: C_10  and  N_11 
REMARK    2  A    between atoms: N_11  and  C_12 
REMARK    3  A    between atoms: C_12  and  C_13 
REMARK    4  A    between atoms: C_14  and  O_15 
ROOT
HETATM    1  C   UNL     1      41.395 -16.391   3.490  1.00  0.00     0.273 C 
HETATM    2  N   UNL     1      42.747 -16.203   3.328  1.00  0.00    -0.347 N 
HETATM    3  O   UNL     1      40.727 -17.208   2.863  1.00  0.00    -0.266 OA
HETATM    4  H   UNL     1      43.158 -15.557   3.998  1.00  0.00     0.163 HD
ENDROOT
BRANCH   1   5
HETATM    5  C   UNL     1      40.816 -15.518   4.526  1.00  0.00     0.157 A 
HETATM    6  C   UNL     1      40.188 -14.251   4.336  1.00  0.00     0.029 A 
HETATM    7  C   UNL     1      39.903 -13.414   3.239  1.00  0.00     0.023 A 
HETATM    8  C   UNL     1      39.807 -13.841   5.607  1.00  0.00     0.063 A 
HETATM    9  C   UNL     1      39.244 -12.192   3.452  1.00  0.00    -0.061 A 
HETATM   10  C   UNL     1      38.933 -11.284   2.297  1.00  0.00     0.048 C 
HETATM   11  C   UNL     1      38.875 -11.817   4.751  1.00  0.00     0.009 A 
HETATM   12  C   UNL     1      39.148 -12.633   5.855  1.00  0.00     0.032 A 
HETATM   13  N   UNL     1      40.212 -14.843   6.445  1.00  0.00    -0.277 N 
HETATM   14  H   UNL     1      40.097 -14.882   7.451  1.00  0.00     0.189 HD
HETATM   15  N   UNL     1      40.823 -15.871   5.832  1.00  0.00    -0.168 NA
ENDBRANCH   1   5
BRANCH   2  16
HETATM   16  C   UNL     1      43.652 -16.972   2.484  1.00  0.00     0.116 C 
HETATM   17  C   UNL     1      43.264 -17.003   1.005  1.00  0.00     0.037 C 
BRANCH  16  18
HETATM   18  C   UNL     1      43.936 -18.371   3.018  1.00  0.00    -0.002 A 
HETATM   19  C   UNL     1      44.270 -18.563   4.376  1.00  0.00     0.076 A 
HETATM   20  C   UNL     1      44.541 -19.851   4.851  1.00  0.00     0.038 A 
HETATM   21  C   UNL     1      44.504 -20.951   3.990  1.00  0.00     0.009 A 
HETATM   22  C   UNL     1      44.201 -20.779   2.640  1.00  0.00    -0.061 A 
HETATM   23  C   UNL     1      44.171 -21.946   1.698  1.00  0.00     0.048 C 
HETATM   24  C   UNL     1      43.930 -19.491   2.163  1.00  0.00     0.018 A 
BRANCH  19  25
HETATM   25  O   UNL     1      44.300 -17.434   5.154  1.00  0.00    -0.355 OA
HETATM   26  C   UNL     1      44.088 -17.595   6.551  1.00  0.00     0.210 C 
ENDBRANCH  19  25
ENDBRANCH  16  18
ENDBRANCH   2  16
TORSDOF 4
ENDMDL
MODEL 2
REMARK VINA RESULT:      -8.3      4.429      5.720
REMARK  4 active torsions:
REMARK  status: ('A' for Active; 'I' for Inactive)
REMARK    1  A    between atoms: C_9  and  C_10 
REMARK       I    between atoms: C_10  and  N_11 
REMARK    2  A    between atoms: N_11  and  C_12 
REMARK    3  A    between atoms: C_12  and  C_13 
REMARK    4  A    between atoms: C_14  and  O_15 
ROOT
HETATM    1  C   UNL     1      43.784 -14.316   6.645  1.00  0.00     0.273 C 
HETATM    2  N   UNL     1      44.043 -15.665   6.713  1.00  0.00    -0.347 N 
HETATM    3  O   UNL     1      42.733 -13.831   6.240  1.00  0.00    -0.266 OA
HETATM    4  H   UNL     1      44.924 -15.895   7.165  1.00  0.00     0.163 HD
ENDROOT
BRANCH   1   5
HETATM    5  C   UNL     1      44.904 -13.494   7.136  1.00  0.00     0.157 A 
HETATM    6  C   UNL     1      44.940 -12.704   8.323  1.00  0.00     0.029 A 
HETATM    7  C   UNL     1      44.049 -12.409   9.374  1.00  0.00     0.023 A 
HETATM    8  C   UNL     1      46.208 -12.137   8.342  1.00  0.00     0.063 A 
HETATM    9  C   UNL     1      44.458 -11.555  10.411  1.00  0.00    -0.061 A 
HETATM   10  C   UNL     1      43.523 -11.225  11.539  1.00  0.00     0.048 C 
HETATM   11  C   UNL     1      45.747 -11.005  10.392  1.00  0.00     0.009 A 
HETATM   12  C   UNL     1      46.649 -11.284   9.358  1.00  0.00     0.032 A 
HETATM   13  N   UNL     1      46.828 -12.601   7.215  1.00  0.00    -0.277 N 
HETATM   14  H   UNL     1      47.769 -12.392   6.904  1.00  0.00     0.189 HD
HETATM   15  N   UNL     1      46.075 -13.422   6.462  1.00  0.00    -0.168 NA
ENDBRANCH   1   5
BRANCH   2  16
HETATM   16  C   UNL     1      43.123 -16.757   6.425  1.00  0.00     0.116 C 
HETATM   17  C   UNL     1      42.760 -17.616   7.637  1.00  0.00     0.037 C 
BRANCH  16  18
HETATM   18  C   UNL     1      43.551 -17.613   5.239  1.00  0.00    -0.002 A 
HETATM   19  C   UNL     1      43.350 -17.156   3.918  1.00  0.00     0.076 A 
HETATM   20  C   UNL     1      43.737 -17.958   2.838  1.00  0.00     0.038 A 
HETATM   21  C   UNL     1      44.304 -19.216   3.051  1.00  0.00     0.009 A 
HETATM   22  C   UNL     1      44.487 -19.697   4.347  1.00  0.00    -0.061 A 
HETATM   23  C   UNL     1      45.080 -21.052   4.595  1.00  0.00     0.048 C 
HETATM   24  C   UNL     1      44.100 -18.896   5.429  1.00  0.00     0.018 A 
BRANCH  19  25
HETATM   25  O   UNL     1      42.776 -15.917   3.790  1.00  0.00    -0.355 OA
HETATM   26  C   UNL     1      43.435 -14.972   2.957  1.00  0.00     0.210 C 
ENDBRANCH  19  25
ENDBRANCH  16  18
ENDBRANCH   2  16
TORSDOF 4
ENDMDL
MODEL 3
REMARK VINA RESULT:      -8.0      2.130      6.792
REMARK  4 active torsions:
REMARK  status: ('A' for Active; 'I' for Inactive)
REMARK    1  A    between atoms: C_9  and  C_10 
REMARK       I    between atoms: C_10  and  N_11 
REMARK    2  A    between atoms: N_11  and  C_12 
REMARK    3  A    between atoms: C_12  and  C_13 
REMARK    4  A    between atoms: C_14  and  O_15 
ROOT
HETATM    1  C   UNL     1      43.365 -16.349   6.071  1.00  0.00     0.273 C 
HETATM    2  N   UNL     1      42.289 -16.203   5.227  1.00  0.00    -0.347 N 
HETATM    3  O   UNL     1      44.106 -15.434   6.415  1.00  0.00    -0.266 OA
HETATM    4  H   UNL     1      41.725 -17.043   5.127  1.00  0.00     0.163 HD
ENDROOT
BRANCH   1   5
HETATM    5  C   UNL     1      43.531 -17.732   6.551  1.00  0.00     0.157 A 
HETATM    6  C   UNL     1      43.891 -18.876   5.779  1.00  0.00     0.029 A 
HETATM    7  C   UNL     1      44.188 -19.136   4.426  1.00  0.00     0.023 A 
HETATM    8  C   UNL     1      43.926 -19.928   6.685  1.00  0.00     0.063 A 
HETATM    9  C   UNL     1      44.511 -20.443   4.026  1.00  0.00    -0.061 A 
HETATM   10  C   UNL     1      44.829 -20.743   2.589  1.00  0.00     0.048 C 
HETATM   11  C   UNL     1      44.537 -21.475   4.974  1.00  0.00     0.009 A 
HETATM   12  C   UNL     1      44.245 -21.240   6.323  1.00  0.00     0.032 A 
HETATM   13  N   UNL     1      43.599 -19.375   7.893  1.00  0.00    -0.277 N 
HETATM   14  H   UNL     1      43.528 -19.850   8.784  1.00  0.00     0.189 HD
HETATM   15  N   UNL     1      43.355 -18.053   7.853  1.00  0.00    -0.168 NA
ENDBRANCH   1   5
BRANCH   2  16
HETATM   16  C   UNL     1      41.766 -14.963   4.667  1.00  0.00     0.116 C 
HETATM   17  C   UNL     1      40.747 -14.249   5.555  1.00  0.00     0.037 C 
BRANCH  16  18
HETATM   18  C   UNL     1      41.260 -15.110   3.237  1.00  0.00    -0.002 A 
HETATM   19  C   UNL     1      42.113 -15.598   2.224  1.00  0.00     0.076 A 
HETATM   20  C   UNL     1      41.639 -15.717   0.912  1.00  0.00     0.038 A 
HETATM   21  C   UNL     1      40.334 -15.339   0.589  1.00  0.00     0.009 A 
HETATM   22  C   UNL     1      39.484 -14.831   1.570  1.00  0.00    -0.061 A 
HETATM   23  C   UNL     1      38.083 -14.406   1.240  1.00  0.00     0.048 C 
HETATM   24  C   UNL     1      39.956 -14.711   2.883  1.00  0.00     0.018 A 
BRANCH  19  25
HETATM   25  O   UNL     1      43.384 -15.935   2.616  1.00  0.00    -0.355 OA
HETATM   26  C   UNL     1      44.092 -16.870   1.812  1.00  0.00     0.210 C 
ENDBRANCH  19  25
ENDBRANCH  16  18
ENDBRANCH   2  16
TORSDOF 4
ENDMDL
MODEL 4
REMARK VINA RESULT:      -8.0      2.931      7.317
REMARK  4 active torsions:
REMARK  status: ('A' for Active; 'I' for Inactive)
REMARK    1  A    between atoms: C_9  and  C_10 
REMARK       I    between atoms: C_10  and  N_11 
REMARK    2  A    between atoms: N_11  and  C_12 
REMARK    3  A    between atoms: C_12  and  C_13 
REMARK    4  A    between atoms: C_14  and  O_15 
ROOT
HETATM    1  C   UNL     1      41.337 -16.759   2.086  1.00  0.00     0.273 C 
HETATM    2  N   UNL     1      41.823 -15.772   1.261  1.00  0.00    -0.347 N 
HETATM    3  O   UNL     1      40.195 -17.205   2.037  1.00  0.00    -0.266 OA
HETATM    4  H   UNL     1      42.818 -15.593   1.373  1.00  0.00     0.163 HD
ENDROOT
BRANCH   1   5
HETATM    5  C   UNL     1      42.345 -17.256   3.039  1.00  0.00     0.157 A 
HETATM    6  C   UNL     1      43.061 -18.487   2.975  1.00  0.00     0.029 A 
HETATM    7  C   UNL     1      43.100 -19.595   2.105  1.00  0.00     0.023 A 
HETATM    8  C   UNL     1      43.891 -18.482   4.088  1.00  0.00     0.063 A 
HETATM    9  C   UNL     1      43.970 -20.663   2.380  1.00  0.00    -0.061 A 
HETATM   10  C   UNL     1      44.025 -21.855   1.468  1.00  0.00     0.048 C 
HETATM   11  C   UNL     1      44.792 -20.617   3.515  1.00  0.00     0.009 A 
HETATM   12  C   UNL     1      44.770 -19.526   4.392  1.00  0.00     0.032 A 
HETATM   13  N   UNL     1      43.633 -17.300   4.726  1.00  0.00    -0.277 N 
HETATM   14  H   UNL     1      44.059 -16.959   5.579  1.00  0.00     0.189 HD
HETATM   15  N   UNL     1      42.707 -16.532   4.124  1.00  0.00    -0.168 NA
ENDBRANCH   1   5
BRANCH   2  16
HETATM   16  C   UNL     1      41.142 -15.146   0.135  1.00  0.00     0.116 C 
HETATM   17  C   UNL     1      41.143 -15.979  -1.147  1.00  0.00     0.037 C 
BRANCH  16  18
HETATM   18  C   UNL     1      41.594 -13.714  -0.125  1.00  0.00    -0.002 A 
HETATM   19  C   UNL     1      41.618 -12.770   0.924  1.00  0.00     0.076 A 
HETATM   20  C   UNL     1      42.023 -11.455   0.669  1.00  0.00     0.038 A 
HETATM   21  C   UNL     1      42.387 -11.059  -0.621  1.00  0.00     0.009 A 
HETATM   22  C   UNL     1      42.345 -11.969  -1.676  1.00  0.00    -0.061 A 
HETATM   23  C   UNL     1      42.718 -11.559  -3.070  1.00  0.00     0.048 C 
HETATM   24  C   UNL     1      41.940 -13.286  -1.422  1.00  0.00     0.018 A 
BRANCH  19  25
HETATM   25  O   UNL     1      41.234 -13.231   2.158  1.00  0.00    -0.355 OA
HETATM   26  C   UNL     1      42.016 -12.836   3.278  1.00  0.00     0.210 C 
ENDBRANCH  19  25
ENDBRANCH  16  18
ENDBRANCH   2  16
TORSDOF 4
ENDMDL
MODEL 5
REMARK VINA RESULT:      -7.8      2.743      7.134
REMARK  4 active torsions:
REMARK  status: ('A' for Active; 'I' for Inactive)
REMARK    1  A    between atoms: C_9  and  C_10 
REMARK       I    between atoms: C_10  and  N_11 
REMARK    2  A    between atoms: N_11  and  C_12 
REMARK    3  A    between atoms: C_12  and  C_13 
REMARK    4  A    between atoms: C_14  and  O_15 
ROOT
HETATM    1  C   UNL     1      41.442 -16.794   2.388  1.00  0.00     0.273 C 
HETATM    2  N   UNL     1      41.115 -15.492   2.688  1.00  0.00    -0.347 N 
HETATM    3  O   UNL     1      40.979 -17.427   1.445  1.00  0.00    -0.266 OA
HETATM    4  H   UNL     1      41.666 -15.091   3.442  1.00  0.00     0.163 HD
ENDROOT
BRANCH   1   5
HETATM    5  C   UNL     1      42.440 -17.360   3.313  1.00  0.00     0.157 A 
HETATM    6  C   UNL     1      43.144 -18.593   3.176  1.00  0.00     0.029 A 
HETATM    7  C   UNL     1      43.175 -19.646   2.240  1.00  0.00     0.023 A 
HETATM    8  C   UNL     1      43.968 -18.666   4.292  1.00  0.00     0.063 A 
HETATM    9  C   UNL     1      44.032 -20.738   2.452  1.00  0.00    -0.061 A 
HETATM   10  C   UNL     1      44.079 -21.871   1.469  1.00  0.00     0.048 C 
HETATM   11  C   UNL     1      44.848 -20.771   3.592  1.00  0.00     0.009 A 
HETATM   12  C   UNL     1      44.833 -19.736   4.535  1.00  0.00     0.032 A 
HETATM   13  N   UNL     1      43.718 -17.523   5.000  1.00  0.00    -0.277 N 
HETATM   14  H   UNL     1      44.143 -17.239   5.874  1.00  0.00     0.189 HD
HETATM   15  N   UNL     1      42.804 -16.709   4.442  1.00  0.00    -0.168 NA
ENDBRANCH   1   5
BRANCH   2  16
HETATM   16  C   UNL     1      40.261 -14.597   1.919  1.00  0.00     0.116 C 
HETATM   17  C   UNL     1      38.836 -15.111   1.705  1.00  0.00     0.037 C 
BRANCH  16  18
HETATM   18  C   UNL     1      40.891 -14.131   0.612  1.00  0.00    -0.002 A 
HETATM   19  C   UNL     1      41.674 -12.957   0.575  1.00  0.00     0.076 A 
HETATM   20  C   UNL     1      42.238 -12.534  -0.634  1.00  0.00     0.038 A 
HETATM   21  C   UNL     1      42.018 -13.251  -1.812  1.00  0.00     0.009 A 
HETATM   22  C   UNL     1      41.228 -14.399  -1.802  1.00  0.00    -0.061 A 
HETATM   23  C   UNL     1      40.969 -15.174  -3.060  1.00  0.00     0.048 C 
HETATM   24  C   UNL     1      40.663 -14.824  -0.593  1.00  0.00     0.018 A 
BRANCH  19  25
HETATM   25  O   UNL     1      41.832 -12.300   1.769  1.00  0.00    -0.355 OA
HETATM   26  C   UNL     1      41.091 -11.101   1.960  1.00  0.00     0.210 C 
ENDBRANCH  19  25
ENDBRANCH  16  18
ENDBRANCH   2  16
TORSDOF 4
ENDMDL
MODEL 6
REMARK VINA RESULT:      -7.6      2.136      7.527
REMARK  4 active torsions:
REMARK  status: ('A' for Active; 'I' for Inactive)
REMARK    1  A    between atoms: C_9  and  C_10 
REMARK       I    between atoms: C_10  and  N_11 
REMARK    2  A    between atoms: N_11  and  C_12 
REMARK    3  A    between atoms: C_12  and  C_13 
REMARK    4  A    between atoms: C_14  and  O_15 
ROOT
HETATM    1  C   UNL     1      41.437 -16.938   1.789  1.00  0.00     0.273 C 
HETATM    2  N   UNL     1      41.371 -15.568   1.693  1.00  0.00    -0.347 N 
HETATM    3  O   UNL     1      40.832 -17.715   1.057  1.00  0.00    -0.266 OA
HETATM    4  H   UNL     1      42.012 -15.079   2.313  1.00  0.00     0.163 HD
ENDROOT
BRANCH   1   5
HETATM    5  C   UNL     1      42.339 -17.393   2.861  1.00  0.00     0.157 A 
HETATM    6  C   UNL     1      43.081 -18.611   2.907  1.00  0.00     0.029 A 
HETATM    7  C   UNL     1      43.238 -19.736   2.073  1.00  0.00     0.023 A 
HETATM    8  C   UNL     1      43.779 -18.564   4.106  1.00  0.00     0.063 A 
HETATM    9  C   UNL     1      44.091 -20.779   2.470  1.00  0.00    -0.061 A 
HETATM   10  C   UNL     1      44.270 -21.989   1.598  1.00  0.00     0.048 C 
HETATM   11  C   UNL     1      44.778 -20.692   3.689  1.00  0.00     0.009 A 
HETATM   12  C   UNL     1      44.637 -19.583   4.532  1.00  0.00     0.032 A 
HETATM   13  N   UNL     1      43.429 -17.375   4.683  1.00  0.00    -0.277 N 
HETATM   14  H   UNL     1      43.749 -17.006   5.570  1.00  0.00     0.189 HD
HETATM   15  N   UNL     1      42.563 -16.639   3.962  1.00  0.00    -0.168 NA
ENDBRANCH   1   5
BRANCH   2  16
HETATM   16  C   UNL     1      40.676 -14.785   0.680  1.00  0.00     0.116 C 
HETATM   17  C   UNL     1      41.571 -14.276  -0.451  1.00  0.00     0.037 C 
BRANCH  16  18
HETATM   18  C   UNL     1      39.816 -13.669   1.260  1.00  0.00    -0.002 A 
HETATM   19  C   UNL     1      40.214 -13.000   2.438  1.00  0.00     0.076 A 
HETATM   20  C   UNL     1      39.409 -11.985   2.968  1.00  0.00     0.038 A 
HETATM   21  C   UNL     1      38.204 -11.637   2.353  1.00  0.00     0.009 A 
HETATM   22  C   UNL     1      37.781 -12.302   1.203  1.00  0.00    -0.061 A 
HETATM   23  C   UNL     1      36.483 -11.952   0.537  1.00  0.00     0.048 C 
HETATM   24  C   UNL     1      38.585 -13.319   0.672  1.00  0.00     0.018 A 
BRANCH  19  25
HETATM   25  O   UNL     1      41.401 -13.408   2.991  1.00  0.00    -0.355 OA
HETATM   26  C   UNL     1      41.988 -12.567   3.977  1.00  0.00     0.210 C 
ENDBRANCH  19  25
ENDBRANCH  16  18
ENDBRANCH   2  16
TORSDOF 4
ENDMDL
MODEL 7
REMARK VINA RESULT:      -7.5      3.478      5.514
REMARK  4 active torsions:
REMARK  status: ('A' for Active; 'I' for Inactive)
REMARK    1  A    between atoms: C_9  and  C_10 
REMARK       I    between atoms: C_10  and  N_11 
REMARK    2  A    between atoms: N_11  and  C_12 
REMARK    3  A    between atoms: C_12  and  C_13 
REMARK    4  A    between atoms: C_14  and  O_15 
ROOT
HETATM    1  C   UNL     1      41.132 -13.575   1.963  1.00  0.00     0.273 C 
HETATM    2  N   UNL     1      42.079 -14.228   2.717  1.00  0.00    -0.347 N 
HETATM    3  O   UNL     1      39.961 -13.428   2.296  1.00  0.00    -0.266 OA
HETATM    4  H   UNL     1      43.021 -14.172   2.338  1.00  0.00     0.163 HD
ENDROOT
BRANCH   1   5
HETATM    5  C   UNL     1      41.676 -13.039   0.703  1.00  0.00     0.157 A 
HETATM    6  C   UNL     1      41.508 -13.577  -0.608  1.00  0.00     0.029 A 
HETATM    7  C   UNL     1      40.854 -14.690  -1.173  1.00  0.00     0.023 A 
HETATM    8  C   UNL     1      42.199 -12.710  -1.445  1.00  0.00     0.063 A 
HETATM    9  C   UNL     1      40.914 -14.897  -2.561  1.00  0.00    -0.061 A 
HETATM   10  C   UNL     1      40.226 -16.079  -3.183  1.00  0.00     0.048 C 
HETATM   11  C   UNL     1      41.621 -13.998  -3.370  1.00  0.00     0.009 A 
HETATM   12  C   UNL     1      42.277 -12.886  -2.830  1.00  0.00     0.032 A 
HETATM   13  N   UNL     1      42.717 -11.749  -0.622  1.00  0.00    -0.277 N 
HETATM   14  H   UNL     1      43.280 -10.951  -0.892  1.00  0.00     0.189 HD
HETATM   15  N   UNL     1      42.423 -11.911   0.680  1.00  0.00    -0.168 NA
ENDBRANCH   1   5
BRANCH   2  16
HETATM   16  C   UNL     1      41.918 -14.771   4.060  1.00  0.00     0.116 C 
HETATM   17  C   UNL     1      42.351 -13.826   5.181  1.00  0.00     0.037 C 
BRANCH  16  18
HETATM   18  C   UNL     1      42.527 -16.158   4.230  1.00  0.00    -0.002 A 
HETATM   19  C   UNL     1      42.089 -17.234   3.427  1.00  0.00     0.076 A 
HETATM   20  C   UNL     1      42.648 -18.505   3.601  1.00  0.00     0.038 A 
HETATM   21  C   UNL     1      43.624 -18.727   4.576  1.00  0.00     0.009 A 
HETATM   22  C   UNL     1      44.052 -17.684   5.395  1.00  0.00    -0.061 A 
HETATM   23  C   UNL     1      45.089 -17.906   6.457  1.00  0.00     0.048 C 
HETATM   24  C   UNL     1      43.494 -16.411   5.223  1.00  0.00     0.018 A 
BRANCH  19  25
HETATM   25  O   UNL     1      41.118 -16.940   2.504  1.00  0.00    -0.355 OA
HETATM   26  C   UNL     1      41.234 -17.538   1.218  1.00  0.00     0.210 C 
ENDBRANCH  19  25
ENDBRANCH  16  18
ENDBRANCH   2  16
TORSDOF 4
ENDMDL
MODEL 8
REMARK VINA RESULT:      -7.5      2.278      7.833
REMARK  4 active torsions:
REMARK  status: ('A' for Active; 'I' for Inactive)
REMARK    1  A    between atoms: C_9  and  C_10 
REMARK       I    between atoms: C_10  and  N_11 
REMARK    2  A    between atoms: N_11  and  C_12 
REMARK    3  A    between atoms: C_12  and  C_13 
REMARK    4  A    between atoms: C_14  and  O_15 
ROOT
HETATM    1  C   UNL     1      41.181 -16.676   2.044  1.00  0.00     0.273 C 
HETATM    2  N   UNL     1      41.476 -15.432   1.537  1.00  0.00    -0.347 N 
HETATM    3  O   UNL     1      40.227 -17.361   1.692  1.00  0.00    -0.266 OA
HETATM    4  H   UNL     1      42.357 -15.049   1.868  1.00  0.00     0.163 HD
ENDROOT
BRANCH   1   5
HETATM    5  C   UNL     1      42.155 -17.127   3.054  1.00  0.00     0.157 A 
HETATM    6  C   UNL     1      42.911 -18.336   3.047  1.00  0.00     0.029 A 
HETATM    7  C   UNL     1      43.027 -19.455   2.199  1.00  0.00     0.023 A 
HETATM    8  C   UNL     1      43.683 -18.288   4.200  1.00  0.00     0.063 A 
HETATM    9  C   UNL     1      43.915 -20.491   2.536  1.00  0.00    -0.061 A 
HETATM   10  C   UNL     1      44.052 -21.694   1.648  1.00  0.00     0.048 C 
HETATM   11  C   UNL     1      44.676 -20.402   3.709  1.00  0.00     0.009 A 
HETATM   12  C   UNL     1      44.576 -19.299   4.566  1.00  0.00     0.032 A 
HETATM   13  N   UNL     1      43.356 -17.105   4.804  1.00  0.00    -0.277 N 
HETATM   14  H   UNL     1      43.728 -16.737   5.671  1.00  0.00     0.189 HD
HETATM   15  N   UNL     1      42.439 -16.376   4.143  1.00  0.00    -0.168 NA
ENDBRANCH   1   5
BRANCH   2  16
HETATM   16  C   UNL     1      40.801 -14.740   0.447  1.00  0.00     0.116 C 
HETATM   17  C   UNL     1      41.740 -14.071  -0.557  1.00  0.00     0.037 C 
BRANCH  16  18
HETATM   18  C   UNL     1      39.712 -13.784   0.920  1.00  0.00    -0.002 A 
HETATM   19  C   UNL     1      38.596 -13.510   0.101  1.00  0.00     0.076 A 
HETATM   20  C   UNL     1      37.609 -12.621   0.542  1.00  0.00     0.038 A 
HETATM   21  C   UNL     1      37.726 -11.984   1.780  1.00  0.00     0.009 A 
HETATM   22  C   UNL     1      38.833 -12.221   2.593  1.00  0.00    -0.061 A 
HETATM   23  C   UNL     1      38.984 -11.535   3.918  1.00  0.00     0.048 C 
HETATM   24  C   UNL     1      39.822 -13.110   2.153  1.00  0.00     0.018 A 
BRANCH  19  25
HETATM   25  O   UNL     1      38.559 -14.163  -1.105  1.00  0.00    -0.355 OA
HETATM   26  C   UNL     1      38.136 -13.419  -2.241  1.00  0.00     0.210 C 
ENDBRANCH  19  25
ENDBRANCH  16  18
ENDBRANCH   2  16
TORSDOF 4
ENDMDL
MODEL 9
REMARK VINA RESULT:      -7.5      3.833      7.338
REMARK  4 active torsions:
REMARK  status: ('A' for Active; 'I' for Inactive)
REMARK    1  A    between atoms: C_9  and  C_10 
REMARK       I    between atoms: C_10  and  N_11 
REMARK    2  A    between atoms: N_11  and  C_12 
REMARK    3  A    between atoms: C_12  and  C_13 
REMARK    4  A    between atoms: C_14  and  O_15 
ROOT
HETATM    1  C   UNL     1      41.471 -16.239   0.827  1.00  0.00     0.273 C 
HETATM    2  N   UNL     1      41.928 -15.570  -0.284  1.00  0.00    -0.347 N 
HETATM    3  O   UNL     1      40.308 -16.219   1.219  1.00  0.00    -0.266 OA
HETATM    4  H   UNL     1      42.895 -15.775  -0.521  1.00  0.00     0.163 HD
ENDROOT
BRANCH   1   5
HETATM    5  C   UNL     1      42.526 -17.015   1.502  1.00  0.00     0.157 A 
HETATM    6  C   UNL     1      42.638 -17.289   2.897  1.00  0.00     0.029 A 
HETATM    7  C   UNL     1      41.902 -16.974   4.056  1.00  0.00     0.023 A 
HETATM    8  C   UNL     1      43.787 -18.059   3.023  1.00  0.00     0.063 A 
HETATM    9  C   UNL     1      42.341 -17.443   5.306  1.00  0.00    -0.061 A 
HETATM   10  C   UNL     1      41.573 -17.116   6.554  1.00  0.00     0.048 C 
HETATM   11  C   UNL     1      43.506 -18.218   5.388  1.00  0.00     0.009 A 
HETATM   12  C   UNL     1      44.253 -18.543   4.250  1.00  0.00     0.032 A 
HETATM   13  N   UNL     1      44.273 -18.194   1.752  1.00  0.00    -0.277 N 
HETATM   14  H   UNL     1      45.104 -18.696   1.464  1.00  0.00     0.189 HD
HETATM   15  N   UNL     1      43.540 -17.579   0.806  1.00  0.00    -0.168 NA
ENDBRANCH   1   5
BRANCH   2  16
HETATM   16  C   UNL     1      41.139 -14.811  -1.246  1.00  0.00     0.116 C 
HETATM   17  C   UNL     1      40.795 -15.574  -2.525  1.00  0.00     0.037 C 
BRANCH  16  18
HETATM   18  C   UNL     1      41.718 -13.435  -1.552  1.00  0.00    -0.002 A 
HETATM   19  C   UNL     1      42.030 -12.542  -0.504  1.00  0.00     0.076 A 
HETATM   20  C   UNL     1      42.550 -11.276  -0.800  1.00  0.00     0.038 A 
HETATM   21  C   UNL     1      42.747 -10.878  -2.125  1.00  0.00     0.009 A 
HETATM   22  C   UNL     1      42.422 -11.736  -3.174  1.00  0.00    -0.061 A 
HETATM   23  C   UNL     1      42.612 -11.321  -4.603  1.00  0.00     0.048 C 
HETATM   24  C   UNL     1      41.901 -13.002  -2.880  1.00  0.00     0.018 A 
BRANCH  19  25
HETATM   25  O   UNL     1      41.796 -12.999   0.767  1.00  0.00    -0.355 OA
HETATM   26  C   UNL     1      40.798 -12.332   1.531  1.00  0.00     0.210 C 
ENDBRANCH  19  25
ENDBRANCH  16  18
ENDBRANCH   2  16
TORSDOF 4
ENDMDL
MODEL 10
REMARK VINA RESULT:      -7.4      2.774      6.650
REMARK  4 active torsions:
REMARK  status: ('A' for Active; 'I' for Inactive)
REMARK    1  A    between atoms: C_9  and  C_10 
REMARK       I    between atoms: C_10  and  N_11 
REMARK    2  A    between atoms: N_11  and  C_12 
REMARK    3  A    between atoms: C_12  and  C_13 
REMARK    4  A    between atoms: C_14  and  O_15 
ROOT
HETATM    1  C   UNL     1      43.165 -14.321   3.971  1.00  0.00     0.273 C 
HETATM    2  N   UNL     1      41.839 -14.196   3.630  1.00  0.00    -0.347 N 
HETATM    3  O   UNL     1      44.064 -13.606   3.539  1.00  0.00    -0.266 OA
HETATM    4  H   UNL     1      41.218 -14.806   4.155  1.00  0.00     0.163 HD
ENDROOT
BRANCH   1   5
HETATM    5  C   UNL     1      43.406 -15.403   4.942  1.00  0.00     0.157 A 
HETATM    6  C   UNL     1      43.611 -16.787   4.660  1.00  0.00     0.029 A 
HETATM    7  C   UNL     1      43.655 -17.592   3.505  1.00  0.00     0.023 A 
HETATM    8  C   UNL     1      43.802 -17.384   5.899  1.00  0.00     0.063 A 
HETATM    9  C   UNL     1      43.890 -18.971   3.629  1.00  0.00    -0.061 A 
HETATM   10  C   UNL     1      43.939 -19.848   2.411  1.00  0.00     0.048 C 
HETATM   11  C   UNL     1      44.079 -19.533   4.899  1.00  0.00     0.009 A 
HETATM   12  C   UNL     1      44.040 -18.752   6.060  1.00  0.00     0.032 A 
HETATM   13  N   UNL     1      43.704 -16.368   6.809  1.00  0.00    -0.277 N 
HETATM   14  H   UNL     1      43.792 -16.437   7.816  1.00  0.00     0.189 HD
HETATM   15  N   UNL     1      43.467 -15.158   6.271  1.00  0.00    -0.168 NA
ENDBRANCH   1   5
BRANCH   2  16
HETATM   16  C   UNL     1      41.235 -13.166   2.796  1.00  0.00     0.116 C 
HETATM   17  C   UNL     1      39.817 -12.768   3.209  1.00  0.00     0.037 C 
BRANCH  16  18
HETATM   18  C   UNL     1      41.321 -13.466   1.304  1.00  0.00    -0.002 A 
HETATM   19  C   UNL     1      40.805 -14.674   0.787  1.00  0.00     0.076 A 
HETATM   20  C   UNL     1      40.902 -14.943  -0.583  1.00  0.00     0.038 A 
HETATM   21  C   UNL     1      41.521 -14.035  -1.445  1.00  0.00     0.009 A 
HETATM   22  C   UNL     1      42.060 -12.848  -0.951  1.00  0.00    -0.061 A 
HETATM   23  C   UNL     1      42.742 -11.868  -1.859  1.00  0.00     0.048 C 
HETATM   24  C   UNL     1      41.964 -12.578   0.420  1.00  0.00     0.018 A 
BRANCH  19  25
HETATM   25  O   UNL     1      40.225 -15.520   1.698  1.00  0.00    -0.355 OA
HETATM   26  C   UNL     1      40.586 -16.894   1.640  1.00  0.00     0.210 C 
ENDBRANCH  19  25
ENDBRANCH  16  18
ENDBRANCH   2  16
TORSDOF 4
ENDMDL
