MODEL 1
REMARK VINA RESULT:      -7.6      0.000      0.000
REMARK  3 active torsions:
REMARK  status: ('A' for Active; 'I' for Inactive)
REMARK    1  A    between atoms: C_2  and  C_3 
REMARK    2  A    between atoms: C_9  and  C_10 
REMARK    3  A    between atoms: C_23  and  N_24 
ROOT
HETATM    1  C   UNL     1      40.144 -13.410   2.897  1.00  0.00     0.066 A 
HETATM    2  N   UNL     1      39.090 -12.577   2.960  1.00  0.00    -0.177 NA
HETATM    3  N   UNL     1      39.251 -11.917   4.123  1.00  0.00    -0.256 N 
HETATM    4  H   UNL     1      38.570 -11.215   4.387  1.00  0.00     0.191 HD
HETATM    5  C   UNL     1      40.367 -12.302   4.793  1.00  0.00     0.175 A 
HETATM    6  C   UNL     1      40.972 -13.273   4.038  1.00  0.00     0.035 A 
HETATM    7  C   UNL     1      42.256 -13.880   4.500  1.00  0.00     0.106 A 
HETATM    8  C   UNL     1      42.709 -13.238   5.815  1.00  0.00     0.081 A 
HETATM    9  C   UNL     1      43.969 -13.660   6.331  1.00  0.00     0.100 C 
HETATM   10  N   UNL     1      44.995 -13.997   6.757  1.00  0.00    -0.191 NA
HETATM   11  C   UNL     1      41.990 -12.274   6.456  1.00  0.00     0.140 A 
HETATM   12  O   UNL     1      40.766 -11.797   5.953  1.00  0.00    -0.279 OA
ENDROOT
BRANCH   7  13
HETATM   13  C   UNL     1      42.011 -15.386   4.621  1.00  0.00    -0.033 A 
HETATM   14  C   UNL     1      42.618 -16.329   3.727  1.00  0.00    -0.019 A 
HETATM   15  C   UNL     1      42.330 -17.710   3.901  1.00  0.00    -0.025 A 
HETATM   16  C   UNL     1      43.498 -15.991   2.669  1.00  0.00     0.013 A 
HETATM   17  C   UNL     1      42.891 -18.669   3.042  1.00  0.00     0.012 A 
HETATM   18  C   UNL     1      41.487 -18.134   4.936  1.00  0.00     0.012 A 
HETATM   19  C   UNL     1      43.747 -18.297   2.009  1.00  0.00     0.001 A 
HETATM   20  C   UNL     1      44.053 -16.958   1.825  1.00  0.00     0.001 A 
HETATM   21  C   UNL     1      40.924 -17.221   5.818  1.00  0.00     0.001 A 
HETATM   22  C   UNL     1      41.188 -15.866   5.667  1.00  0.00     0.009 A 
ENDBRANCH   7  13
BRANCH  11  23
HETATM   23  N   UNL     1      42.353 -11.658   7.633  1.00  0.00    -0.282 NA
HETATM   24  H   UNL     1      43.341 -11.435   7.725  1.00  0.00     0.126 HD
HETATM   25  H   UNL     1      41.973 -12.133   8.447  1.00  0.00     0.126 HD
ENDBRANCH  11  23
BRANCH   1  26
HETATM   26  C   UNL     1      40.308 -14.314   1.721  1.00  0.00     0.057 C 
HETATM   27  C   UNL     1      39.554 -15.624   1.887  1.00  0.00     0.011 C 
ENDBRANCH   1  26
TORSDOF 3
ENDMDL
MODEL 2
REMARK VINA RESULT:      -7.4      3.790      5.941
REMARK  3 active torsions:
REMARK  status: ('A' for Active; 'I' for Inactive)
REMARK    1  A    between atoms: C_2  and  C_3 
REMARK    2  A    between atoms: C_9  and  C_10 
REMARK    3  A    between atoms: C_23  and  N_24 
ROOT
HETATM    1  C   UNL     1      43.698 -16.396   7.265  1.00  0.00     0.066 A 
HETATM    2  N   UNL     1      43.596 -16.458   8.604  1.00  0.00    -0.177 NA
HETATM    3  N   UNL     1      43.614 -17.776   8.883  1.00  0.00    -0.256 N 
HETATM    4  H   UNL     1      43.558 -18.073   9.850  1.00  0.00     0.191 HD
HETATM    5  C   UNL     1      43.725 -18.545   7.770  1.00  0.00     0.175 A 
HETATM    6  C   UNL     1      43.775 -17.693   6.698  1.00  0.00     0.035 A 
HETATM    7  C   UNL     1      43.930 -18.243   5.319  1.00  0.00     0.106 A 
HETATM    8  C   UNL     1      44.043 -19.770   5.361  1.00  0.00     0.081 A 
HETATM    9  C   UNL     1      44.283 -20.428   4.120  1.00  0.00     0.100 C 
HETATM   10  N   UNL     1      44.481 -20.971   3.113  1.00  0.00    -0.191 NA
HETATM   11  C   UNL     1      43.971 -20.487   6.518  1.00  0.00     0.140 A 
HETATM   12  O   UNL     1      43.783 -19.870   7.768  1.00  0.00    -0.279 OA
ENDROOT
BRANCH   7  13
HETATM   13  C   UNL     1      42.726 -17.753   4.511  1.00  0.00    -0.033 A 
HETATM   14  C   UNL     1      42.808 -17.497   3.104  1.00  0.00    -0.019 A 
HETATM   15  C   UNL     1      41.645 -17.033   2.430  1.00  0.00    -0.025 A 
HETATM   16  C   UNL     1      43.971 -17.676   2.313  1.00  0.00     0.013 A 
HETATM   17  C   UNL     1      41.681 -16.757   1.053  1.00  0.00     0.012 A 
HETATM   18  C   UNL     1      40.445 -16.850   3.130  1.00  0.00     0.012 A 
HETATM   19  C   UNL     1      42.845 -16.938   0.312  1.00  0.00     0.001 A 
HETATM   20  C   UNL     1      43.989 -17.401   0.942  1.00  0.00     0.001 A 
HETATM   21  C   UNL     1      40.362 -17.126   4.488  1.00  0.00     0.001 A 
HETATM   22  C   UNL     1      41.484 -17.578   5.169  1.00  0.00     0.009 A 
ENDBRANCH   7  13
BRANCH  11  23
HETATM   23  N   UNL     1      44.075 -21.857   6.615  1.00  0.00    -0.282 NA
HETATM   24  H   UNL     1      44.223 -22.220   7.553  1.00  0.00     0.126 HD
HETATM   25  H   UNL     1      44.719 -22.242   5.930  1.00  0.00     0.126 HD
ENDBRANCH  11  23
BRANCH   1  26
HETATM   26  C   UNL     1      43.716 -15.070   6.581  1.00  0.00     0.057 C 
HETATM   27  C   UNL     1      45.037 -14.339   6.767  1.00  0.00     0.011 C 
ENDBRANCH   1  26
TORSDOF 3
ENDMDL
MODEL 3
REMARK VINA RESULT:      -7.1      2.358      4.488
REMARK  3 active torsions:
REMARK  status: ('A' for Active; 'I' for Inactive)
REMARK    1  A    between atoms: C_2  and  C_3 
REMARK    2  A    between atoms: C_9  and  C_10 
REMARK    3  A    between atoms: C_23  and  N_24 
ROOT
HETATM    1  C   UNL     1      42.638 -16.435   1.263  1.00  0.00     0.066 A 
HETATM    2  N   UNL     1      42.141 -16.985   0.141  1.00  0.00    -0.177 NA
HETATM    3  N   UNL     1      40.966 -16.355  -0.051  1.00  0.00    -0.256 N 
HETATM    4  H   UNL     1      40.404 -16.600  -0.857  1.00  0.00     0.191 HD
HETATM    5  C   UNL     1      40.706 -15.429   0.907  1.00  0.00     0.175 A 
HETATM    6  C   UNL     1      41.759 -15.452   1.783  1.00  0.00     0.035 A 
HETATM    7  C   UNL     1      41.781 -14.512   2.943  1.00  0.00     0.106 A 
HETATM    8  C   UNL     1      40.545 -13.607   2.923  1.00  0.00     0.081 A 
HETATM    9  C   UNL     1      40.477 -12.597   3.925  1.00  0.00     0.100 C 
HETATM   10  N   UNL     1      40.414 -11.770   4.738  1.00  0.00    -0.191 NA
HETATM   11  C   UNL     1      39.570 -13.706   1.976  1.00  0.00     0.140 A 
HETATM   12  O   UNL     1      39.626 -14.659   0.942  1.00  0.00    -0.279 OA
ENDROOT
BRANCH   7  13
HETATM   13  C   UNL     1      41.874 -15.373   4.205  1.00  0.00    -0.033 A 
HETATM   14  C   UNL     1      42.831 -15.107   5.238  1.00  0.00    -0.019 A 
HETATM   15  C   UNL     1      42.857 -15.962   6.374  1.00  0.00    -0.025 A 
HETATM   16  C   UNL     1      43.766 -14.042   5.222  1.00  0.00     0.013 A 
HETATM   17  C   UNL     1      43.787 -15.748   7.406  1.00  0.00     0.012 A 
HETATM   18  C   UNL     1      41.954 -17.026   6.482  1.00  0.00     0.012 A 
HETATM   19  C   UNL     1      44.695 -14.694   7.350  1.00  0.00     0.001 A 
HETATM   20  C   UNL     1      44.681 -13.839   6.260  1.00  0.00     0.001 A 
HETATM   21  C   UNL     1      41.009 -17.264   5.493  1.00  0.00     0.001 A 
HETATM   22  C   UNL     1      40.964 -16.444   4.373  1.00  0.00     0.009 A 
ENDBRANCH   7  13
BRANCH  11  23
HETATM   23  N   UNL     1      38.445 -12.915   1.905  1.00  0.00    -0.282 NA
HETATM   24  H   UNL     1      38.148 -12.657   0.967  1.00  0.00     0.126 HD
HETATM   25  H   UNL     1      38.491 -12.124   2.541  1.00  0.00     0.126 HD
ENDBRANCH  11  23
BRANCH   1  26
HETATM   26  C   UNL     1      43.958 -16.889   1.793  1.00  0.00     0.057 C 
HETATM   27  C   UNL     1      43.839 -18.134   2.658  1.00  0.00     0.011 C 
ENDBRANCH   1  26
TORSDOF 3
ENDMDL
MODEL 4
REMARK VINA RESULT:      -6.9      3.240      5.724
REMARK  3 active torsions:
REMARK  status: ('A' for Active; 'I' for Inactive)
REMARK    1  A    between atoms: C_2  and  C_3 
REMARK    2  A    between atoms: C_9  and  C_10 
REMARK    3  A    between atoms: C_23  and  N_24 
ROOT
HETATM    1  C   UNL     1      43.809 -19.186   2.713  1.00  0.00     0.066 A 
HETATM    2  N   UNL     1      44.868 -20.000   2.867  1.00  0.00    -0.177 NA
HETATM    3  N   UNL     1      45.085 -20.024   4.196  1.00  0.00    -0.256 N 
HETATM    4  H   UNL     1      45.842 -20.591   4.559  1.00  0.00     0.191 HD
HETATM    5  C   UNL     1      44.201 -19.258   4.885  1.00  0.00     0.175 A 
HETATM    6  C   UNL     1      43.361 -18.689   3.963  1.00  0.00     0.035 A 
HETATM    7  C   UNL     1      42.247 -17.806   4.419  1.00  0.00     0.106 A 
HETATM    8  C   UNL     1      42.228 -17.713   5.948  1.00  0.00     0.081 A 
HETATM    9  C   UNL     1      41.161 -16.970   6.530  1.00  0.00     0.100 C 
HETATM   10  N   UNL     1      40.293 -16.369   7.013  1.00  0.00    -0.191 NA
HETATM   11  C   UNL     1      43.143 -18.340   6.739  1.00  0.00     0.140 A 
HETATM   12  O   UNL     1      44.183 -19.122   6.204  1.00  0.00    -0.279 OA
ENDROOT
BRANCH   7  13
HETATM   13  C   UNL     1      42.453 -16.451   3.738  1.00  0.00    -0.033 A 
HETATM   14  C   UNL     1      41.457 -15.867   2.889  1.00  0.00    -0.019 A 
HETATM   15  C   UNL     1      41.733 -14.609   2.287  1.00  0.00    -0.025 A 
HETATM   16  C   UNL     1      40.198 -16.449   2.599  1.00  0.00     0.013 A 
HETATM   17  C   UNL     1      40.792 -14.005   1.436  1.00  0.00     0.012 A 
HETATM   18  C   UNL     1      42.945 -13.953   2.537  1.00  0.00     0.012 A 
HETATM   19  C   UNL     1      39.568 -14.611   1.170  1.00  0.00     0.001 A 
HETATM   20  C   UNL     1      39.269 -15.831   1.754  1.00  0.00     0.001 A 
HETATM   21  C   UNL     1      43.896 -14.508   3.383  1.00  0.00     0.001 A 
HETATM   22  C   UNL     1      43.651 -15.737   3.981  1.00  0.00     0.009 A 
ENDBRANCH   7  13
BRANCH  11  23
HETATM   23  N   UNL     1      43.169 -18.299   8.116  1.00  0.00    -0.282 NA
HETATM   24  H   UNL     1      42.588 -17.583   8.544  1.00  0.00     0.126 HD
HETATM   25  H   UNL     1      44.118 -18.315   8.482  1.00  0.00     0.126 HD
ENDBRANCH  11  23
BRANCH   1  26
HETATM   26  C   UNL     1      43.268 -18.918   1.348  1.00  0.00     0.057 C 
HETATM   27  C   UNL     1      43.767 -17.601   0.774  1.00  0.00     0.011 C 
ENDBRANCH   1  26
TORSDOF 3
ENDMDL
MODEL 5
REMARK VINA RESULT:      -6.9      6.722      9.465
REMARK  3 active torsions:
REMARK  status: ('A' for Active; 'I' for Inactive)
REMARK    1  A    between atoms: C_2  and  C_3 
REMARK    2  A    between atoms: C_9  and  C_10 
REMARK    3  A    between atoms: C_23  and  N_24 
ROOT
HETATM    1  C   UNL     1      41.344 -12.311  -2.316  1.00  0.00     0.066 A 
HETATM    2  N   UNL     1      42.595 -12.791  -2.424  1.00  0.00    -0.177 NA
HETATM    3  N   UNL     1      42.446 -13.986  -3.030  1.00  0.00    -0.256 N 
HETATM    4  H   UNL     1      43.270 -14.540  -3.229  1.00  0.00     0.191 HD
HETATM    5  C   UNL     1      41.149 -14.273  -3.309  1.00  0.00     0.175 A 
HETATM    6  C   UNL     1      40.399 -13.219  -2.857  1.00  0.00     0.035 A 
HETATM    7  C   UNL     1      38.918 -13.224  -3.050  1.00  0.00     0.106 A 
HETATM    8  C   UNL     1      38.481 -14.487  -3.798  1.00  0.00     0.081 A 
HETATM    9  C   UNL     1      37.098 -14.586  -4.130  1.00  0.00     0.100 C 
HETATM   10  N   UNL     1      35.974 -14.673  -4.406  1.00  0.00    -0.191 NA
HETATM   11  C   UNL     1      39.353 -15.459  -4.184  1.00  0.00     0.140 A 
HETATM   12  O   UNL     1      40.732 -15.375  -3.918  1.00  0.00    -0.279 OA
ENDROOT
BRANCH   7  13
HETATM   13  C   UNL     1      38.293 -13.105  -1.658  1.00  0.00    -0.033 A 
HETATM   14  C   UNL     1      37.293 -12.125  -1.355  1.00  0.00    -0.019 A 
HETATM   15  C   UNL     1      36.770 -12.074  -0.034  1.00  0.00    -0.025 A 
HETATM   16  C   UNL     1      36.768 -11.189  -2.282  1.00  0.00     0.013 A 
HETATM   17  C   UNL     1      35.798 -11.121   0.312  1.00  0.00     0.012 A 
HETATM   18  C   UNL     1      37.217 -12.976   0.940  1.00  0.00     0.012 A 
HETATM   19  C   UNL     1      35.313 -10.214  -0.625  1.00  0.00     0.001 A 
HETATM   20  C   UNL     1      35.796 -10.250  -1.924  1.00  0.00     0.001 A 
HETATM   21  C   UNL     1      38.166 -13.943   0.636  1.00  0.00     0.001 A 
HETATM   22  C   UNL     1      38.692 -14.012  -0.647  1.00  0.00     0.009 A 
ENDBRANCH   7  13
BRANCH  11  23
HETATM   23  N   UNL     1      39.017 -16.608  -4.866  1.00  0.00    -0.282 NA
HETATM   24  H   UNL     1      38.058 -16.655  -5.201  1.00  0.00     0.126 HD
HETATM   25  H   UNL     1      39.308 -17.447  -4.370  1.00  0.00     0.126 HD
ENDBRANCH  11  23
BRANCH   1  26
HETATM   26  C   UNL     1      41.111 -10.977  -1.687  1.00  0.00     0.057 C 
HETATM   27  C   UNL     1      40.430 -10.001  -2.633  1.00  0.00     0.011 C 
ENDBRANCH   1  26
TORSDOF 3
ENDMDL
MODEL 6
REMARK VINA RESULT:      -6.6      2.843      5.276
REMARK  3 active torsions:
REMARK  status: ('A' for Active; 'I' for Inactive)
REMARK    1  A    between atoms: C_2  and  C_3 
REMARK    2  A    between atoms: C_9  and  C_10 
REMARK    3  A    between atoms: C_23  and  N_24 
ROOT
HETATM    1  C   UNL     1      41.947 -17.326   1.905  1.00  0.00     0.066 A 
HETATM    2  N   UNL     1      42.993 -18.168   1.971  1.00  0.00    -0.177 NA
HETATM    3  N   UNL     1      43.564 -17.903   3.162  1.00  0.00    -0.256 N 
HETATM    4  H   UNL     1      44.382 -18.432   3.442  1.00  0.00     0.191 HD
HETATM    5  C   UNL     1      42.915 -16.929   3.849  1.00  0.00     0.175 A 
HETATM    6  C   UNL     1      41.865 -16.520   3.068  1.00  0.00     0.035 A 
HETATM    7  C   UNL     1      40.933 -15.467   3.569  1.00  0.00     0.106 A 
HETATM    8  C   UNL     1      41.334 -15.023   4.979  1.00  0.00     0.081 A 
HETATM    9  C   UNL     1      40.479 -14.081   5.620  1.00  0.00     0.100 C 
HETATM   10  N   UNL     1      39.786 -13.315   6.150  1.00  0.00    -0.191 NA
HETATM   11  C   UNL     1      42.420 -15.525   5.633  1.00  0.00     0.140 A 
HETATM   12  O   UNL     1      43.260 -16.492   5.053  1.00  0.00    -0.279 OA
ENDROOT
BRANCH   7  13
HETATM   13  C   UNL     1      40.969 -14.327   2.548  1.00  0.00    -0.033 A 
HETATM   14  C   UNL     1      39.839 -14.006   1.727  1.00  0.00    -0.019 A 
HETATM   15  C   UNL     1      39.959 -12.937   0.797  1.00  0.00    -0.025 A 
HETATM   16  C   UNL     1      38.589 -14.674   1.770  1.00  0.00     0.013 A 
HETATM   17  C   UNL     1      38.882 -12.595  -0.038  1.00  0.00     0.012 A 
HETATM   18  C   UNL     1      41.151 -12.209   0.703  1.00  0.00     0.012 A 
HETATM   19  C   UNL     1      37.672 -13.280   0.029  1.00  0.00     0.001 A 
HETATM   20  C   UNL     1      37.525 -14.318   0.936  1.00  0.00     0.001 A 
HETATM   21  C   UNL     1      42.234 -12.504   1.521  1.00  0.00     0.001 A 
HETATM   22  C   UNL     1      42.143 -13.544   2.436  1.00  0.00     0.009 A 
ENDBRANCH   7  13
BRANCH  11  23
HETATM   23  N   UNL     1      42.821 -15.169   6.902  1.00  0.00    -0.282 NA
HETATM   24  H   UNL     1      42.159 -14.608   7.431  1.00  0.00     0.126 HD
HETATM   25  H   UNL     1      43.765 -14.791   6.913  1.00  0.00     0.126 HD
ENDBRANCH  11  23
BRANCH   1  26
HETATM   26  C   UNL     1      41.058 -17.336   0.706  1.00  0.00     0.057 C 
HETATM   27  C   UNL     1      41.481 -16.315  -0.338  1.00  0.00     0.011 C 
ENDBRANCH   1  26
TORSDOF 3
ENDMDL
MODEL 7
REMARK VINA RESULT:      -6.5      3.496      6.304
REMARK  3 active torsions:
REMARK  status: ('A' for Active; 'I' for Inactive)
REMARK    1  A    between atoms: C_2  and  C_3 
REMARK    2  A    between atoms: C_9  and  C_10 
REMARK    3  A    between atoms: C_23  and  N_24 
ROOT
HETATM    1  C   UNL     1      44.656 -17.420   6.089  1.00  0.00     0.066 A 
HETATM    2  N   UNL     1      45.088 -18.508   6.751  1.00  0.00    -0.177 NA
HETATM    3  N   UNL     1      44.782 -19.539   5.940  1.00  0.00    -0.256 N 
HETATM    4  H   UNL     1      45.026 -20.479   6.229  1.00  0.00     0.191 HD
HETATM    5  C   UNL     1      44.177 -19.142   4.792  1.00  0.00     0.175 A 
HETATM    6  C   UNL     1      44.067 -17.776   4.849  1.00  0.00     0.035 A 
HETATM    7  C   UNL     1      43.464 -17.031   3.705  1.00  0.00     0.106 A 
HETATM    8  C   UNL     1      43.076 -17.997   2.581  1.00  0.00     0.081 A 
HETATM    9  C   UNL     1      42.567 -17.414   1.385  1.00  0.00     0.100 C 
HETATM   10  N   UNL     1      42.152 -16.948   0.406  1.00  0.00    -0.191 NA
HETATM   11  C   UNL     1      43.246 -19.346   2.673  1.00  0.00     0.140 A 
HETATM   12  O   UNL     1      43.790 -19.955   3.818  1.00  0.00    -0.279 OA
ENDROOT
BRANCH   7  13
HETATM   13  C   UNL     1      42.271 -16.253   4.266  1.00  0.00    -0.033 A 
HETATM   14  C   UNL     1      41.976 -14.913   3.854  1.00  0.00    -0.019 A 
HETATM   15  C   UNL     1      40.855 -14.257   4.432  1.00  0.00    -0.025 A 
HETATM   16  C   UNL     1      42.721 -14.176   2.899  1.00  0.00     0.013 A 
HETATM   17  C   UNL     1      40.535 -12.939   4.069  1.00  0.00     0.012 A 
HETATM   18  C   UNL     1      40.051 -14.920   5.369  1.00  0.00     0.012 A 
HETATM   19  C   UNL     1      41.295 -12.245   3.132  1.00  0.00     0.001 A 
HETATM   20  C   UNL     1      42.386 -12.865   2.544  1.00  0.00     0.001 A 
HETATM   21  C   UNL     1      40.324 -16.229   5.744  1.00  0.00     0.001 A 
HETATM   22  C   UNL     1      41.414 -16.890   5.195  1.00  0.00     0.009 A 
ENDBRANCH   7  13
BRANCH  11  23
HETATM   23  N   UNL     1      42.923 -20.259   1.693  1.00  0.00    -0.282 NA
HETATM   24  H   UNL     1      42.439 -21.094   2.012  1.00  0.00     0.126 HD
HETATM   25  H   UNL     1      43.712 -20.463   1.084  1.00  0.00     0.126 HD
ENDBRANCH  11  23
BRANCH   1  26
HETATM   26  C   UNL     1      44.832 -16.065   6.689  1.00  0.00     0.057 C 
HETATM   27  C   UNL     1      43.708 -15.705   7.648  1.00  0.00     0.011 C 
ENDBRANCH   1  26
TORSDOF 3
ENDMDL
MODEL 8
REMARK VINA RESULT:      -6.4      4.730      7.409
REMARK  3 active torsions:
REMARK  status: ('A' for Active; 'I' for Inactive)
REMARK    1  A    between atoms: C_2  and  C_3 
REMARK    2  A    between atoms: C_9  and  C_10 
REMARK    3  A    between atoms: C_23  and  N_24 
ROOT
HETATM    1  C   UNL     1      39.632 -13.693   1.290  1.00  0.00     0.066 A 
HETATM    2  N   UNL     1      40.258 -13.855   2.469  1.00  0.00    -0.177 NA
HETATM    3  N   UNL     1      41.436 -13.220   2.315  1.00  0.00    -0.256 N 
HETATM    4  H   UNL     1      42.087 -13.200   3.091  1.00  0.00     0.191 HD
HETATM    5  C   UNL     1      41.574 -12.663   1.085  1.00  0.00     0.175 A 
HETATM    6  C   UNL     1      40.432 -12.951   0.385  1.00  0.00     0.035 A 
HETATM    7  C   UNL     1      40.266 -12.442  -1.009  1.00  0.00     0.106 A 
HETATM    8  C   UNL     1      41.481 -11.604  -1.420  1.00  0.00     0.081 A 
HETATM    9  C   UNL     1      41.422 -10.978  -2.699  1.00  0.00     0.100 C 
HETATM   10  N   UNL     1      41.382 -10.463  -3.739  1.00  0.00    -0.191 NA
HETATM   11  C   UNL     1      42.556 -11.407  -0.606  1.00  0.00     0.140 A 
HETATM   12  O   UNL     1      42.629 -11.968   0.683  1.00  0.00    -0.279 OA
ENDROOT
BRANCH   7  13
HETATM   13  C   UNL     1      40.051 -13.665  -1.902  1.00  0.00    -0.033 A 
HETATM   14  C   UNL     1      38.890 -13.808  -2.729  1.00  0.00    -0.019 A 
HETATM   15  C   UNL     1      38.762 -14.981  -3.522  1.00  0.00    -0.025 A 
HETATM   16  C   UNL     1      37.842 -12.858  -2.827  1.00  0.00     0.013 A 
HETATM   17  C   UNL     1      37.634 -15.171  -4.338  1.00  0.00     0.012 A 
HETATM   18  C   UNL     1      39.762 -15.962  -3.503  1.00  0.00     0.012 A 
HETATM   19  C   UNL     1      36.622 -14.217  -4.401  1.00  0.00     0.001 A 
HETATM   20  C   UNL     1      36.728 -13.059  -3.648  1.00  0.00     0.001 A 
HETATM   21  C   UNL     1      40.899 -15.807  -2.723  1.00  0.00     0.001 A 
HETATM   22  C   UNL     1      41.047 -14.671  -1.938  1.00  0.00     0.009 A 
ENDBRANCH   7  13
BRANCH  11  23
HETATM   23  N   UNL     1      43.668 -10.658  -0.920  1.00  0.00    -0.282 NA
HETATM   24  H   UNL     1      43.516  -9.655  -0.994  1.00  0.00     0.126 HD
HETATM   25  H   UNL     1      44.180 -11.044  -1.708  1.00  0.00     0.126 HD
ENDBRANCH  11  23
BRANCH   1  26
HETATM   26  C   UNL     1      38.270 -14.269   1.085  1.00  0.00     0.057 C 
HETATM   27  C   UNL     1      37.229 -13.204   0.781  1.00  0.00     0.011 C 
ENDBRANCH   1  26
TORSDOF 3
ENDMDL
MODEL 9
REMARK VINA RESULT:      -6.4      2.834      5.124
REMARK  3 active torsions:
REMARK  status: ('A' for Active; 'I' for Inactive)
REMARK    1  A    between atoms: C_2  and  C_3 
REMARK    2  A    between atoms: C_9  and  C_10 
REMARK    3  A    between atoms: C_23  and  N_24 
ROOT
HETATM    1  C   UNL     1      40.270 -12.906   4.978  1.00  0.00     0.066 A 
HETATM    2  N   UNL     1      39.825 -13.086   6.234  1.00  0.00    -0.177 NA
HETATM    3  N   UNL     1      40.022 -14.397   6.476  1.00  0.00    -0.256 N 
HETATM    4  H   UNL     1      39.766 -14.771   7.382  1.00  0.00     0.191 HD
HETATM    5  C   UNL     1      40.576 -15.047   5.422  1.00  0.00     0.175 A 
HETATM    6  C   UNL     1      40.747 -14.121   4.425  1.00  0.00     0.035 A 
HETATM    7  C   UNL     1      41.372 -14.528   3.132  1.00  0.00     0.106 A 
HETATM    8  C   UNL     1      41.764 -16.009   3.170  1.00  0.00     0.081 A 
HETATM    9  C   UNL     1      42.453 -16.517   2.031  1.00  0.00     0.100 C 
HETATM   10  N   UNL     1      43.017 -16.938   1.107  1.00  0.00    -0.191 NA
HETATM   11  C   UNL     1      41.523 -16.812   4.244  1.00  0.00     0.140 A 
HETATM   12  O   UNL     1      40.889 -16.336   5.406  1.00  0.00    -0.279 OA
ENDROOT
BRANCH   7  13
HETATM   13  C   UNL     1      40.360 -14.203   2.032  1.00  0.00    -0.033 A 
HETATM   14  C   UNL     1      40.682 -13.342   0.933  1.00  0.00    -0.019 A 
HETATM   15  C   UNL     1      39.680 -13.083  -0.042  1.00  0.00    -0.025 A 
HETATM   16  C   UNL     1      41.940 -12.721   0.731  1.00  0.00     0.013 A 
HETATM   17  C   UNL     1      39.945 -12.235  -1.130  1.00  0.00     0.012 A 
HETATM   18  C   UNL     1      38.414 -13.674   0.068  1.00  0.00     0.012 A 
HETATM   19  C   UNL     1      41.192 -11.637  -1.289  1.00  0.00     0.001 A 
HETATM   20  C   UNL     1      42.191 -11.884  -0.360  1.00  0.00     0.001 A 
HETATM   21  C   UNL     1      38.115 -14.530   1.119  1.00  0.00     0.001 A 
HETATM   22  C   UNL     1      39.076 -14.797   2.085  1.00  0.00     0.009 A 
ENDBRANCH   7  13
BRANCH  11  23
HETATM   23  N   UNL     1      41.860 -18.145   4.335  1.00  0.00    -0.282 NA
HETATM   24  H   UNL     1      42.552 -18.375   5.044  1.00  0.00     0.126 HD
HETATM   25  H   UNL     1      42.067 -18.551   3.427  1.00  0.00     0.126 HD
ENDBRANCH  11  23
BRANCH   1  26
HETATM   26  C   UNL     1      40.215 -11.550   4.357  1.00  0.00     0.057 C 
HETATM   27  C   UNL     1      38.892 -11.286   3.656  1.00  0.00     0.011 C 
ENDBRANCH   1  26
TORSDOF 3
ENDMDL
MODEL 10
REMARK VINA RESULT:      -6.3      3.260      5.544
REMARK  3 active torsions:
REMARK  status: ('A' for Active; 'I' for Inactive)
REMARK    1  A    between atoms: C_2  and  C_3 
REMARK    2  A    between atoms: C_9  and  C_10 
REMARK    3  A    between atoms: C_23  and  N_24 
ROOT
HETATM    1  C   UNL     1      41.687 -17.764   2.161  1.00  0.00     0.066 A 
HETATM    2  N   UNL     1      42.209 -18.623   1.268  1.00  0.00    -0.177 NA
HETATM    3  N   UNL     1      43.270 -19.161   1.900  1.00  0.00    -0.256 N 
HETATM    4  H   UNL     1      43.826 -19.858   1.418  1.00  0.00     0.191 HD
HETATM    5  C   UNL     1      43.434 -18.674   3.156  1.00  0.00     0.175 A 
HETATM    6  C   UNL     1      42.434 -17.760   3.365  1.00  0.00     0.035 A 
HETATM    7  C   UNL     1      42.326 -17.065   4.682  1.00  0.00     0.106 A 
HETATM    8  C   UNL     1      43.415 -17.561   5.639  1.00  0.00     0.081 A 
HETATM    9  C   UNL     1      43.379 -17.046   6.968  1.00  0.00     0.100 C 
HETATM   10  N   UNL     1      43.356 -16.634   8.053  1.00  0.00    -0.191 NA
HETATM   11  C   UNL     1      44.352 -18.483   5.282  1.00  0.00     0.140 A 
HETATM   12  O   UNL     1      44.390 -19.050   3.995  1.00  0.00    -0.279 OA
ENDROOT
BRANCH   7  13
HETATM   13  C   UNL     1      42.415 -15.564   4.397  1.00  0.00    -0.033 A 
HETATM   14  C   UNL     1      41.450 -14.635   4.906  1.00  0.00    -0.019 A 
HETATM   15  C   UNL     1      41.600 -13.258   4.586  1.00  0.00    -0.025 A 
HETATM   16  C   UNL     1      40.342 -14.982   5.720  1.00  0.00     0.013 A 
HETATM   17  C   UNL     1      40.671 -12.313   5.052  1.00  0.00     0.012 A 
HETATM   18  C   UNL     1      42.679 -12.825   3.805  1.00  0.00     0.012 A 
HETATM   19  C   UNL     1      39.592 -12.693   5.844  1.00  0.00     0.001 A 
HETATM   20  C   UNL     1      39.430 -14.028   6.181  1.00  0.00     0.001 A 
HETATM   21  C   UNL     1      43.627 -13.724   3.337  1.00  0.00     0.001 A 
HETATM   22  C   UNL     1      43.502 -15.075   3.634  1.00  0.00     0.009 A 
ENDBRANCH   7  13
BRANCH  11  23
HETATM   23  N   UNL     1      45.346 -18.969   6.103  1.00  0.00    -0.282 NA
HETATM   24  H   UNL     1      45.181 -18.866   7.101  1.00  0.00     0.126 HD
HETATM   25  H   UNL     1      46.269 -18.653   5.816  1.00  0.00     0.126 HD
ENDBRANCH  11  23
BRANCH   1  26
HETATM   26  C   UNL     1      40.471 -16.972   1.808  1.00  0.00     0.057 C 
HETATM   27  C   UNL     1      40.786 -15.805   0.886  1.00  0.00     0.011 C 
ENDBRANCH   1  26
TORSDOF 3
ENDMDL
