MODEL 1
REMARK VINA RESULT:      -9.8      0.000      0.000
REMARK  5 active torsions:
REMARK  status: ('A' for Active; 'I' for Inactive)
REMARK    1  A    between atoms: C_4  and  C_5 
REMARK    2  A    between atoms: C_5  and  N_6 
REMARK    3  A    between atoms: C_7  and  N_8 
REMARK    4  A    between atoms: N_8  and  N_9 
REMARK       I    between atoms: N_9  and  C_10 
REMARK    5  A    between atoms: C_10  and  C_11 
ROOT
HETATM    1  N   UNL     1      41.285 -14.386   0.112  1.00  0.00    -0.282 N 
HETATM    2  C   UNL     1      40.947 -15.445   0.979  1.00  0.00     0.204 A 
HETATM    3  N   UNL     1      40.552 -15.278   2.221  1.00  0.00    -0.217 NA
HETATM    4  C   UNL     1      40.524 -13.963   2.674  1.00  0.00     0.090 A 
HETATM    5  C   UNL     1      40.865 -12.895   1.889  1.00  0.00     0.103 A 
HETATM    6  S   UNL     1      40.754 -11.399   2.715  1.00  0.00    -0.086 SA
HETATM    7  C   UNL     1      40.266 -12.202   4.105  1.00  0.00    -0.008 A 
HETATM    8  C   UNL     1      40.180 -13.563   3.969  1.00  0.00    -0.015 A 
HETATM    9  C   UNL     1      39.761 -14.205   5.235  1.00  0.00     0.042 C 
HETATM   10  C   UNL     1      39.271 -12.983   6.079  1.00  0.00     0.010 C 
HETATM   11  C   UNL     1      39.923 -11.708   5.457  1.00  0.00     0.047 C 
HETATM   12  C   UNL     1      41.268 -13.045   0.527  1.00  0.00     0.269 A 
HETATM   13  O   UNL     1      41.574 -12.106  -0.208  1.00  0.00    -0.266 OA
ENDROOT
BRANCH   2  14
HETATM   14  N   UNL     1      41.032 -16.736   0.482  1.00  0.00    -0.170 NA
HETATM   15  H   UNL     1      41.386 -16.833  -0.471  1.00  0.00     0.156 HD
BRANCH  14  16
HETATM   16  N   UNL     1      41.596 -17.704   1.328  1.00  0.00    -0.279 N 
HETATM   17  C   UNL     1      42.971 -17.807   1.372  1.00  0.00     0.289 C 
HETATM   18  O   UNL     1      43.689 -16.985   0.798  1.00  0.00    -0.264 OA
HETATM   19  H   UNL     1      40.961 -18.328   1.822  1.00  0.00     0.184 HD
BRANCH  17  20
HETATM   20  C   UNL     1      43.471 -18.948   2.101  1.00  0.00     0.145 A 
HETATM   21  O   UNL     1      43.798 -18.813   3.425  1.00  0.00    -0.304 OA
HETATM   22  C   UNL     1      44.152 -20.047   3.880  1.00  0.00     0.086 A 
HETATM   23  C   UNL     1      44.083 -20.981   2.853  1.00  0.00     0.001 A 
HETATM   24  C   UNL     1      44.520 -20.352   5.189  1.00  0.00     0.038 A 
HETATM   25  C   UNL     1      43.652 -20.262   1.709  1.00  0.00     0.057 A 
HETATM   26  C   UNL     1      44.409 -22.318   3.137  1.00  0.00     0.014 A 
HETATM   27  C   UNL     1      44.781 -22.656   4.445  1.00  0.00     0.001 A 
HETATM   28  C   UNL     1      44.833 -21.689   5.454  1.00  0.00     0.003 A 
ENDBRANCH  17  20
ENDBRANCH  14  16
ENDBRANCH   2  14
BRANCH   1  29
HETATM   29  C   UNL     1      41.563 -14.607  -1.308  1.00  0.00     0.173 C 
BRANCH  29  30
HETATM   30  C   UNL     1      40.300 -14.842  -2.113  1.00  0.00    -0.040 A 
HETATM   31  C   UNL     1      40.289 -15.781  -3.155  1.00  0.00     0.009 A 
HETATM   32  C   UNL     1      39.137 -15.987  -3.916  1.00  0.00     0.001 A 
HETATM   33  C   UNL     1      37.983 -15.255  -3.647  1.00  0.00     0.000 A 
HETATM   34  C   UNL     1      37.979 -14.320  -2.615  1.00  0.00     0.001 A 
HETATM   35  C   UNL     1      39.129 -14.115  -1.851  1.00  0.00     0.009 A 
ENDBRANCH  29  30
ENDBRANCH   1  29
TORSDOF 5
ENDMDL
MODEL 2
REMARK VINA RESULT:      -9.5      4.698      9.196
REMARK  5 active torsions:
REMARK  status: ('A' for Active; 'I' for Inactive)
REMARK    1  A    between atoms: C_4  and  C_5 
REMARK    2  A    between atoms: C_5  and  N_6 
REMARK    3  A    between atoms: C_7  and  N_8 
REMARK    4  A    between atoms: N_8  and  N_9 
REMARK       I    between atoms: N_9  and  C_10 
REMARK    5  A    between atoms: C_10  and  C_11 
ROOT
HETATM    1  N   UNL     1      42.829 -16.764   5.576  1.00  0.00    -0.282 N 
HETATM    2  C   UNL     1      43.392 -15.471   5.558  1.00  0.00     0.204 A 
HETATM    3  N   UNL     1      43.102 -14.558   4.658  1.00  0.00    -0.217 NA
HETATM    4  C   UNL     1      42.215 -14.952   3.662  1.00  0.00     0.090 A 
HETATM    5  C   UNL     1      41.655 -16.199   3.611  1.00  0.00     0.103 A 
HETATM    6  S   UNL     1      40.617 -16.409   2.266  1.00  0.00    -0.086 SA
HETATM    7  C   UNL     1      40.941 -14.839   1.770  1.00  0.00    -0.008 A 
HETATM    8  C   UNL     1      41.806 -14.157   2.586  1.00  0.00    -0.015 A 
HETATM    9  C   UNL     1      42.059 -12.790   2.081  1.00  0.00     0.042 C 
HETATM   10  C   UNL     1      40.938 -12.624   1.003  1.00  0.00     0.010 C 
HETATM   11  C   UNL     1      40.473 -14.059   0.603  1.00  0.00     0.047 C 
HETATM   12  C   UNL     1      41.929 -17.202   4.592  1.00  0.00     0.269 A 
HETATM   13  O   UNL     1      41.437 -18.330   4.579  1.00  0.00    -0.266 OA
ENDROOT
BRANCH   2  14
HETATM   14  N   UNL     1      44.300 -15.150   6.555  1.00  0.00    -0.170 NA
HETATM   15  H   UNL     1      45.278 -15.080   6.272  1.00  0.00     0.156 HD
BRANCH  14  16
HETATM   16  N   UNL     1      43.948 -14.100   7.416  1.00  0.00    -0.279 N 
HETATM   17  C   UNL     1      44.930 -13.199   7.777  1.00  0.00     0.289 C 
HETATM   18  O   UNL     1      46.045 -13.229   7.250  1.00  0.00    -0.264 OA
HETATM   19  H   UNL     1      43.000 -14.088   7.786  1.00  0.00     0.184 HD
BRANCH  17  20
HETATM   20  C   UNL     1      44.550 -12.272   8.817  1.00  0.00     0.145 A 
HETATM   21  O   UNL     1      43.463 -11.458   8.632  1.00  0.00    -0.304 OA
HETATM   22  C   UNL     1      43.283 -10.760   9.786  1.00  0.00     0.086 A 
HETATM   23  C   UNL     1      44.263 -11.095  10.714  1.00  0.00     0.001 A 
HETATM   24  C   UNL     1      42.259  -9.846  10.028  1.00  0.00     0.038 A 
HETATM   25  C   UNL     1      45.079 -12.063  10.077  1.00  0.00     0.057 A 
HETATM   26  C   UNL     1      44.234 -10.475  11.975  1.00  0.00     0.014 A 
HETATM   27  C   UNL     1      43.214  -9.553  12.249  1.00  0.00     0.001 A 
HETATM   28  C   UNL     1      42.243  -9.246  11.291  1.00  0.00     0.003 A 
ENDBRANCH  17  20
ENDBRANCH  14  16
ENDBRANCH   2  14
BRANCH   1  29
HETATM   29  C   UNL     1      43.056 -17.691   6.686  1.00  0.00     0.173 C 
BRANCH  29  30
HETATM   30  C   UNL     1      43.703 -18.985   6.233  1.00  0.00    -0.040 A 
HETATM   31  C   UNL     1      44.568 -18.995   5.129  1.00  0.00     0.009 A 
HETATM   32  C   UNL     1      45.150 -20.186   4.691  1.00  0.00     0.001 A 
HETATM   33  C   UNL     1      44.873 -21.381   5.350  1.00  0.00     0.000 A 
HETATM   34  C   UNL     1      44.017 -21.386   6.448  1.00  0.00     0.001 A 
HETATM   35  C   UNL     1      43.436 -20.195   6.889  1.00  0.00     0.009 A 
ENDBRANCH  29  30
ENDBRANCH   1  29
TORSDOF 5
ENDMDL
MODEL 3
REMARK VINA RESULT:      -9.4      2.577      8.280
REMARK  5 active torsions:
REMARK  status: ('A' for Active; 'I' for Inactive)
REMARK    1  A    between atoms: C_4  and  C_5 
REMARK    2  A    between atoms: C_5  and  N_6 
REMARK    3  A    between atoms: C_7  and  N_8 
REMARK    4  A    between atoms: N_8  and  N_9 
REMARK       I    between atoms: N_9  and  C_10 
REMARK    5  A    between atoms: C_10  and  C_11 
ROOT
HETATM    1  N   UNL     1      43.715 -15.929   4.905  1.00  0.00    -0.282 N 
HETATM    2  C   UNL     1      43.440 -16.008   3.524  1.00  0.00     0.204 A 
HETATM    3  N   UNL     1      43.462 -17.126   2.835  1.00  0.00    -0.217 NA
HETATM    4  C   UNL     1      43.827 -18.266   3.544  1.00  0.00     0.090 A 
HETATM    5  C   UNL     1      44.130 -18.250   4.879  1.00  0.00     0.103 A 
HETATM    6  S   UNL     1      44.560 -19.793   5.483  1.00  0.00    -0.086 SA
HETATM    7  C   UNL     1      44.346 -20.451   3.954  1.00  0.00    -0.008 A 
HETATM    8  C   UNL     1      43.957 -19.547   3.000  1.00  0.00    -0.015 A 
HETATM    9  C   UNL     1      43.805 -20.193   1.678  1.00  0.00     0.042 C 
HETATM   10  C   UNL     1      43.831 -21.712   2.046  1.00  0.00     0.010 C 
HETATM   11  C   UNL     1      44.513 -21.831   3.445  1.00  0.00     0.047 C 
HETATM   12  C   UNL     1      44.084 -17.054   5.659  1.00  0.00     0.269 A 
HETATM   13  O   UNL     1      44.344 -17.006   6.861  1.00  0.00    -0.266 OA
ENDROOT
BRANCH   2  14
HETATM   14  N   UNL     1      43.121 -14.831   2.863  1.00  0.00    -0.170 NA
HETATM   15  H   UNL     1      43.870 -14.144   2.775  1.00  0.00     0.156 HD
BRANCH  14  16
HETATM   16  N   UNL     1      42.407 -14.954   1.661  1.00  0.00    -0.279 N 
HETATM   17  C   UNL     1      42.017 -13.798   1.017  1.00  0.00     0.289 C 
HETATM   18  O   UNL     1      42.403 -12.693   1.403  1.00  0.00    -0.264 OA
HETATM   19  H   UNL     1      42.156 -15.891   1.354  1.00  0.00     0.184 HD
BRANCH  17  20
HETATM   20  C   UNL     1      41.119 -13.998  -0.096  1.00  0.00     0.145 A 
HETATM   21  O   UNL     1      41.489 -14.829  -1.122  1.00  0.00    -0.304 OA
HETATM   22  C   UNL     1      40.434 -14.902  -1.979  1.00  0.00     0.086 A 
HETATM   23  C   UNL     1      39.388 -14.102  -1.533  1.00  0.00     0.001 A 
HETATM   24  C   UNL     1      40.386 -15.674  -3.139  1.00  0.00     0.038 A 
HETATM   25  C   UNL     1      39.842 -13.518  -0.324  1.00  0.00     0.057 A 
HETATM   26  C   UNL     1      38.206 -14.056  -2.291  1.00  0.00     0.014 A 
HETATM   27  C   UNL     1      38.127 -14.824  -3.461  1.00  0.00     0.001 A 
HETATM   28  C   UNL     1      39.199 -15.621  -3.875  1.00  0.00     0.003 A 
ENDBRANCH  17  20
ENDBRANCH  14  16
ENDBRANCH   2  14
BRANCH   1  29
HETATM   29  C   UNL     1      43.521 -14.692   5.663  1.00  0.00     0.173 C 
BRANCH  29  30
HETATM   30  C   UNL     1      42.085 -14.208   5.619  1.00  0.00    -0.040 A 
HETATM   31  C   UNL     1      41.803 -12.847   5.424  1.00  0.00     0.009 A 
HETATM   32  C   UNL     1      40.484 -12.390   5.405  1.00  0.00     0.001 A 
HETATM   33  C   UNL     1      39.432 -13.285   5.583  1.00  0.00     0.000 A 
HETATM   34  C   UNL     1      39.697 -14.638   5.776  1.00  0.00     0.001 A 
HETATM   35  C   UNL     1      41.015 -15.098   5.793  1.00  0.00     0.009 A 
ENDBRANCH  29  30
ENDBRANCH   1  29
TORSDOF 5
ENDMDL
MODEL 4
REMARK VINA RESULT:      -9.4      3.752      8.985
REMARK  5 active torsions:
REMARK  status: ('A' for Active; 'I' for Inactive)
REMARK    1  A    between atoms: C_4  and  C_5 
REMARK    2  A    between atoms: C_5  and  N_6 
REMARK    3  A    between atoms: C_7  and  N_8 
REMARK    4  A    between atoms: N_8  and  N_9 
REMARK       I    between atoms: N_9  and  C_10 
REMARK    5  A    between atoms: C_10  and  C_11 
ROOT
HETATM    1  N   UNL     1      43.403 -15.900   5.716  1.00  0.00    -0.282 N 
HETATM    2  C   UNL     1      43.218 -15.808   4.321  1.00  0.00     0.204 A 
HETATM    3  N   UNL     1      43.347 -16.823   3.496  1.00  0.00    -0.217 NA
HETATM    4  C   UNL     1      43.733 -18.027   4.076  1.00  0.00     0.090 A 
HETATM    5  C   UNL     1      43.953 -18.173   5.419  1.00  0.00     0.103 A 
HETATM    6  S   UNL     1      44.435 -19.759   5.846  1.00  0.00    -0.086 SA
HETATM    7  C   UNL     1      44.353 -20.219   4.235  1.00  0.00    -0.008 A 
HETATM    8  C   UNL     1      43.971 -19.217   3.381  1.00  0.00    -0.015 A 
HETATM    9  C   UNL     1      43.937 -19.688   1.979  1.00  0.00     0.042 C 
HETATM   10  C   UNL     1      44.029 -21.240   2.149  1.00  0.00     0.010 C 
HETATM   11  C   UNL     1      44.631 -21.509   3.564  1.00  0.00     0.047 C 
HETATM   12  C   UNL     1      43.790 -17.095   6.342  1.00  0.00     0.269 A 
HETATM   13  O   UNL     1      43.973 -17.194   7.555  1.00  0.00    -0.266 OA
ENDROOT
BRANCH   2  14
HETATM   14  N   UNL     1      42.872 -14.572   3.798  1.00  0.00    -0.170 NA
HETATM   15  H   UNL     1      43.501 -13.798   4.011  1.00  0.00     0.156 HD
BRANCH  14  16
HETATM   16  N   UNL     1      42.475 -14.544   2.452  1.00  0.00    -0.279 N 
HETATM   17  C   UNL     1      41.125 -14.482   2.174  1.00  0.00     0.289 C 
HETATM   18  O   UNL     1      40.297 -14.314   3.072  1.00  0.00    -0.264 OA
HETATM   19  H   UNL     1      43.200 -14.634   1.743  1.00  0.00     0.184 HD
BRANCH  17  20
HETATM   20  C   UNL     1      40.784 -14.660   0.782  1.00  0.00     0.145 A 
HETATM   21  O   UNL     1      39.700 -14.000   0.263  1.00  0.00    -0.304 OA
HETATM   22  C   UNL     1      39.663 -14.276  -1.070  1.00  0.00     0.086 A 
HETATM   23  C   UNL     1      40.701 -15.133  -1.417  1.00  0.00     0.001 A 
HETATM   24  C   UNL     1      38.733 -13.769  -1.975  1.00  0.00     0.038 A 
HETATM   25  C   UNL     1      41.411 -15.382  -0.216  1.00  0.00     0.057 A 
HETATM   26  C   UNL     1      40.827 -15.526  -2.761  1.00  0.00     0.014 A 
HETATM   27  C   UNL     1      39.907 -15.030  -3.696  1.00  0.00     0.001 A 
HETATM   28  C   UNL     1      38.880 -14.164  -3.308  1.00  0.00     0.003 A 
ENDBRANCH  17  20
ENDBRANCH  14  16
ENDBRANCH   2  14
BRANCH   1  29
HETATM   29  C   UNL     1      43.091 -14.786   6.613  1.00  0.00     0.173 C 
BRANCH  29  30
HETATM   30  C   UNL     1      44.328 -14.011   7.022  1.00  0.00    -0.040 A 
HETATM   31  C   UNL     1      44.331 -13.257   8.205  1.00  0.00     0.009 A 
HETATM   32  C   UNL     1      45.458 -12.522   8.577  1.00  0.00     0.001 A 
HETATM   33  C   UNL     1      46.595 -12.530   7.772  1.00  0.00     0.000 A 
HETATM   34  C   UNL     1      46.606 -13.276   6.596  1.00  0.00     0.001 A 
HETATM   35  C   UNL     1      45.481 -14.014   6.222  1.00  0.00     0.009 A 
ENDBRANCH  29  30
ENDBRANCH   1  29
TORSDOF 5
ENDMDL
MODEL 5
REMARK VINA RESULT:      -9.3      1.559      5.326
REMARK  5 active torsions:
REMARK  status: ('A' for Active; 'I' for Inactive)
REMARK    1  A    between atoms: C_4  and  C_5 
REMARK    2  A    between atoms: C_5  and  N_6 
REMARK    3  A    between atoms: C_7  and  N_8 
REMARK    4  A    between atoms: N_8  and  N_9 
REMARK       I    between atoms: N_9  and  C_10 
REMARK    5  A    between atoms: C_10  and  C_11 
ROOT
HETATM    1  N   UNL     1      40.941 -13.037   1.165  1.00  0.00    -0.282 N 
HETATM    2  C   UNL     1      41.636 -14.192   0.750  1.00  0.00     0.204 A 
HETATM    3  N   UNL     1      41.337 -14.878  -0.330  1.00  0.00    -0.217 NA
HETATM    4  C   UNL     1      40.236 -14.424  -1.049  1.00  0.00     0.090 A 
HETATM    5  C   UNL     1      39.506 -13.326  -0.683  1.00  0.00     0.103 A 
HETATM    6  S   UNL     1      38.198 -13.012  -1.742  1.00  0.00    -0.086 SA
HETATM    7  C   UNL     1      38.620 -14.351  -2.661  1.00  0.00    -0.008 A 
HETATM    8  C   UNL     1      39.719 -15.029  -2.199  1.00  0.00    -0.015 A 
HETATM    9  C   UNL     1      40.022 -16.204  -3.045  1.00  0.00     0.042 C 
HETATM   10  C   UNL     1      39.134 -15.941  -4.305  1.00  0.00     0.010 C 
HETATM   11  C   UNL     1      38.014 -14.942  -3.875  1.00  0.00     0.047 C 
HETATM   12  C   UNL     1      39.827 -12.543   0.468  1.00  0.00     0.269 A 
HETATM   13  O   UNL     1      39.196 -11.547   0.821  1.00  0.00    -0.266 OA
ENDROOT
BRANCH   2  14
HETATM   14  N   UNL     1      42.700 -14.618   1.529  1.00  0.00    -0.170 NA
HETATM   15  H   UNL     1      42.823 -14.146   2.426  1.00  0.00     0.156 HD
BRANCH  14  16
HETATM   16  N   UNL     1      42.872 -16.004   1.661  1.00  0.00    -0.279 N 
HETATM   17  C   UNL     1      43.302 -16.492   2.879  1.00  0.00     0.289 C 
HETATM   18  O   UNL     1      43.396 -15.754   3.862  1.00  0.00    -0.264 OA
HETATM   19  H   UNL     1      42.734 -16.579   0.833  1.00  0.00     0.184 HD
BRANCH  17  20
HETATM   20  C   UNL     1      43.650 -17.893   2.882  1.00  0.00     0.145 A 
HETATM   21  O   UNL     1      44.150 -18.462   4.024  1.00  0.00    -0.304 OA
HETATM   22  C   UNL     1      44.305 -19.792   3.776  1.00  0.00     0.086 A 
HETATM   23  C   UNL     1      43.935 -20.088   2.469  1.00  0.00     0.001 A 
HETATM   24  C   UNL     1      44.757 -20.739   4.692  1.00  0.00     0.038 A 
HETATM   25  C   UNL     1      43.523 -18.857   1.899  1.00  0.00     0.057 A 
HETATM   26  C   UNL     1      44.024 -21.420   2.030  1.00  0.00     0.014 A 
HETATM   27  C   UNL     1      44.472 -22.397   2.931  1.00  0.00     0.001 A 
HETATM   28  C   UNL     1      44.830 -22.060   4.240  1.00  0.00     0.003 A 
ENDBRANCH  17  20
ENDBRANCH  14  16
ENDBRANCH   2  14
BRANCH   1  29
HETATM   29  C   UNL     1      41.408 -12.213   2.281  1.00  0.00     0.173 C 
BRANCH  29  30
HETATM   30  C   UNL     1      40.621 -12.464   3.552  1.00  0.00    -0.040 A 
HETATM   31  C   UNL     1      39.990 -11.401   4.215  1.00  0.00     0.009 A 
HETATM   32  C   UNL     1      39.282 -11.619   5.398  1.00  0.00     0.001 A 
HETATM   33  C   UNL     1      39.199 -12.902   5.934  1.00  0.00     0.000 A 
HETATM   34  C   UNL     1      39.820 -13.967   5.287  1.00  0.00     0.001 A 
HETATM   35  C   UNL     1      40.526 -13.751   4.101  1.00  0.00     0.009 A 
ENDBRANCH  29  30
ENDBRANCH   1  29
TORSDOF 5
ENDMDL
MODEL 6
REMARK VINA RESULT:      -9.2      2.667      8.298
REMARK  5 active torsions:
REMARK  status: ('A' for Active; 'I' for Inactive)
REMARK    1  A    between atoms: C_4  and  C_5 
REMARK    2  A    between atoms: C_5  and  N_6 
REMARK    3  A    between atoms: C_7  and  N_8 
REMARK    4  A    between atoms: N_8  and  N_9 
REMARK       I    between atoms: N_9  and  C_10 
REMARK    5  A    between atoms: C_10  and  C_11 
ROOT
HETATM    1  N   UNL     1      41.161 -16.374   5.137  1.00  0.00    -0.282 N 
HETATM    2  C   UNL     1      40.954 -16.663   3.772  1.00  0.00     0.204 A 
HETATM    3  N   UNL     1      41.609 -17.591   3.112  1.00  0.00    -0.217 NA
HETATM    4  C   UNL     1      42.584 -18.271   3.835  1.00  0.00     0.090 A 
HETATM    5  C   UNL     1      42.850 -18.019   5.153  1.00  0.00     0.103 A 
HETATM    6  S   UNL     1      44.111 -18.993   5.777  1.00  0.00    -0.086 SA
HETATM    7  C   UNL     1      44.288 -19.726   4.278  1.00  0.00    -0.008 A 
HETATM    8  C   UNL     1      43.426 -19.262   3.319  1.00  0.00    -0.015 A 
HETATM    9  C   UNL     1      43.650 -19.938   2.022  1.00  0.00     0.042 C 
HETATM   10  C   UNL     1      44.564 -21.140   2.429  1.00  0.00     0.010 C 
HETATM   11  C   UNL     1      45.217 -20.773   3.799  1.00  0.00     0.047 C 
HETATM   12  C   UNL     1      42.132 -17.037   5.903  1.00  0.00     0.269 A 
HETATM   13  O   UNL     1      42.341 -16.790   7.091  1.00  0.00    -0.266 OA
ENDROOT
BRANCH   2  14
HETATM   14  N   UNL     1      39.996 -15.924   3.096  1.00  0.00    -0.170 NA
HETATM   15  H   UNL     1      39.328 -15.411   3.672  1.00  0.00     0.156 HD
BRANCH  14  16
HETATM   16  N   UNL     1      40.445 -15.136   2.025  1.00  0.00    -0.279 N 
HETATM   17  C   UNL     1      39.500 -14.589   1.180  1.00  0.00     0.289 C 
HETATM   18  O   UNL     1      38.296 -14.668   1.436  1.00  0.00    -0.264 OA
HETATM   19  H   UNL     1      41.450 -15.058   1.883  1.00  0.00     0.184 HD
BRANCH  17  20
HETATM   20  C   UNL     1      40.036 -13.965  -0.006  1.00  0.00     0.145 A 
HETATM   21  O   UNL     1      41.017 -13.016   0.114  1.00  0.00    -0.304 OA
HETATM   22  C   UNL     1      41.394 -12.665  -1.146  1.00  0.00     0.086 A 
HETATM   23  C   UNL     1      40.645 -13.361  -2.088  1.00  0.00     0.001 A 
HETATM   24  C   UNL     1      42.396 -11.751  -1.466  1.00  0.00     0.038 A 
HETATM   25  C   UNL     1      39.768 -14.189  -1.344  1.00  0.00     0.057 A 
HETATM   26  C   UNL     1      40.899 -13.132  -3.451  1.00  0.00     0.014 A 
HETATM   27  C   UNL     1      41.903 -12.220  -3.805  1.00  0.00     0.001 A 
HETATM   28  C   UNL     1      42.640 -11.543  -2.827  1.00  0.00     0.003 A 
ENDBRANCH  17  20
ENDBRANCH  14  16
ENDBRANCH   2  14
BRANCH   1  29
HETATM   29  C   UNL     1      40.299 -15.445   5.870  1.00  0.00     0.173 C 
BRANCH  29  30
HETATM   30  C   UNL     1      40.592 -13.997   5.533  1.00  0.00    -0.040 A 
HETATM   31  C   UNL     1      39.561 -13.046   5.543  1.00  0.00     0.009 A 
HETATM   32  C   UNL     1      39.818 -11.714   5.212  1.00  0.00     0.001 A 
HETATM   33  C   UNL     1      41.107 -11.318   4.864  1.00  0.00     0.000 A 
HETATM   34  C   UNL     1      42.140 -12.251   4.851  1.00  0.00     0.001 A 
HETATM   35  C   UNL     1      41.886 -13.583   5.185  1.00  0.00     0.009 A 
ENDBRANCH  29  30
ENDBRANCH   1  29
TORSDOF 5
ENDMDL
MODEL 7
REMARK VINA RESULT:      -9.1      1.688      2.320
REMARK  5 active torsions:
REMARK  status: ('A' for Active; 'I' for Inactive)
REMARK    1  A    between atoms: C_4  and  C_5 
REMARK    2  A    between atoms: C_5  and  N_6 
REMARK    3  A    between atoms: C_7  and  N_8 
REMARK    4  A    between atoms: N_8  and  N_9 
REMARK       I    between atoms: N_9  and  C_10 
REMARK    5  A    between atoms: C_10  and  C_11 
ROOT
HETATM    1  N   UNL     1      38.679 -13.583   1.176  1.00  0.00    -0.282 N 
HETATM    2  C   UNL     1      39.121 -14.490   2.161  1.00  0.00     0.204 A 
HETATM    3  N   UNL     1      39.384 -14.152   3.403  1.00  0.00    -0.217 NA
HETATM    4  C   UNL     1      39.245 -12.801   3.704  1.00  0.00     0.090 A 
HETATM    5  C   UNL     1      38.845 -11.868   2.786  1.00  0.00     0.103 A 
HETATM    6  S   UNL     1      38.780 -10.284   3.430  1.00  0.00    -0.086 SA
HETATM    7  C   UNL     1      39.296 -10.867   4.916  1.00  0.00    -0.008 A 
HETATM    8  C   UNL     1      39.515 -12.220   4.947  1.00  0.00    -0.015 A 
HETATM    9  C   UNL     1      39.984 -12.659   6.279  1.00  0.00     0.042 C 
HETATM   10  C   UNL     1      39.689 -11.405   7.164  1.00  0.00     0.010 C 
HETATM   11  C   UNL     1      39.572 -10.183   6.200  1.00  0.00     0.047 C 
HETATM   12  C   UNL     1      38.523 -12.212   1.437  1.00  0.00     0.269 A 
HETATM   13  O   UNL     1      38.154 -11.401   0.589  1.00  0.00    -0.266 OA
ENDROOT
BRANCH   2  14
HETATM   14  N   UNL     1      39.279 -15.816   1.790  1.00  0.00    -0.170 NA
HETATM   15  H   UNL     1      39.242 -16.015   0.790  1.00  0.00     0.156 HD
BRANCH  14  16
HETATM   16  N   UNL     1      40.321 -16.526   2.406  1.00  0.00    -0.279 N 
HETATM   17  C   UNL     1      41.336 -17.013   1.608  1.00  0.00     0.289 C 
HETATM   18  O   UNL     1      41.404 -16.715   0.413  1.00  0.00    -0.264 OA
HETATM   19  H   UNL     1      40.246 -16.703   3.406  1.00  0.00     0.184 HD
BRANCH  17  20
HETATM   20  C   UNL     1      42.260 -17.899   2.275  1.00  0.00     0.145 A 
HETATM   21  O   UNL     1      42.413 -17.817   3.635  1.00  0.00    -0.304 OA
HETATM   22  C   UNL     1      43.265 -18.812   4.004  1.00  0.00     0.086 A 
HETATM   23  C   UNL     1      43.691 -19.525   2.890  1.00  0.00     0.001 A 
HETATM   24  C   UNL     1      43.657 -19.098   5.310  1.00  0.00     0.038 A 
HETATM   25  C   UNL     1      43.044 -18.924   1.780  1.00  0.00     0.057 A 
HETATM   26  C   UNL     1      44.576 -20.600   3.077  1.00  0.00     0.014 A 
HETATM   27  C   UNL     1      44.986 -20.915   4.381  1.00  0.00     0.001 A 
HETATM   28  C   UNL     1      44.531 -20.176   5.478  1.00  0.00     0.003 A 
ENDBRANCH  17  20
ENDBRANCH  14  16
ENDBRANCH   2  14
BRANCH   1  29
HETATM   29  C   UNL     1      38.244 -14.030  -0.148  1.00  0.00     0.173 C 
BRANCH  29  30
HETATM   30  C   UNL     1      39.373 -14.024  -1.159  1.00  0.00    -0.040 A 
HETATM   31  C   UNL     1      40.654 -13.589  -0.787  1.00  0.00     0.009 A 
HETATM   32  C   UNL     1      41.693 -13.558  -1.718  1.00  0.00     0.001 A 
HETATM   33  C   UNL     1      41.465 -13.958  -3.033  1.00  0.00     0.000 A 
HETATM   34  C   UNL     1      40.199 -14.393  -3.416  1.00  0.00     0.001 A 
HETATM   35  C   UNL     1      39.158 -14.427  -2.486  1.00  0.00     0.009 A 
ENDBRANCH  29  30
ENDBRANCH   1  29
TORSDOF 5
ENDMDL
MODEL 8
REMARK VINA RESULT:      -9.0      2.100      5.421
REMARK  5 active torsions:
REMARK  status: ('A' for Active; 'I' for Inactive)
REMARK    1  A    between atoms: C_4  and  C_5 
REMARK    2  A    between atoms: C_5  and  N_6 
REMARK    3  A    between atoms: C_7  and  N_8 
REMARK    4  A    between atoms: N_8  and  N_9 
REMARK       I    between atoms: N_9  and  C_10 
REMARK    5  A    between atoms: C_10  and  C_11 
ROOT
HETATM    1  N   UNL     1      40.223 -14.473   1.645  1.00  0.00    -0.282 N 
HETATM    2  C   UNL     1      41.603 -14.305   1.406  1.00  0.00     0.204 A 
HETATM    3  N   UNL     1      42.096 -13.770   0.312  1.00  0.00    -0.217 NA
HETATM    4  C   UNL     1      41.165 -13.404  -0.655  1.00  0.00     0.090 A 
HETATM    5  C   UNL     1      39.816 -13.566  -0.492  1.00  0.00     0.103 A 
HETATM    6  S   UNL     1      38.914 -13.044  -1.850  1.00  0.00    -0.086 SA
HETATM    7  C   UNL     1      40.337 -12.624  -2.635  1.00  0.00    -0.008 A 
HETATM    8  C   UNL     1      41.474 -12.861  -1.906  1.00  0.00    -0.015 A 
HETATM    9  C   UNL     1      42.687 -12.484  -2.664  1.00  0.00     0.042 C 
HETATM   10  C   UNL     1      42.092 -11.655  -3.849  1.00  0.00     0.010 C 
HETATM   11  C   UNL     1      40.589 -12.056  -3.978  1.00  0.00     0.047 C 
HETATM   12  C   UNL     1      39.250 -14.116   0.699  1.00  0.00     0.269 A 
HETATM   13  O   UNL     1      38.042 -14.268   0.880  1.00  0.00    -0.266 OA
ENDROOT
BRANCH   2  14
HETATM   14  N   UNL     1      42.483 -14.726   2.390  1.00  0.00    -0.170 NA
HETATM   15  H   UNL     1      42.381 -14.288   3.307  1.00  0.00     0.156 HD
BRANCH  14  16
HETATM   16  N   UNL     1      42.681 -16.109   2.513  1.00  0.00    -0.279 N 
HETATM   17  C   UNL     1      43.094 -16.601   3.735  1.00  0.00     0.289 C 
HETATM   18  O   UNL     1      43.151 -15.871   4.727  1.00  0.00    -0.264 OA
HETATM   19  H   UNL     1      42.572 -16.679   1.677  1.00  0.00     0.184 HD
BRANCH  17  20
HETATM   20  C   UNL     1      43.470 -17.994   3.732  1.00  0.00     0.145 A 
HETATM   21  O   UNL     1      43.268 -18.747   2.604  1.00  0.00    -0.304 OA
HETATM   22  C   UNL     1      43.787 -19.982   2.846  1.00  0.00     0.086 A 
HETATM   23  C   UNL     1      44.303 -20.047   4.135  1.00  0.00     0.001 A 
HETATM   24  C   UNL     1      43.818 -21.038   1.938  1.00  0.00     0.038 A 
HETATM   25  C   UNL     1      44.087 -18.765   4.700  1.00  0.00     0.057 A 
HETATM   26  C   UNL     1      44.890 -21.250   4.564  1.00  0.00     0.014 A 
HETATM   27  C   UNL     1      44.939 -22.330   3.672  1.00  0.00     0.001 A 
HETATM   28  C   UNL     1      44.413 -22.224   2.381  1.00  0.00     0.003 A 
ENDBRANCH  17  20
ENDBRANCH  14  16
ENDBRANCH   2  14
BRANCH   1  29
HETATM   29  C   UNL     1      39.712 -14.923   2.941  1.00  0.00     0.173 C 
BRANCH  29  30
HETATM   30  C   UNL     1      39.652 -13.801   3.958  1.00  0.00    -0.040 A 
HETATM   31  C   UNL     1      39.424 -12.480   3.543  1.00  0.00     0.009 A 
HETATM   32  C   UNL     1      39.389 -11.438   4.470  1.00  0.00     0.001 A 
HETATM   33  C   UNL     1      39.584 -11.702   5.824  1.00  0.00     0.000 A 
HETATM   34  C   UNL     1      39.811 -13.007   6.251  1.00  0.00     0.001 A 
HETATM   35  C   UNL     1      39.843 -14.052   5.325  1.00  0.00     0.009 A 
ENDBRANCH  29  30
ENDBRANCH   1  29
TORSDOF 5
ENDMDL
MODEL 9
REMARK VINA RESULT:      -9.0      4.152      7.920
REMARK  5 active torsions:
REMARK  status: ('A' for Active; 'I' for Inactive)
REMARK    1  A    between atoms: C_4  and  C_5 
REMARK    2  A    between atoms: C_5  and  N_6 
REMARK    3  A    between atoms: C_7  and  N_8 
REMARK    4  A    between atoms: N_8  and  N_9 
REMARK       I    between atoms: N_9  and  C_10 
REMARK    5  A    between atoms: C_10  and  C_11 
ROOT
HETATM    1  N   UNL     1      40.569 -15.114   3.418  1.00  0.00    -0.282 N 
HETATM    2  C   UNL     1      41.118 -14.480   4.552  1.00  0.00     0.204 A 
HETATM    3  N   UNL     1      42.099 -14.981   5.268  1.00  0.00    -0.217 NA
HETATM    4  C   UNL     1      42.559 -16.232   4.871  1.00  0.00     0.090 A 
HETATM    5  C   UNL     1      42.050 -16.909   3.796  1.00  0.00     0.103 A 
HETATM    6  S   UNL     1      42.796 -18.430   3.554  1.00  0.00    -0.086 SA
HETATM    7  C   UNL     1      43.774 -18.165   4.891  1.00  0.00    -0.008 A 
HETATM    8  C   UNL     1      43.561 -16.964   5.516  1.00  0.00    -0.015 A 
HETATM    9  C   UNL     1      44.444 -16.806   6.693  1.00  0.00     0.042 C 
HETATM   10  C   UNL     1      45.478 -17.961   6.488  1.00  0.00     0.010 C 
HETATM   11  C   UNL     1      44.818 -18.999   5.527  1.00  0.00     0.047 C 
HETATM   12  C   UNL     1      41.005 -16.375   2.981  1.00  0.00     0.269 A 
HETATM   13  O   UNL     1      40.530 -16.954   2.005  1.00  0.00    -0.266 OA
ENDROOT
BRANCH   2  14
HETATM   14  N   UNL     1      40.590 -13.253   4.922  1.00  0.00    -0.170 NA
HETATM   15  H   UNL     1      39.600 -13.106   4.721  1.00  0.00     0.156 HD
BRANCH  14  16
HETATM   16  N   UNL     1      40.919 -12.783   6.202  1.00  0.00    -0.279 N 
HETATM   17  C   UNL     1      41.371 -11.484   6.321  1.00  0.00     0.289 C 
HETATM   18  O   UNL     1      41.353 -10.713   5.358  1.00  0.00    -0.264 OA
HETATM   19  H   UNL     1      40.869 -13.442   6.976  1.00  0.00     0.184 HD
BRANCH  17  20
HETATM   20  C   UNL     1      41.880 -11.136   7.626  1.00  0.00     0.145 A 
HETATM   21  O   UNL     1      43.120 -11.578   8.008  1.00  0.00    -0.304 OA
HETATM   22  C   UNL     1      43.380 -11.037   9.230  1.00  0.00     0.086 A 
HETATM   23  C   UNL     1      42.305 -10.268   9.660  1.00  0.00     0.001 A 
HETATM   24  C   UNL     1      44.557 -11.209   9.957  1.00  0.00     0.038 A 
HETATM   25  C   UNL     1      41.341 -10.344   8.624  1.00  0.00     0.057 A 
HETATM   26  C   UNL     1      42.395  -9.623  10.905  1.00  0.00     0.014 A 
HETATM   27  C   UNL     1      43.568  -9.774  11.658  1.00  0.00     0.001 A 
HETATM   28  C   UNL     1      44.631 -10.553  11.189  1.00  0.00     0.003 A 
ENDBRANCH  17  20
ENDBRANCH  14  16
ENDBRANCH   2  14
BRANCH   1  29
HETATM   29  C   UNL     1      39.591 -14.448   2.557  1.00  0.00     0.173 C 
BRANCH  29  30
HETATM   30  C   UNL     1      40.223 -13.866   1.308  1.00  0.00    -0.040 A 
HETATM   31  C   UNL     1      41.351 -13.037   1.406  1.00  0.00     0.009 A 
HETATM   32  C   UNL     1      41.925 -12.479   0.263  1.00  0.00     0.001 A 
HETATM   33  C   UNL     1      41.379 -12.741  -0.992  1.00  0.00     0.000 A 
HETATM   34  C   UNL     1      40.260 -13.563  -1.104  1.00  0.00     0.001 A 
HETATM   35  C   UNL     1      39.686 -14.124   0.038  1.00  0.00     0.009 A 
ENDBRANCH  29  30
ENDBRANCH   1  29
TORSDOF 5
ENDMDL
MODEL 10
REMARK VINA RESULT:      -9.0      2.782      6.564
REMARK  5 active torsions:
REMARK  status: ('A' for Active; 'I' for Inactive)
REMARK    1  A    between atoms: C_4  and  C_5 
REMARK    2  A    between atoms: C_5  and  N_6 
REMARK    3  A    between atoms: C_7  and  N_8 
REMARK    4  A    between atoms: N_8  and  N_9 
REMARK       I    between atoms: N_9  and  C_10 
REMARK    5  A    between atoms: C_10  and  C_11 
ROOT
HETATM    1  N   UNL     1      40.911 -12.225   5.270  1.00  0.00    -0.282 N 
HETATM    2  C   UNL     1      40.503 -13.563   5.085  1.00  0.00     0.204 A 
HETATM    3  N   UNL     1      39.853 -13.991   4.027  1.00  0.00    -0.217 NA
HETATM    4  C   UNL     1      39.534 -13.022   3.081  1.00  0.00     0.090 A 
HETATM    5  C   UNL     1      39.878 -11.705   3.216  1.00  0.00     0.103 A 
HETATM    6  S   UNL     1      39.340 -10.739   1.909  1.00  0.00    -0.086 SA
HETATM    7  C   UNL     1      38.647 -12.090   1.195  1.00  0.00    -0.008 A 
HETATM    8  C   UNL     1      38.810 -13.250   1.907  1.00  0.00    -0.015 A 
HETATM    9  C   UNL     1      38.161 -14.393   1.228  1.00  0.00     0.042 C 
HETATM   10  C   UNL     1      37.866 -13.810  -0.193  1.00  0.00     0.010 C 
HETATM   11  C   UNL     1      37.880 -12.255  -0.060  1.00  0.00     0.047 C 
HETATM   12  C   UNL     1      40.612 -11.217   4.341  1.00  0.00     0.269 A 
HETATM   13  O   UNL     1      40.943 -10.041   4.489  1.00  0.00    -0.266 OA
ENDROOT
BRANCH   2  14
HETATM   14  N   UNL     1      40.817 -14.474   6.081  1.00  0.00    -0.170 NA
HETATM   15  H   UNL     1      40.138 -14.571   6.838  1.00  0.00     0.156 HD
BRANCH  14  16
HETATM   16  N   UNL     1      41.287 -15.729   5.665  1.00  0.00    -0.279 N 
HETATM   17  C   UNL     1      42.652 -15.919   5.593  1.00  0.00     0.289 C 
HETATM   18  O   UNL     1      43.437 -15.067   6.016  1.00  0.00    -0.264 OA
HETATM   19  H   UNL     1      40.599 -16.420   5.374  1.00  0.00     0.184 HD
BRANCH  17  20
HETATM   20  C   UNL     1      43.060 -17.155   4.968  1.00  0.00     0.145 A 
HETATM   21  O   UNL     1      42.537 -17.501   3.749  1.00  0.00    -0.304 OA
HETATM   22  C   UNL     1      43.152 -18.651   3.359  1.00  0.00     0.086 A 
HETATM   23  C   UNL     1      44.054 -19.072   4.330  1.00  0.00     0.001 A 
HETATM   24  C   UNL     1      42.931 -19.319   2.156  1.00  0.00     0.038 A 
HETATM   25  C   UNL     1      43.982 -18.107   5.365  1.00  0.00     0.057 A 
HETATM   26  C   UNL     1      44.791 -20.246   4.098  1.00  0.00     0.014 A 
HETATM   27  C   UNL     1      44.594 -20.938   2.895  1.00  0.00     0.001 A 
HETATM   28  C   UNL     1      43.680 -20.480   1.941  1.00  0.00     0.003 A 
ENDBRANCH  17  20
ENDBRANCH  14  16
ENDBRANCH   2  14
BRANCH   1  29
HETATM   29  C   UNL     1      41.771 -11.826   6.385  1.00  0.00     0.173 C 
BRANCH  29  30
HETATM   30  C   UNL     1      41.024 -11.026   7.433  1.00  0.00    -0.040 A 
HETATM   31  C   UNL     1      41.612  -9.889   8.008  1.00  0.00     0.009 A 
HETATM   32  C   UNL     1      40.940  -9.160   8.990  1.00  0.00     0.001 A 
HETATM   33  C   UNL     1      39.673  -9.558   9.411  1.00  0.00     0.000 A 
HETATM   34  C   UNL     1      39.077 -10.684   8.849  1.00  0.00     0.001 A 
HETATM   35  C   UNL     1      39.747 -11.414   7.864  1.00  0.00     0.009 A 
ENDBRANCH  29  30
ENDBRANCH   1  29
TORSDOF 5
ENDMDL
