MODEL 1
REMARK VINA RESULT:      -8.1      0.000      0.000
REMARK  5 active torsions:
REMARK  status: ('A' for Active; 'I' for Inactive)
REMARK    1  A    between atoms: C_2  and  C_3 
REMARK       I    between atoms: C_3  and  N_4 
REMARK    2  A    between atoms: N_4  and  C_5 
REMARK    3  A    between atoms: C_5  and  C_6 
REMARK    4  A    between atoms: C_5  and  C_17 
REMARK    5  A    between atoms: C_7  and  O_8 
ROOT
HETATM    1  C   UNL     1      42.222 -16.452   3.454  1.00  0.00     0.154 C 
ENDROOT
BRANCH   1   2
HETATM    2  N   UNL     1      43.209 -15.583   4.089  1.00  0.00    -0.348 N 
HETATM    3  C   UNL     1      42.868 -14.755   5.136  1.00  0.00     0.218 C 
HETATM    4  O   UNL     1      41.712 -14.577   5.511  1.00  0.00    -0.274 OA
HETATM    5  H   UNL     1      44.160 -15.921   4.087  1.00  0.00     0.163 HD
BRANCH   3   6
HETATM    6  C   UNL     1      44.049 -14.134   5.854  1.00  0.00     0.098 C 
HETATM    7  C   UNL     1      44.585 -14.987   6.990  1.00  0.00     0.014 C 
ENDBRANCH   3   6
ENDBRANCH   1   2
BRANCH   1   8
HETATM    8  C   UNL     1      41.556 -15.796   2.249  1.00  0.00     0.005 A 
HETATM    9  C   UNL     1      40.232 -15.314   2.328  1.00  0.00     0.103 A 
HETATM   10  C   UNL     1      39.543 -14.748   1.243  1.00  0.00     0.100 A 
HETATM   11  C   UNL     1      40.241 -14.645   0.023  1.00  0.00    -0.004 A 
HETATM   12  N   UNL     1      38.267 -14.305   1.357  1.00  0.00    -0.257 NA
HETATM   13  C   UNL     1      41.570 -15.084  -0.075  1.00  0.00     0.014 A 
HETATM   14  C   UNL     1      39.579 -14.091  -1.083  1.00  0.00     0.015 A 
HETATM   15  C   UNL     1      42.221 -15.644   1.026  1.00  0.00     0.013 A 
HETATM   16  C   UNL     1      38.268 -13.652  -0.960  1.00  0.00     0.020 A 
HETATM   17  C   UNL     1      37.661 -13.778   0.272  1.00  0.00     0.117 A 
BRANCH   9  18
HETATM   18  O   UNL     1      39.581 -15.379   3.543  1.00  0.00    -0.358 OA
HETATM   19  H   UNL     1      39.563 -14.452   3.877  1.00  0.00     0.218 HD
ENDBRANCH   9  18
ENDBRANCH   1   8
BRANCH   1  20
HETATM   20  C   UNL     1      42.819 -17.831   3.161  1.00  0.00    -0.031 A 
HETATM   21  C   UNL     1      43.795 -18.352   4.025  1.00  0.00     0.010 A 
HETATM   22  C   UNL     1      44.387 -19.593   3.774  1.00  0.00     0.007 A 
HETATM   23  C   UNL     1      44.016 -20.343   2.653  1.00  0.00    -0.062 A 
HETATM   24  C   UNL     1      44.634 -21.684   2.396  1.00  0.00     0.048 C 
HETATM   25  C   UNL     1      43.016 -19.851   1.809  1.00  0.00     0.007 A 
HETATM   26  C   UNL     1      42.427 -18.608   2.056  1.00  0.00     0.010 A 
ENDBRANCH   1  20
TORSDOF 5
ENDMDL
MODEL 2
REMARK VINA RESULT:      -8.1      1.933      2.390
REMARK  5 active torsions:
REMARK  status: ('A' for Active; 'I' for Inactive)
REMARK    1  A    between atoms: C_2  and  C_3 
REMARK       I    between atoms: C_3  and  N_4 
REMARK    2  A    between atoms: N_4  and  C_5 
REMARK    3  A    between atoms: C_5  and  C_6 
REMARK    4  A    between atoms: C_5  and  C_17 
REMARK    5  A    between atoms: C_7  and  O_8 
ROOT
HETATM    1  C   UNL     1      42.421 -17.320   4.623  1.00  0.00     0.154 C 
ENDROOT
BRANCH   1   2
HETATM    2  N   UNL     1      43.134 -17.138   5.885  1.00  0.00    -0.348 N 
HETATM    3  C   UNL     1      42.470 -17.150   7.092  1.00  0.00     0.218 C 
HETATM    4  O   UNL     1      41.246 -17.166   7.193  1.00  0.00    -0.274 OA
HETATM    5  H   UNL     1      44.088 -17.468   5.903  1.00  0.00     0.163 HD
BRANCH   3   6
HETATM    6  C   UNL     1      43.376 -17.225   8.304  1.00  0.00     0.098 C 
HETATM    7  C   UNL     1      44.232 -18.478   8.343  1.00  0.00     0.014 C 
ENDBRANCH   3   6
ENDBRANCH   1   2
BRANCH   1   8
HETATM    8  C   UNL     1      42.333 -16.032   3.811  1.00  0.00     0.005 A 
HETATM    9  C   UNL     1      41.160 -15.709   3.094  1.00  0.00     0.103 A 
HETATM   10  C   UNL     1      41.032 -14.566   2.287  1.00  0.00     0.100 A 
HETATM   11  C   UNL     1      42.140 -13.698   2.222  1.00  0.00    -0.004 A 
HETATM   12  N   UNL     1      39.891 -14.296   1.605  1.00  0.00    -0.257 NA
HETATM   13  C   UNL     1      43.306 -13.977   2.952  1.00  0.00     0.014 A 
HETATM   14  C   UNL     1      42.047 -12.552   1.418  1.00  0.00     0.015 A 
HETATM   15  C   UNL     1      43.396 -15.124   3.742  1.00  0.00     0.013 A 
HETATM   16  C   UNL     1      40.879 -12.290   0.714  1.00  0.00     0.020 A 
HETATM   17  C   UNL     1      39.837 -13.184   0.841  1.00  0.00     0.117 A 
BRANCH   9  18
HETATM   18  O   UNL     1      40.069 -16.545   3.208  1.00  0.00    -0.358 OA
HETATM   19  H   UNL     1      40.243 -17.090   4.010  1.00  0.00     0.218 HD
ENDBRANCH   9  18
ENDBRANCH   1   8
BRANCH   1  20
HETATM   20  C   UNL     1      42.989 -18.509   3.843  1.00  0.00    -0.031 A 
HETATM   21  C   UNL     1      43.939 -19.339   4.458  1.00  0.00     0.010 A 
HETATM   22  C   UNL     1      44.505 -20.415   3.768  1.00  0.00     0.007 A 
HETATM   23  C   UNL     1      44.134 -20.686   2.447  1.00  0.00    -0.062 A 
HETATM   24  C   UNL     1      44.724 -21.854   1.715  1.00  0.00     0.048 C 
HETATM   25  C   UNL     1      43.159 -19.889   1.840  1.00  0.00     0.007 A 
HETATM   26  C   UNL     1      42.596 -18.811   2.527  1.00  0.00     0.010 A 
ENDBRANCH   1  20
TORSDOF 5
ENDMDL
MODEL 3
REMARK VINA RESULT:      -8.0      1.885      6.351
REMARK  5 active torsions:
REMARK  status: ('A' for Active; 'I' for Inactive)
REMARK    1  A    between atoms: C_2  and  C_3 
REMARK       I    between atoms: C_3  and  N_4 
REMARK    2  A    between atoms: N_4  and  C_5 
REMARK    3  A    between atoms: C_5  and  C_6 
REMARK    4  A    between atoms: C_5  and  C_17 
REMARK    5  A    between atoms: C_7  and  O_8 
ROOT
HETATM    1  C   UNL     1      43.242 -16.177   3.083  1.00  0.00     0.154 C 
ENDROOT
BRANCH   1   2
HETATM    2  N   UNL     1      43.304 -15.723   4.470  1.00  0.00    -0.348 N 
HETATM    3  C   UNL     1      43.673 -14.435   4.788  1.00  0.00     0.218 C 
HETATM    4  O   UNL     1      44.110 -13.632   3.967  1.00  0.00    -0.274 OA
HETATM    5  H   UNL     1      42.657 -16.166   5.107  1.00  0.00     0.163 HD
BRANCH   3   6
HETATM    6  C   UNL     1      43.421 -14.049   6.231  1.00  0.00     0.098 C 
HETATM    7  C   UNL     1      44.669 -14.080   7.094  1.00  0.00     0.014 C 
ENDBRANCH   3   6
ENDBRANCH   1   2
BRANCH   1   8
HETATM    8  C   UNL     1      43.456 -17.681   2.951  1.00  0.00     0.005 A 
HETATM    9  C   UNL     1      43.966 -18.436   4.029  1.00  0.00     0.103 A 
HETATM   10  C   UNL     1      44.235 -19.813   3.957  1.00  0.00     0.100 A 
HETATM   11  C   UNL     1      43.951 -20.460   2.738  1.00  0.00    -0.004 A 
HETATM   12  N   UNL     1      44.734 -20.501   5.014  1.00  0.00    -0.257 NA
HETATM   13  C   UNL     1      43.411 -19.741   1.660  1.00  0.00     0.014 A 
HETATM   14  C   UNL     1      44.216 -21.833   2.631  1.00  0.00     0.015 A 
HETATM   15  C   UNL     1      43.159 -18.372   1.769  1.00  0.00     0.013 A 
HETATM   16  C   UNL     1      44.739 -22.527   3.714  1.00  0.00     0.020 A 
HETATM   17  C   UNL     1      44.977 -21.822   4.875  1.00  0.00     0.117 A 
BRANCH   9  18
HETATM   18  O   UNL     1      44.193 -17.795   5.230  1.00  0.00    -0.358 OA
HETATM   19  H   UNL     1      43.535 -18.179   5.856  1.00  0.00     0.218 HD
ENDBRANCH   9  18
ENDBRANCH   1   8
BRANCH   1  20
HETATM   20  C   UNL     1      41.970 -15.667   2.399  1.00  0.00    -0.031 A 
HETATM   21  C   UNL     1      42.084 -14.892   1.234  1.00  0.00     0.010 A 
HETATM   22  C   UNL     1      40.949 -14.382   0.598  1.00  0.00     0.007 A 
HETATM   23  C   UNL     1      39.673 -14.636   1.111  1.00  0.00    -0.062 A 
HETATM   24  C   UNL     1      38.454 -14.109   0.416  1.00  0.00     0.048 C 
HETATM   25  C   UNL     1      39.547 -15.441   2.247  1.00  0.00     0.007 A 
HETATM   26  C   UNL     1      40.682 -15.947   2.887  1.00  0.00     0.010 A 
ENDBRANCH   1  20
TORSDOF 5
ENDMDL
MODEL 4
REMARK VINA RESULT:      -7.8      1.739      2.350
REMARK  5 active torsions:
REMARK  status: ('A' for Active; 'I' for Inactive)
REMARK    1  A    between atoms: C_2  and  C_3 
REMARK       I    between atoms: C_3  and  N_4 
REMARK    2  A    between atoms: N_4  and  C_5 
REMARK    3  A    between atoms: C_5  and  C_6 
REMARK    4  A    between atoms: C_5  and  C_17 
REMARK    5  A    between atoms: C_7  and  O_8 
ROOT
HETATM    1  C   UNL     1      42.316 -17.061   4.156  1.00  0.00     0.154 C 
ENDROOT
BRANCH   1   2
HETATM    2  N   UNL     1      43.251 -16.314   4.993  1.00  0.00    -0.348 N 
HETATM    3  C   UNL     1      43.088 -16.238   6.358  1.00  0.00     0.218 C 
HETATM    4  O   UNL     1      42.092 -16.652   6.947  1.00  0.00    -0.274 OA
HETATM    5  H   UNL     1      44.204 -16.274   4.660  1.00  0.00     0.163 HD
BRANCH   3   6
HETATM    6  C   UNL     1      44.280 -15.670   7.101  1.00  0.00     0.098 C 
HETATM    7  C   UNL     1      44.692 -14.290   6.620  1.00  0.00     0.014 C 
ENDBRANCH   3   6
ENDBRANCH   1   2
BRANCH   1   8
HETATM    8  C   UNL     1      41.649 -16.183   3.101  1.00  0.00     0.005 A 
HETATM    9  C   UNL     1      42.342 -15.101   2.518  1.00  0.00     0.103 A 
HETATM   10  C   UNL     1      41.771 -14.224   1.581  1.00  0.00     0.100 A 
HETATM   11  C   UNL     1      40.437 -14.471   1.201  1.00  0.00    -0.004 A 
HETATM   12  N   UNL     1      42.468 -13.189   1.050  1.00  0.00    -0.257 NA
HETATM   13  C   UNL     1      39.734 -15.561   1.738  1.00  0.00     0.014 A 
HETATM   14  C   UNL     1      39.834 -13.609   0.273  1.00  0.00     0.015 A 
HETATM   15  C   UNL     1      40.336 -16.410   2.669  1.00  0.00     0.013 A 
HETATM   16  C   UNL     1      40.551 -12.545  -0.256  1.00  0.00     0.020 A 
HETATM   17  C   UNL     1      41.856 -12.380   0.160  1.00  0.00     0.117 A 
BRANCH   9  18
HETATM   18  O   UNL     1      43.663 -14.903   2.866  1.00  0.00    -0.358 OA
HETATM   19  H   UNL     1      44.033 -14.325   2.158  1.00  0.00     0.218 HD
ENDBRANCH   9  18
ENDBRANCH   1   8
BRANCH   1  20
HETATM   20  C   UNL     1      42.976 -18.320   3.588  1.00  0.00    -0.031 A 
HETATM   21  C   UNL     1      42.663 -18.727   2.282  1.00  0.00     0.010 A 
HETATM   22  C   UNL     1      43.220 -19.888   1.739  1.00  0.00     0.007 A 
HETATM   23  C   UNL     1      44.104 -20.669   2.490  1.00  0.00    -0.062 A 
HETATM   24  C   UNL     1      44.720 -21.903   1.900  1.00  0.00     0.048 C 
HETATM   25  C   UNL     1      44.454 -20.250   3.777  1.00  0.00     0.007 A 
HETATM   26  C   UNL     1      43.894 -19.092   4.322  1.00  0.00     0.010 A 
ENDBRANCH   1  20
TORSDOF 5
ENDMDL
MODEL 5
REMARK VINA RESULT:      -7.7      1.959      4.459
REMARK  5 active torsions:
REMARK  status: ('A' for Active; 'I' for Inactive)
REMARK    1  A    between atoms: C_2  and  C_3 
REMARK       I    between atoms: C_3  and  N_4 
REMARK    2  A    between atoms: N_4  and  C_5 
REMARK    3  A    between atoms: C_5  and  C_6 
REMARK    4  A    between atoms: C_5  and  C_17 
REMARK    5  A    between atoms: C_7  and  O_8 
ROOT
HETATM    1  C   UNL     1      42.723 -16.212   2.562  1.00  0.00     0.154 C 
ENDROOT
BRANCH   1   2
HETATM    2  N   UNL     1      42.683 -17.671   2.604  1.00  0.00    -0.348 N 
HETATM    3  C   UNL     1      43.311 -18.434   1.644  1.00  0.00     0.218 C 
HETATM    4  O   UNL     1      43.814 -17.964   0.626  1.00  0.00    -0.274 OA
HETATM    5  H   UNL     1      42.621 -18.084   3.523  1.00  0.00     0.163 HD
BRANCH   3   6
HETATM    6  C   UNL     1      43.410 -19.907   1.980  1.00  0.00     0.098 C 
HETATM    7  C   UNL     1      44.328 -20.202   3.153  1.00  0.00     0.014 C 
ENDBRANCH   3   6
ENDBRANCH   1   2
BRANCH   1   8
HETATM    8  C   UNL     1      41.418 -15.606   2.055  1.00  0.00     0.005 A 
HETATM    9  C   UNL     1      41.247 -15.300   0.688  1.00  0.00     0.103 A 
HETATM   10  C   UNL     1      40.092 -14.695   0.164  1.00  0.00     0.100 A 
HETATM   11  C   UNL     1      39.052 -14.407   1.069  1.00  0.00    -0.004 A 
HETATM   12  N   UNL     1      39.970 -14.408  -1.155  1.00  0.00    -0.257 NA
HETATM   13  C   UNL     1      39.181 -14.733   2.429  1.00  0.00     0.014 A 
HETATM   14  C   UNL     1      37.888 -13.795   0.580  1.00  0.00     0.015 A 
HETATM   15  C   UNL     1      40.345 -15.332   2.912  1.00  0.00     0.013 A 
HETATM   16  C   UNL     1      37.777 -13.493  -0.770  1.00  0.00     0.020 A 
HETATM   17  C   UNL     1      38.837 -13.818  -1.591  1.00  0.00     0.117 A 
BRANCH   9  18
HETATM   18  O   UNL     1      42.257 -15.633  -0.192  1.00  0.00    -0.358 OA
HETATM   19  H   UNL     1      43.006 -15.033   0.035  1.00  0.00     0.218 HD
ENDBRANCH   9  18
ENDBRANCH   1   8
BRANCH   1  20
HETATM   20  C   UNL     1      43.193 -15.641   3.903  1.00  0.00    -0.031 A 
HETATM   21  C   UNL     1      43.504 -14.275   3.993  1.00  0.00     0.010 A 
HETATM   22  C   UNL     1      43.967 -13.722   5.190  1.00  0.00     0.007 A 
HETATM   23  C   UNL     1      44.129 -14.522   6.326  1.00  0.00    -0.062 A 
HETATM   24  C   UNL     1      44.603 -13.924   7.617  1.00  0.00     0.048 C 
HETATM   25  C   UNL     1      43.783 -15.874   6.257  1.00  0.00     0.007 A 
HETATM   26  C   UNL     1      43.325 -16.429   5.060  1.00  0.00     0.010 A 
ENDBRANCH   1  20
TORSDOF 5
ENDMDL
MODEL 6
REMARK VINA RESULT:      -7.5      2.304      4.312
REMARK  5 active torsions:
REMARK  status: ('A' for Active; 'I' for Inactive)
REMARK    1  A    between atoms: C_2  and  C_3 
REMARK       I    between atoms: C_3  and  N_4 
REMARK    2  A    between atoms: N_4  and  C_5 
REMARK    3  A    between atoms: C_5  and  C_6 
REMARK    4  A    between atoms: C_5  and  C_17 
REMARK    5  A    between atoms: C_7  and  O_8 
ROOT
HETATM    1  C   UNL     1      42.674 -17.353   2.618  1.00  0.00     0.154 C 
ENDROOT
BRANCH   1   2
HETATM    2  N   UNL     1      42.536 -18.744   2.194  1.00  0.00    -0.348 N 
HETATM    3  C   UNL     1      43.639 -19.539   1.972  1.00  0.00     0.218 C 
HETATM    4  O   UNL     1      44.792 -19.114   1.968  1.00  0.00    -0.274 OA
HETATM    5  H   UNL     1      41.706 -19.222   2.514  1.00  0.00     0.163 HD
BRANCH   3   6
HETATM    6  C   UNL     1      43.327 -21.012   1.810  1.00  0.00     0.098 C 
HETATM    7  C   UNL     1      44.333 -21.923   2.490  1.00  0.00     0.014 C 
ENDBRANCH   3   6
ENDBRANCH   1   2
BRANCH   1   8
HETATM    8  C   UNL     1      41.540 -16.472   2.107  1.00  0.00     0.005 A 
HETATM    9  C   UNL     1      41.507 -16.043   0.762  1.00  0.00     0.103 A 
HETATM   10  C   UNL     1      40.521 -15.190   0.240  1.00  0.00     0.100 A 
HETATM   11  C   UNL     1      39.505 -14.769   1.121  1.00  0.00    -0.004 A 
HETATM   12  N   UNL     1      40.530 -14.793  -1.056  1.00  0.00    -0.257 NA
HETATM   13  C   UNL     1      39.493 -15.208   2.454  1.00  0.00     0.014 A 
HETATM   14  C   UNL     1      38.509 -13.910   0.633  1.00  0.00     0.015 A 
HETATM   15  C   UNL     1      40.492 -16.054   2.937  1.00  0.00     0.013 A 
HETATM   16  C   UNL     1      38.533 -13.499  -0.692  1.00  0.00     0.020 A 
HETATM   17  C   UNL     1      39.556 -13.966  -1.492  1.00  0.00     0.117 A 
BRANCH   9  18
HETATM   18  O   UNL     1      42.483 -16.505  -0.098  1.00  0.00    -0.358 OA
HETATM   19  H   UNL     1      42.465 -15.886  -0.865  1.00  0.00     0.218 HD
ENDBRANCH   9  18
ENDBRANCH   1   8
BRANCH   1  20
HETATM   20  C   UNL     1      42.897 -17.264   4.131  1.00  0.00    -0.031 A 
HETATM   21  C   UNL     1      42.598 -18.377   4.932  1.00  0.00     0.010 A 
HETATM   22  C   UNL     1      42.758 -18.325   6.320  1.00  0.00     0.007 A 
HETATM   23  C   UNL     1      43.219 -17.159   6.938  1.00  0.00    -0.062 A 
HETATM   24  C   UNL     1      43.412 -17.110   8.425  1.00  0.00     0.048 C 
HETATM   25  C   UNL     1      43.557 -16.059   6.145  1.00  0.00     0.007 A 
HETATM   26  C   UNL     1      43.394 -16.108   4.758  1.00  0.00     0.010 A 
ENDBRANCH   1  20
TORSDOF 5
ENDMDL
MODEL 7
REMARK VINA RESULT:      -7.3      2.836      3.698
REMARK  5 active torsions:
REMARK  status: ('A' for Active; 'I' for Inactive)
REMARK    1  A    between atoms: C_2  and  C_3 
REMARK       I    between atoms: C_3  and  N_4 
REMARK    2  A    between atoms: N_4  and  C_5 
REMARK    3  A    between atoms: C_5  and  C_6 
REMARK    4  A    between atoms: C_5  and  C_17 
REMARK    5  A    between atoms: C_7  and  O_8 
ROOT
HETATM    1  C   UNL     1      43.395 -14.868   6.144  1.00  0.00     0.154 C 
ENDROOT
BRANCH   1   2
HETATM    2  N   UNL     1      44.572 -14.004   6.188  1.00  0.00    -0.348 N 
HETATM    3  C   UNL     1      45.097 -13.569   7.385  1.00  0.00     0.218 C 
HETATM    4  O   UNL     1      44.549 -13.743   8.470  1.00  0.00    -0.274 OA
HETATM    5  H   UNL     1      45.233 -14.121   5.434  1.00  0.00     0.163 HD
BRANCH   3   6
HETATM    6  C   UNL     1      46.461 -12.920   7.271  1.00  0.00     0.098 C 
HETATM    7  C   UNL     1      46.676 -11.783   8.255  1.00  0.00     0.014 C 
ENDBRANCH   3   6
ENDBRANCH   1   2
BRANCH   1   8
HETATM    8  C   UNL     1      42.273 -14.281   5.294  1.00  0.00     0.005 A 
HETATM    9  C   UNL     1      42.558 -13.599   4.091  1.00  0.00     0.103 A 
HETATM   10  C   UNL     1      41.577 -12.992   3.289  1.00  0.00     0.100 A 
HETATM   11  C   UNL     1      40.240 -13.101   3.717  1.00  0.00    -0.004 A 
HETATM   12  N   UNL     1      41.893 -12.337   2.145  1.00  0.00    -0.257 NA
HETATM   13  C   UNL     1      39.924 -13.804   4.891  1.00  0.00     0.014 A 
HETATM   14  C   UNL     1      39.237 -12.498   2.943  1.00  0.00     0.015 A 
HETATM   15  C   UNL     1      40.926 -14.392   5.663  1.00  0.00     0.013 A 
HETATM   16  C   UNL     1      39.571 -11.819   1.780  1.00  0.00     0.020 A 
HETATM   17  C   UNL     1      40.903 -11.768   1.425  1.00  0.00     0.117 A 
BRANCH   9  18
HETATM   18  O   UNL     1      43.869 -13.543   3.662  1.00  0.00    -0.358 OA
HETATM   19  H   UNL     1      44.408 -13.803   4.446  1.00  0.00     0.218 HD
ENDBRANCH   9  18
ENDBRANCH   1   8
BRANCH   1  20
HETATM   20  C   UNL     1      43.783 -16.299   5.759  1.00  0.00    -0.031 A 
HETATM   21  C   UNL     1      44.614 -17.036   6.617  1.00  0.00     0.010 A 
HETATM   22  C   UNL     1      45.016 -18.333   6.287  1.00  0.00     0.007 A 
HETATM   23  C   UNL     1      44.596 -18.923   5.091  1.00  0.00    -0.062 A 
HETATM   24  C   UNL     1      45.008 -20.323   4.747  1.00  0.00     0.048 C 
HETATM   25  C   UNL     1      43.736 -18.213   4.249  1.00  0.00     0.007 A 
HETATM   26  C   UNL     1      43.337 -16.914   4.576  1.00  0.00     0.010 A 
ENDBRANCH   1  20
TORSDOF 5
ENDMDL
MODEL 8
REMARK VINA RESULT:      -7.3      2.693      4.973
REMARK  5 active torsions:
REMARK  status: ('A' for Active; 'I' for Inactive)
REMARK    1  A    between atoms: C_2  and  C_3 
REMARK       I    between atoms: C_3  and  N_4 
REMARK    2  A    between atoms: N_4  and  C_5 
REMARK    3  A    between atoms: C_5  and  C_6 
REMARK    4  A    between atoms: C_5  and  C_17 
REMARK    5  A    between atoms: C_7  and  O_8 
ROOT
HETATM    1  C   UNL     1      42.346 -15.423   1.877  1.00  0.00     0.154 C 
ENDROOT
BRANCH   1   2
HETATM    2  N   UNL     1      41.537 -15.596   0.673  1.00  0.00    -0.348 N 
HETATM    3  C   UNL     1      41.514 -14.640  -0.319  1.00  0.00     0.218 C 
HETATM    4  O   UNL     1      42.037 -13.534  -0.208  1.00  0.00    -0.274 OA
HETATM    5  H   UNL     1      41.397 -16.548   0.370  1.00  0.00     0.163 HD
BRANCH   3   6
HETATM    6  C   UNL     1      40.855 -15.090  -1.606  1.00  0.00     0.098 C 
HETATM    7  C   UNL     1      39.617 -14.289  -1.965  1.00  0.00     0.014 C 
ENDBRANCH   3   6
ENDBRANCH   1   2
BRANCH   1   8
HETATM    8  C   UNL     1      41.591 -14.699   2.988  1.00  0.00     0.005 A 
HETATM    9  C   UNL     1      41.879 -13.352   3.298  1.00  0.00     0.103 A 
HETATM   10  C   UNL     1      41.258 -12.644   4.341  1.00  0.00     0.100 A 
HETATM   11  C   UNL     1      40.283 -13.330   5.091  1.00  0.00    -0.004 A 
HETATM   12  N   UNL     1      41.569 -11.353   4.613  1.00  0.00    -0.257 NA
HETATM   13  C   UNL     1      39.952 -14.659   4.782  1.00  0.00     0.014 A 
HETATM   14  C   UNL     1      39.650 -12.654   6.145  1.00  0.00     0.015 A 
HETATM   15  C   UNL     1      40.592 -15.330   3.739  1.00  0.00     0.013 A 
HETATM   16  C   UNL     1      39.984 -11.336   6.425  1.00  0.00     0.020 A 
HETATM   17  C   UNL     1      40.941 -10.733   5.635  1.00  0.00     0.117 A 
BRANCH   9  18
HETATM   18  O   UNL     1      42.802 -12.682   2.522  1.00  0.00    -0.358 OA
HETATM   19  H   UNL     1      43.544 -13.318   2.395  1.00  0.00     0.218 HD
ENDBRANCH   9  18
ENDBRANCH   1   8
BRANCH   1  20
HETATM   20  C   UNL     1      42.967 -16.753   2.312  1.00  0.00    -0.031 A 
HETATM   21  C   UNL     1      43.062 -17.800   1.382  1.00  0.00     0.010 A 
HETATM   22  C   UNL     1      43.594 -19.039   1.749  1.00  0.00     0.007 A 
HETATM   23  C   UNL     1      44.043 -19.260   3.055  1.00  0.00    -0.062 A 
HETATM   24  C   UNL     1      44.635 -20.583   3.443  1.00  0.00     0.048 C 
HETATM   25  C   UNL     1      43.991 -18.211   3.977  1.00  0.00     0.007 A 
HETATM   26  C   UNL     1      43.455 -16.973   3.612  1.00  0.00     0.010 A 
ENDBRANCH   1  20
TORSDOF 5
ENDMDL
MODEL 9
REMARK VINA RESULT:      -7.3      2.756      7.216
REMARK  5 active torsions:
REMARK  status: ('A' for Active; 'I' for Inactive)
REMARK    1  A    between atoms: C_2  and  C_3 
REMARK       I    between atoms: C_3  and  N_4 
REMARK    2  A    between atoms: N_4  and  C_5 
REMARK    3  A    between atoms: C_5  and  C_6 
REMARK    4  A    between atoms: C_5  and  C_17 
REMARK    5  A    between atoms: C_7  and  O_8 
ROOT
HETATM    1  C   UNL     1      40.341 -14.375  -0.132  1.00  0.00     0.154 C 
ENDROOT
BRANCH   1   2
HETATM    2  N   UNL     1      39.707 -14.897  -1.339  1.00  0.00    -0.348 N 
HETATM    3  C   UNL     1      38.606 -14.284  -1.894  1.00  0.00     0.218 C 
HETATM    4  O   UNL     1      37.996 -13.365  -1.352  1.00  0.00    -0.274 OA
HETATM    5  H   UNL     1      40.319 -15.374  -1.986  1.00  0.00     0.163 HD
BRANCH   3   6
HETATM    6  C   UNL     1      38.244 -14.780  -3.279  1.00  0.00     0.098 C 
HETATM    7  C   UNL     1      39.293 -15.690  -3.890  1.00  0.00     0.014 C 
ENDBRANCH   3   6
ENDBRANCH   1   2
BRANCH   1   8
HETATM    8  C   UNL     1      40.993 -15.470   0.706  1.00  0.00     0.005 A 
HETATM    9  C   UNL     1      40.714 -15.587   2.085  1.00  0.00     0.103 A 
HETATM   10  C   UNL     1      41.318 -16.539   2.923  1.00  0.00     0.100 A 
HETATM   11  C   UNL     1      42.234 -17.430   2.328  1.00  0.00    -0.004 A 
HETATM   12  N   UNL     1      41.031 -16.613   4.246  1.00  0.00    -0.257 NA
HETATM   13  C   UNL     1      42.503 -17.359   0.952  1.00  0.00     0.014 A 
HETATM   14  C   UNL     1      42.861 -18.388   3.139  1.00  0.00     0.015 A 
HETATM   15  C   UNL     1      41.884 -16.397   0.152  1.00  0.00     0.013 A 
HETATM   16  C   UNL     1      42.569 -18.448   4.495  1.00  0.00     0.020 A 
HETATM   17  C   UNL     1      41.653 -17.547   4.997  1.00  0.00     0.117 A 
BRANCH   9  18
HETATM   18  O   UNL     1      39.779 -14.738   2.641  1.00  0.00    -0.358 OA
HETATM   19  H   UNL     1      39.576 -14.080   1.935  1.00  0.00     0.218 HD
ENDBRANCH   9  18
ENDBRANCH   1   8
BRANCH   1  20
HETATM   20  C   UNL     1      41.277 -13.210  -0.467  1.00  0.00    -0.031 A 
HETATM   21  C   UNL     1      41.380 -12.135   0.430  1.00  0.00     0.010 A 
HETATM   22  C   UNL     1      42.199 -11.039   0.145  1.00  0.00     0.007 A 
HETATM   23  C   UNL     1      42.934 -10.992  -1.044  1.00  0.00    -0.062 A 
HETATM   24  C   UNL     1      43.830  -9.826  -1.339  1.00  0.00     0.048 C 
HETATM   25  C   UNL     1      42.869 -12.075  -1.925  1.00  0.00     0.007 A 
HETATM   26  C   UNL     1      42.048 -13.170  -1.643  1.00  0.00     0.010 A 
ENDBRANCH   1  20
TORSDOF 5
ENDMDL
MODEL 10
REMARK VINA RESULT:      -7.2      2.257      6.794
REMARK  5 active torsions:
REMARK  status: ('A' for Active; 'I' for Inactive)
REMARK    1  A    between atoms: C_2  and  C_3 
REMARK       I    between atoms: C_3  and  N_4 
REMARK    2  A    between atoms: N_4  and  C_5 
REMARK    3  A    between atoms: C_5  and  C_6 
REMARK    4  A    between atoms: C_5  and  C_17 
REMARK    5  A    between atoms: C_7  and  O_8 
ROOT
HETATM    1  C   UNL     1      40.887 -15.717   3.056  1.00  0.00     0.154 C 
ENDROOT
BRANCH   1   2
HETATM    2  N   UNL     1      40.954 -15.203   1.690  1.00  0.00    -0.348 N 
HETATM    3  C   UNL     1      39.825 -14.769   1.032  1.00  0.00     0.218 C 
HETATM    4  O   UNL     1      38.686 -14.912   1.470  1.00  0.00    -0.274 OA
HETATM    5  H   UNL     1      41.817 -14.746   1.434  1.00  0.00     0.163 HD
BRANCH   3   6
HETATM    6  C   UNL     1      40.100 -14.017  -0.254  1.00  0.00     0.098 C 
HETATM    7  C   UNL     1      41.578 -13.804  -0.527  1.00  0.00     0.014 C 
ENDBRANCH   3   6
ENDBRANCH   1   2
BRANCH   1   8
HETATM    8  C   UNL     1      41.928 -16.800   3.323  1.00  0.00     0.005 A 
HETATM    9  C   UNL     1      42.046 -17.916   2.467  1.00  0.00     0.103 A 
HETATM   10  C   UNL     1      42.947 -18.971   2.684  1.00  0.00     0.100 A 
HETATM   11  C   UNL     1      43.784 -18.880   3.814  1.00  0.00    -0.004 A 
HETATM   12  N   UNL     1      43.024 -20.031   1.842  1.00  0.00    -0.257 NA
HETATM   13  C   UNL     1      43.712 -17.764   4.663  1.00  0.00     0.014 A 
HETATM   14  C   UNL     1      44.689 -19.922   4.064  1.00  0.00     0.015 A 
HETATM   15  C   UNL     1      42.802 -16.735   4.415  1.00  0.00     0.013 A 
HETATM   16  C   UNL     1      44.752 -21.009   3.203  1.00  0.00     0.020 A 
HETATM   17  C   UNL     1      43.906 -21.016   2.113  1.00  0.00     0.117 A 
BRANCH   9  18
HETATM   18  O   UNL     1      41.253 -17.965   1.339  1.00  0.00    -0.358 OA
HETATM   19  H   UNL     1      40.586 -18.668   1.522  1.00  0.00     0.218 HD
ENDBRANCH   9  18
ENDBRANCH   1   8
BRANCH   1  20
HETATM   20  C   UNL     1      40.907 -14.572   4.072  1.00  0.00    -0.031 A 
HETATM   21  C   UNL     1      41.837 -13.532   3.911  1.00  0.00     0.010 A 
HETATM   22  C   UNL     1      41.908 -12.485   4.834  1.00  0.00     0.007 A 
HETATM   23  C   UNL     1      41.052 -12.453   5.939  1.00  0.00    -0.062 A 
HETATM   24  C   UNL     1      41.112 -11.317   6.917  1.00  0.00     0.048 C 
HETATM   25  C   UNL     1      40.095 -13.462   6.085  1.00  0.00     0.007 A 
HETATM   26  C   UNL     1      40.026 -14.511   5.166  1.00  0.00     0.010 A 
ENDBRANCH   1  20
TORSDOF 5
ENDMDL
