MODEL 1
REMARK VINA RESULT:      -7.5      0.000      0.000
REMARK  10 active torsions:
REMARK  status: ('A' for Active; 'I' for Inactive)
REMARK    1  A    between atoms: C_2  and  C_3 
REMARK    2  A    between atoms: C_3  and  N_4 
REMARK    3  A    between atoms: C_10  and  C_11 
REMARK    4  A    between atoms: C_11  and  C_12 
REMARK    5  A    between atoms: C_12  and  S_13 
REMARK    6  A    between atoms: S_13  and  C_14 
REMARK    7  A    between atoms: N_15  and  C_16 
REMARK    8  A    between atoms: C_23  and  C_24 
REMARK    9  A    between atoms: C_24  and  N_25 
REMARK   10  A    between atoms: C_33  and  N_34 
ROOT
HETATM    1  S   UNL     1      40.930 -14.681   5.767  1.00  0.00    -0.082 SA
ENDROOT
BRANCH   1   2
HETATM    2  C   UNL     1      41.383 -16.412   6.121  1.00  0.00     0.166 C 
BRANCH   2   3
HETATM    3  C   UNL     1      42.890 -16.573   5.984  1.00  0.00     0.177 C 
HETATM    4  O   UNL     1      43.642 -15.594   6.117  1.00  0.00    -0.291 OA
BRANCH   3   5
HETATM    5  C   UNL     1      43.463 -17.923   5.655  1.00  0.00     0.117 C 
HETATM    6  C   UNL     1      43.795 -18.882   6.730  1.00  0.00     0.266 C 
HETATM    7  N   UNL     1      44.075 -20.151   6.347  1.00  0.00    -0.274 N 
HETATM    8  O   UNL     1      43.854 -18.540   7.906  1.00  0.00    -0.267 OA
HETATM    9  C   UNL     1      44.496 -20.486   5.100  1.00  0.00     0.330 C 
HETATM   10  H   UNL     1      44.334 -20.804   7.074  1.00  0.00     0.173 HD
HETATM   11  N   UNL     1      44.296 -19.527   4.111  1.00  0.00    -0.289 N 
HETATM   12  O   UNL     1      45.042 -21.570   4.918  1.00  0.00    -0.246 OA
HETATM   13  C   UNL     1      43.753 -18.264   4.374  1.00  0.00     0.103 C 
BRANCH  11  14
HETATM   14  C   UNL     1      44.732 -19.901   2.759  1.00  0.00     0.135 C 
BRANCH  14  15
HETATM   15  C   UNL     1      43.610 -20.606   1.991  1.00  0.00     0.016 C 
HETATM   16  C   UNL     1      44.032 -21.987   1.519  1.00  0.00     0.006 C 
ENDBRANCH  14  15
ENDBRANCH  11  14
BRANCH  13  17
HETATM   17  N   UNL     1      43.529 -17.386   3.318  1.00  0.00    -0.287 NA
HETATM   18  H   UNL     1      43.456 -17.865   2.415  1.00  0.00     0.125 HD
HETATM   19  H   UNL     1      42.716 -16.794   3.463  1.00  0.00     0.125 HD
ENDBRANCH  13  17
ENDBRANCH   3   5
ENDBRANCH   2   3
ENDBRANCH   1   2
BRANCH   1  20
HETATM   20  C   UNL     1      40.517 -14.815   4.089  1.00  0.00     0.196 A 
HETATM   21  N   UNL     1      39.985 -13.808   3.299  1.00  0.00    -0.274 N 
HETATM   22  C   UNL     1      39.667 -14.468   2.112  1.00  0.00     0.166 A 
HETATM   23  N   UNL     1      39.990 -15.743   2.205  1.00  0.00    -0.131 NA
HETATM   24  N   UNL     1      40.524 -15.955   3.437  1.00  0.00    -0.122 NA
BRANCH  21  25
HETATM   25  C   UNL     1      39.878 -12.413   3.561  1.00  0.00     0.043 A 
HETATM   26  C   UNL     1      38.697 -11.884   4.099  1.00  0.00     0.032 A 
HETATM   27  C   UNL     1      38.604 -10.520   4.396  1.00  0.00     0.026 A 
HETATM   28  C   UNL     1      39.686  -9.679   4.153  1.00  0.00     0.034 A 
HETATM   29 CL   UNL     1      39.575  -8.007   4.530  1.00  0.00    -0.084 Cl
HETATM   30  C   UNL     1      40.860 -10.192   3.608  1.00  0.00     0.026 A 
HETATM   31  C   UNL     1      40.959 -11.557   3.310  1.00  0.00     0.032 A 
ENDBRANCH  21  25
BRANCH  22  32
HETATM   32  C   UNL     1      39.235 -13.860   0.813  1.00  0.00     0.254 C 
HETATM   33  C   UNL     1      37.727 -14.084   0.640  1.00  0.00     0.049 C 
BRANCH  32  34
HETATM   34  N   UNL     1      39.990 -14.543  -0.352  1.00  0.00    -0.068 N 
HETATM   35  H   UNL     1      39.954 -15.551  -0.122  1.00  0.00     0.279 HD
HETATM   36  C   UNL     1      39.389 -14.358  -1.713  1.00  0.00     0.270 C 
HETATM   37  C   UNL     1      41.458 -14.188  -0.367  1.00  0.00     0.270 C 
ENDBRANCH  32  34
ENDBRANCH  22  32
ENDBRANCH   1  20
TORSDOF 10
ENDMDL
MODEL 2
REMARK VINA RESULT:      -7.4      2.129      3.166
REMARK  10 active torsions:
REMARK  status: ('A' for Active; 'I' for Inactive)
REMARK    1  A    between atoms: C_2  and  C_3 
REMARK    2  A    between atoms: C_3  and  N_4 
REMARK    3  A    between atoms: C_10  and  C_11 
REMARK    4  A    between atoms: C_11  and  C_12 
REMARK    5  A    between atoms: C_12  and  S_13 
REMARK    6  A    between atoms: S_13  and  C_14 
REMARK    7  A    between atoms: N_15  and  C_16 
REMARK    8  A    between atoms: C_23  and  C_24 
REMARK    9  A    between atoms: C_24  and  N_25 
REMARK   10  A    between atoms: C_33  and  N_34 
ROOT
HETATM    1  S   UNL     1      40.270 -15.749   2.675  1.00  0.00    -0.082 SA
ENDROOT
BRANCH   1   2
HETATM    2  C   UNL     1      41.364 -14.537   3.489  1.00  0.00     0.166 C 
BRANCH   2   3
HETATM    3  C   UNL     1      42.803 -15.026   3.402  1.00  0.00     0.177 C 
HETATM    4  O   UNL     1      43.682 -14.307   2.903  1.00  0.00    -0.291 OA
BRANCH   3   5
HETATM    5  C   UNL     1      43.148 -16.402   3.898  1.00  0.00     0.117 C 
HETATM    6  C   UNL     1      43.044 -16.732   5.335  1.00  0.00     0.266 C 
HETATM    7  N   UNL     1      43.137 -18.042   5.667  1.00  0.00    -0.274 N 
HETATM    8  O   UNL     1      42.922 -15.862   6.191  1.00  0.00    -0.267 OA
HETATM    9  C   UNL     1      43.734 -18.977   4.882  1.00  0.00     0.330 C 
HETATM   10  H   UNL     1      43.099 -18.272   6.650  1.00  0.00     0.173 HD
HETATM   11  N   UNL     1      43.945 -18.615   3.556  1.00  0.00    -0.289 N 
HETATM   12  O   UNL     1      44.076 -20.049   5.375  1.00  0.00    -0.246 OA
HETATM   13  C   UNL     1      43.626 -17.349   3.051  1.00  0.00     0.103 C 
BRANCH  11  14
HETATM   14  C   UNL     1      44.571 -19.636   2.705  1.00  0.00     0.135 C 
BRANCH  14  15
HETATM   15  C   UNL     1      43.516 -20.508   2.018  1.00  0.00     0.016 C 
HETATM   16  C   UNL     1      44.075 -21.865   1.625  1.00  0.00     0.006 C 
ENDBRANCH  14  15
ENDBRANCH  11  14
BRANCH  13  17
HETATM   17  N   UNL     1      43.811 -17.088   1.697  1.00  0.00    -0.287 NA
HETATM   18  H   UNL     1      43.204 -17.658   1.099  1.00  0.00     0.125 HD
HETATM   19  H   UNL     1      43.701 -16.106   1.466  1.00  0.00     0.125 HD
ENDBRANCH  13  17
ENDBRANCH   3   5
ENDBRANCH   2   3
ENDBRANCH   1   2
BRANCH   1  20
HETATM   20  C   UNL     1      40.614 -15.397   1.013  1.00  0.00     0.196 A 
HETATM   21  N   UNL     1      39.967 -14.453   0.230  1.00  0.00    -0.274 N 
HETATM   22  C   UNL     1      40.478 -14.693  -1.045  1.00  0.00     0.166 A 
HETATM   23  N   UNL     1      41.345 -15.686  -1.004  1.00  0.00    -0.131 NA
HETATM   24  N   UNL     1      41.431 -16.119   0.282  1.00  0.00    -0.122 NA
BRANCH  21  25
HETATM   25  C   UNL     1      39.081 -13.409   0.618  1.00  0.00     0.043 A 
HETATM   26  C   UNL     1      39.578 -12.256   1.240  1.00  0.00     0.032 A 
HETATM   27  C   UNL     1      38.716 -11.210   1.585  1.00  0.00     0.026 A 
HETATM   28  C   UNL     1      37.354 -11.314   1.317  1.00  0.00     0.034 A 
HETATM   29 CL   UNL     1      36.298 -10.024   1.729  1.00  0.00    -0.084 Cl
HETATM   30  C   UNL     1      36.848 -12.460   0.710  1.00  0.00     0.026 A 
HETATM   31  C   UNL     1      37.707 -13.509   0.361  1.00  0.00     0.032 A 
ENDBRANCH  21  25
BRANCH  22  32
HETATM   32  C   UNL     1      40.295 -13.861  -2.277  1.00  0.00     0.254 C 
HETATM   33  C   UNL     1      40.746 -14.677  -3.496  1.00  0.00     0.049 C 
BRANCH  32  34
HETATM   34  N   UNL     1      41.160 -12.583  -2.169  1.00  0.00    -0.068 N 
HETATM   35  H   UNL     1      41.470 -12.569  -1.182  1.00  0.00     0.279 HD
HETATM   36  C   UNL     1      42.381 -12.550  -3.038  1.00  0.00     0.270 C 
HETATM   37  C   UNL     1      40.344 -11.325  -2.349  1.00  0.00     0.270 C 
ENDBRANCH  32  34
ENDBRANCH  22  32
ENDBRANCH   1  20
TORSDOF 10
ENDMDL
MODEL 3
REMARK VINA RESULT:      -7.4      5.179      8.190
REMARK  10 active torsions:
REMARK  status: ('A' for Active; 'I' for Inactive)
REMARK    1  A    between atoms: C_2  and  C_3 
REMARK    2  A    between atoms: C_3  and  N_4 
REMARK    3  A    between atoms: C_10  and  C_11 
REMARK    4  A    between atoms: C_11  and  C_12 
REMARK    5  A    between atoms: C_12  and  S_13 
REMARK    6  A    between atoms: S_13  and  C_14 
REMARK    7  A    between atoms: N_15  and  C_16 
REMARK    8  A    between atoms: C_23  and  C_24 
REMARK    9  A    between atoms: C_24  and  N_25 
REMARK   10  A    between atoms: C_33  and  N_34 
ROOT
HETATM    1  S   UNL     1      41.659 -11.753   4.664  1.00  0.00    -0.082 SA
ENDROOT
BRANCH   1   2
HETATM    2  C   UNL     1      40.634 -11.680   6.171  1.00  0.00     0.166 C 
BRANCH   2   3
HETATM    3  C   UNL     1      41.203 -10.627   7.111  1.00  0.00     0.177 C 
HETATM    4  O   UNL     1      41.823  -9.650   6.661  1.00  0.00    -0.291 OA
BRANCH   3   5
HETATM    5  C   UNL     1      41.037 -10.793   8.595  1.00  0.00     0.117 C 
HETATM    6  C   UNL     1      39.692 -10.801   9.206  1.00  0.00     0.266 C 
HETATM    7  N   UNL     1      39.613 -11.194  10.500  1.00  0.00    -0.274 N 
HETATM    8  O   UNL     1      38.699 -10.431   8.588  1.00  0.00    -0.267 OA
HETATM    9  C   UNL     1      40.659 -11.149  11.366  1.00  0.00     0.330 C 
HETATM   10  H   UNL     1      38.700 -11.171  10.933  1.00  0.00     0.173 HD
HETATM   11  N   UNL     1      41.919 -11.014  10.792  1.00  0.00    -0.289 N 
HETATM   12  O   UNL     1      40.446 -11.196  12.574  1.00  0.00    -0.246 OA
HETATM   13  C   UNL     1      42.118 -10.871   9.414  1.00  0.00     0.103 C 
BRANCH  11  14
HETATM   14  C   UNL     1      43.050 -10.989  11.729  1.00  0.00     0.135 C 
BRANCH  14  15
HETATM   15  C   UNL     1      43.365  -9.558  12.179  1.00  0.00     0.016 C 
HETATM   16  C   UNL     1      43.326  -9.423  13.692  1.00  0.00     0.006 C 
ENDBRANCH  14  15
ENDBRANCH  11  14
BRANCH  13  17
HETATM   17  N   UNL     1      43.415 -10.804   8.915  1.00  0.00    -0.287 NA
HETATM   18  H   UNL     1      43.840  -9.880   9.043  1.00  0.00     0.125 HD
HETATM   19  H   UNL     1      44.022 -11.521   9.299  1.00  0.00     0.125 HD
ENDBRANCH  13  17
ENDBRANCH   3   5
ENDBRANCH   2   3
ENDBRANCH   1   2
BRANCH   1  20
HETATM   20  C   UNL     1      42.145 -13.417   4.710  1.00  0.00     0.196 A 
HETATM   21  N   UNL     1      41.671 -14.427   3.888  1.00  0.00    -0.274 N 
HETATM   22  C   UNL     1      42.225 -15.578   4.446  1.00  0.00     0.166 A 
HETATM   23  N   UNL     1      42.958 -15.263   5.497  1.00  0.00    -0.131 NA
HETATM   24  N   UNL     1      42.910 -13.914   5.655  1.00  0.00    -0.122 NA
BRANCH  21  25
HETATM   25  C   UNL     1      40.900 -14.335   2.695  1.00  0.00     0.043 A 
HETATM   26  C   UNL     1      39.515 -14.545   2.732  1.00  0.00     0.032 A 
HETATM   27  C   UNL     1      38.749 -14.416   1.569  1.00  0.00     0.026 A 
HETATM   28  C   UNL     1      39.362 -14.082   0.365  1.00  0.00     0.034 A 
HETATM   29 CL   UNL     1      38.418 -13.911  -1.060  1.00  0.00    -0.084 Cl
HETATM   30  C   UNL     1      40.739 -13.883   0.315  1.00  0.00     0.026 A 
HETATM   31  C   UNL     1      41.510 -14.010   1.476  1.00  0.00     0.032 A 
ENDBRANCH  21  25
BRANCH  22  32
HETATM   32  C   UNL     1      42.223 -16.965   3.877  1.00  0.00     0.254 C 
HETATM   33  C   UNL     1      41.731 -17.940   4.955  1.00  0.00     0.049 C 
BRANCH  32  34
HETATM   34  N   UNL     1      43.661 -17.350   3.456  1.00  0.00    -0.068 N 
HETATM   35  H   UNL     1      44.266 -16.729   4.020  1.00  0.00     0.279 HD
HETATM   36  C   UNL     1      44.062 -18.767   3.738  1.00  0.00     0.270 C 
HETATM   37  C   UNL     1      43.950 -16.992   2.018  1.00  0.00     0.270 C 
ENDBRANCH  32  34
ENDBRANCH  22  32
ENDBRANCH   1  20
TORSDOF 10
ENDMDL
MODEL 4
REMARK VINA RESULT:      -7.4      5.420      8.386
REMARK  10 active torsions:
REMARK  status: ('A' for Active; 'I' for Inactive)
REMARK    1  A    between atoms: C_2  and  C_3 
REMARK    2  A    between atoms: C_3  and  N_4 
REMARK    3  A    between atoms: C_10  and  C_11 
REMARK    4  A    between atoms: C_11  and  C_12 
REMARK    5  A    between atoms: C_12  and  S_13 
REMARK    6  A    between atoms: S_13  and  C_14 
REMARK    7  A    between atoms: N_15  and  C_16 
REMARK    8  A    between atoms: C_23  and  C_24 
REMARK    9  A    between atoms: C_24  and  N_25 
REMARK   10  A    between atoms: C_33  and  N_34 
ROOT
HETATM    1  S   UNL     1      40.011 -12.514   6.064  1.00  0.00    -0.082 SA
ENDROOT
BRANCH   1   2
HETATM    2  C   UNL     1      41.561 -11.611   6.394  1.00  0.00     0.166 C 
BRANCH   2   3
HETATM    3  C   UNL     1      41.272 -10.451   7.338  1.00  0.00     0.177 C 
HETATM    4  O   UNL     1      41.228  -9.287   6.909  1.00  0.00    -0.291 OA
BRANCH   3   5
HETATM    5  C   UNL     1      41.071 -10.721   8.802  1.00  0.00     0.117 C 
HETATM    6  C   UNL     1      39.711 -10.879   9.358  1.00  0.00     0.266 C 
HETATM    7  N   UNL     1      39.622 -11.355  10.623  1.00  0.00    -0.274 N 
HETATM    8  O   UNL     1      38.711 -10.556   8.724  1.00  0.00    -0.267 OA
HETATM    9  C   UNL     1      40.631 -11.277  11.530  1.00  0.00     0.330 C 
HETATM   10  H   UNL     1      38.696 -11.435  11.021  1.00  0.00     0.173 HD
HETATM   11  N   UNL     1      41.893 -11.002  11.014  1.00  0.00    -0.289 N 
HETATM   12  O   UNL     1      40.381 -11.415  12.724  1.00  0.00    -0.246 OA
HETATM   13  C   UNL     1      42.125 -10.758   9.656  1.00  0.00     0.103 C 
BRANCH  11  14
HETATM   14  C   UNL     1      42.985 -10.939  11.995  1.00  0.00     0.135 C 
BRANCH  14  15
HETATM   15  C   UNL     1      43.246  -9.498  12.444  1.00  0.00     0.016 C 
HETATM   16  C   UNL     1      43.212  -9.364  13.957  1.00  0.00     0.006 C 
ENDBRANCH  14  15
ENDBRANCH  11  14
BRANCH  13  17
HETATM   17  N   UNL     1      43.428 -10.553   9.213  1.00  0.00    -0.287 NA
HETATM   18  H   UNL     1      43.488 -10.456   8.194  1.00  0.00     0.125 HD
HETATM   19  H   UNL     1      43.878  -9.762   9.662  1.00  0.00     0.125 HD
ENDBRANCH  13  17
ENDBRANCH   3   5
ENDBRANCH   2   3
ENDBRANCH   1   2
BRANCH   1  20
HETATM   20  C   UNL     1      40.434 -13.305   4.580  1.00  0.00     0.196 A 
HETATM   21  N   UNL     1      41.341 -14.344   4.442  1.00  0.00    -0.274 N 
HETATM   22  C   UNL     1      41.455 -14.486   3.059  1.00  0.00     0.166 A 
HETATM   23  N   UNL     1      40.680 -13.608   2.451  1.00  0.00    -0.131 NA
HETATM   24  N   UNL     1      40.042 -12.878   3.403  1.00  0.00    -0.122 NA
BRANCH  21  25
HETATM   25  C   UNL     1      41.940 -15.162   5.442  1.00  0.00     0.043 A 
HETATM   26  C   UNL     1      41.211 -16.202   6.034  1.00  0.00     0.032 A 
HETATM   27  C   UNL     1      41.809 -17.033   6.986  1.00  0.00     0.026 A 
HETATM   28  C   UNL     1      43.135 -16.826   7.355  1.00  0.00     0.034 A 
HETATM   29 CL   UNL     1      43.873 -17.855   8.515  1.00  0.00    -0.084 Cl
HETATM   30  C   UNL     1      43.866 -15.789   6.782  1.00  0.00     0.026 A 
HETATM   31  C   UNL     1      43.271 -14.955   5.827  1.00  0.00     0.032 A 
ENDBRANCH  21  25
BRANCH  22  32
HETATM   32  C   UNL     1      42.148 -15.578   2.304  1.00  0.00     0.254 C 
HETATM   33  C   UNL     1      42.080 -15.261   0.804  1.00  0.00     0.049 C 
BRANCH  32  34
HETATM   34  N   UNL     1      41.436 -16.924   2.574  1.00  0.00    -0.068 N 
HETATM   35  H   UNL     1      40.837 -16.734   3.396  1.00  0.00     0.279 HD
HETATM   36  C   UNL     1      40.558 -17.428   1.469  1.00  0.00     0.270 C 
HETATM   37  C   UNL     1      42.398 -17.999   3.021  1.00  0.00     0.270 C 
ENDBRANCH  32  34
ENDBRANCH  22  32
ENDBRANCH   1  20
TORSDOF 10
ENDMDL
MODEL 5
REMARK VINA RESULT:      -7.4      3.404      5.092
REMARK  10 active torsions:
REMARK  status: ('A' for Active; 'I' for Inactive)
REMARK    1  A    between atoms: C_2  and  C_3 
REMARK    2  A    between atoms: C_3  and  N_4 
REMARK    3  A    between atoms: C_10  and  C_11 
REMARK    4  A    between atoms: C_11  and  C_12 
REMARK    5  A    between atoms: C_12  and  S_13 
REMARK    6  A    between atoms: S_13  and  C_14 
REMARK    7  A    between atoms: N_15  and  C_16 
REMARK    8  A    between atoms: C_23  and  C_24 
REMARK    9  A    between atoms: C_24  and  N_25 
REMARK   10  A    between atoms: C_33  and  N_34 
ROOT
HETATM    1  S   UNL     1      41.077 -14.607   1.734  1.00  0.00    -0.082 SA
ENDROOT
BRANCH   1   2
HETATM    2  C   UNL     1      41.733 -14.174   3.380  1.00  0.00     0.166 C 
BRANCH   2   3
HETATM    3  C   UNL     1      43.136 -14.747   3.526  1.00  0.00     0.177 C 
HETATM    4  O   UNL     1      44.128 -14.064   3.227  1.00  0.00    -0.291 OA
BRANCH   3   5
HETATM    5  C   UNL     1      43.312 -16.161   4.004  1.00  0.00     0.117 C 
HETATM    6  C   UNL     1      43.095 -16.506   5.425  1.00  0.00     0.266 C 
HETATM    7  N   UNL     1      43.036 -17.826   5.728  1.00  0.00    -0.274 N 
HETATM    8  O   UNL     1      43.013 -15.646   6.295  1.00  0.00    -0.267 OA
HETATM    9  C   UNL     1      43.579 -18.801   4.954  1.00  0.00     0.330 C 
HETATM   10  H   UNL     1      42.920 -18.069   6.702  1.00  0.00     0.173 HD
HETATM   11  N   UNL     1      43.900 -18.436   3.650  1.00  0.00    -0.289 N 
HETATM   12  O   UNL     1      43.783 -19.911   5.436  1.00  0.00    -0.246 OA
HETATM   13  C   UNL     1      43.739 -17.135   3.161  1.00  0.00     0.103 C 
BRANCH  11  14
HETATM   14  C   UNL     1      44.467 -19.500   2.809  1.00  0.00     0.135 C 
BRANCH  14  15
HETATM   15  C   UNL     1      43.369 -20.243   2.041  1.00  0.00     0.016 C 
HETATM   16  C   UNL     1      43.759 -21.682   1.754  1.00  0.00     0.006 C 
ENDBRANCH  14  15
ENDBRANCH  11  14
BRANCH  13  17
HETATM   17  N   UNL     1      44.026 -16.867   1.826  1.00  0.00    -0.287 NA
HETATM   18  H   UNL     1      44.479 -17.657   1.354  1.00  0.00     0.125 HD
HETATM   19  H   UNL     1      43.210 -16.571   1.299  1.00  0.00     0.125 HD
ENDBRANCH  13  17
ENDBRANCH   3   5
ENDBRANCH   2   3
ENDBRANCH   1   2
BRANCH   1  20
HETATM   20  C   UNL     1      41.578 -13.212   0.834  1.00  0.00     0.196 A 
HETATM   21  N   UNL     1      41.519 -13.069  -0.543  1.00  0.00    -0.274 N 
HETATM   22  C   UNL     1      42.200 -11.872  -0.768  1.00  0.00     0.166 A 
HETATM   23  N   UNL     1      42.614 -11.367   0.378  1.00  0.00    -0.131 NA
HETATM   24  N   UNL     1      42.220 -12.202   1.375  1.00  0.00    -0.122 NA
BRANCH  21  25
HETATM   25  C   UNL     1      40.842 -13.866  -1.508  1.00  0.00     0.043 A 
HETATM   26  C   UNL     1      39.490 -13.631  -1.795  1.00  0.00     0.032 A 
HETATM   27  C   UNL     1      38.833 -14.386  -2.772  1.00  0.00     0.026 A 
HETATM   28  C   UNL     1      39.520 -15.380  -3.462  1.00  0.00     0.034 A 
HETATM   29 CL   UNL     1      38.715 -16.298  -4.671  1.00  0.00    -0.084 Cl
HETATM   30  C   UNL     1      40.859 -15.630  -3.177  1.00  0.00     0.026 A 
HETATM   31  C   UNL     1      41.522 -14.877  -2.200  1.00  0.00     0.032 A 
ENDBRANCH  21  25
BRANCH  22  32
HETATM   32  C   UNL     1      42.297 -11.100  -2.048  1.00  0.00     0.254 C 
HETATM   33  C   UNL     1      43.396 -10.039  -1.903  1.00  0.00     0.049 C 
BRANCH  32  34
HETATM   34  N   UNL     1      40.946 -10.400  -2.331  1.00  0.00    -0.068 N 
HETATM   35  H   UNL     1      40.276 -10.881  -1.708  1.00  0.00     0.279 HD
HETATM   36  C   UNL     1      40.896  -8.934  -2.023  1.00  0.00     0.270 C 
HETATM   37  C   UNL     1      40.449 -10.666  -3.732  1.00  0.00     0.270 C 
ENDBRANCH  32  34
ENDBRANCH  22  32
ENDBRANCH   1  20
TORSDOF 10
ENDMDL
MODEL 6
REMARK VINA RESULT:      -7.2      5.296      8.291
REMARK  10 active torsions:
REMARK  status: ('A' for Active; 'I' for Inactive)
REMARK    1  A    between atoms: C_2  and  C_3 
REMARK    2  A    between atoms: C_3  and  N_4 
REMARK    3  A    between atoms: C_10  and  C_11 
REMARK    4  A    between atoms: C_11  and  C_12 
REMARK    5  A    between atoms: C_12  and  S_13 
REMARK    6  A    between atoms: S_13  and  C_14 
REMARK    7  A    between atoms: N_15  and  C_16 
REMARK    8  A    between atoms: C_23  and  C_24 
REMARK    9  A    between atoms: C_24  and  N_25 
REMARK   10  A    between atoms: C_33  and  N_34 
ROOT
HETATM    1  S   UNL     1      41.787 -12.479   5.684  1.00  0.00    -0.082 SA
ENDROOT
BRANCH   1   2
HETATM    2  C   UNL     1      40.633 -11.113   6.041  1.00  0.00     0.166 C 
BRANCH   2   3
HETATM    3  C   UNL     1      41.241 -10.210   7.105  1.00  0.00     0.177 C 
HETATM    4  O   UNL     1      41.912  -9.218   6.778  1.00  0.00    -0.291 OA
BRANCH   3   5
HETATM    5  C   UNL     1      41.050 -10.545   8.557  1.00  0.00     0.117 C 
HETATM    6  C   UNL     1      39.696 -10.590   9.147  1.00  0.00     0.266 C 
HETATM    7  N   UNL     1      39.589 -11.130  10.385  1.00  0.00    -0.274 N 
HETATM    8  O   UNL     1      38.720 -10.126   8.564  1.00  0.00    -0.267 OA
HETATM    9  C   UNL     1      40.623 -11.213  11.261  1.00  0.00     0.330 C 
HETATM   10  H   UNL     1      38.670 -11.135  10.807  1.00  0.00     0.173 HD
HETATM   11  N   UNL     1      41.895 -11.043  10.722  1.00  0.00    -0.289 N 
HETATM   12  O   UNL     1      40.391 -11.396  12.453  1.00  0.00    -0.246 OA
HETATM   13  C   UNL     1      42.116 -10.744   9.373  1.00  0.00     0.103 C 
BRANCH  11  14
HETATM   14  C   UNL     1      43.012 -11.155  11.669  1.00  0.00     0.135 C 
BRANCH  14  15
HETATM   15  C   UNL     1      43.485  -9.774  12.135  1.00  0.00     0.016 C 
HETATM   16  C   UNL     1      43.246  -9.569  13.621  1.00  0.00     0.006 C 
ENDBRANCH  14  15
ENDBRANCH  11  14
BRANCH  13  17
HETATM   17  N   UNL     1      43.421 -10.651   8.900  1.00  0.00    -0.287 NA
HETATM   18  H   UNL     1      44.036 -10.132   9.537  1.00  0.00     0.125 HD
HETATM   19  H   UNL     1      43.829 -11.556   8.688  1.00  0.00     0.125 HD
ENDBRANCH  13  17
ENDBRANCH   3   5
ENDBRANCH   2   3
ENDBRANCH   1   2
BRANCH   1  20
HETATM   20  C   UNL     1      41.381 -12.793   4.028  1.00  0.00     0.196 A 
HETATM   21  N   UNL     1      41.601 -13.980   3.347  1.00  0.00    -0.274 N 
HETATM   22  C   UNL     1      41.277 -13.655   2.030  1.00  0.00     0.166 A 
HETATM   23  N   UNL     1      40.901 -12.393   1.955  1.00  0.00    -0.131 NA
HETATM   24  N   UNL     1      40.962 -11.860   3.204  1.00  0.00    -0.122 NA
BRANCH  21  25
HETATM   25  C   UNL     1      41.959 -15.261   3.853  1.00  0.00     0.043 A 
HETATM   26  C   UNL     1      43.240 -15.780   3.619  1.00  0.00     0.032 A 
HETATM   27  C   UNL     1      43.609 -17.020   4.150  1.00  0.00     0.026 A 
HETATM   28  C   UNL     1      42.700 -17.749   4.911  1.00  0.00     0.034 A 
HETATM   29 CL   UNL     1      43.158 -19.266   5.573  1.00  0.00    -0.084 Cl
HETATM   30  C   UNL     1      41.421 -17.248   5.140  1.00  0.00     0.026 A 
HETATM   31  C   UNL     1      41.047 -16.007   4.612  1.00  0.00     0.032 A 
ENDBRANCH  21  25
BRANCH  22  32
HETATM   32  C   UNL     1      41.137 -14.587   0.865  1.00  0.00     0.254 C 
HETATM   33  C   UNL     1      41.743 -13.920  -0.377  1.00  0.00     0.049 C 
BRANCH  32  34
HETATM   34  N   UNL     1      39.637 -14.872   0.611  1.00  0.00    -0.068 N 
HETATM   35  H   UNL     1      39.629 -15.798   0.150  1.00  0.00     0.279 HD
HETATM   36  C   UNL     1      38.776 -14.956   1.835  1.00  0.00     0.270 C 
HETATM   37  C   UNL     1      39.038 -13.919  -0.396  1.00  0.00     0.270 C 
ENDBRANCH  32  34
ENDBRANCH  22  32
ENDBRANCH   1  20
TORSDOF 10
ENDMDL
MODEL 7
REMARK VINA RESULT:      -7.1      3.215      5.223
REMARK  10 active torsions:
REMARK  status: ('A' for Active; 'I' for Inactive)
REMARK    1  A    between atoms: C_2  and  C_3 
REMARK    2  A    between atoms: C_3  and  N_4 
REMARK    3  A    between atoms: C_10  and  C_11 
REMARK    4  A    between atoms: C_11  and  C_12 
REMARK    5  A    between atoms: C_12  and  S_13 
REMARK    6  A    between atoms: S_13  and  C_14 
REMARK    7  A    between atoms: N_15  and  C_16 
REMARK    8  A    between atoms: C_23  and  C_24 
REMARK    9  A    between atoms: C_24  and  N_25 
REMARK   10  A    between atoms: C_33  and  N_34 
ROOT
HETATM    1  S   UNL     1      40.569 -16.048   1.955  1.00  0.00    -0.082 SA
ENDROOT
BRANCH   1   2
HETATM    2  C   UNL     1      41.713 -17.123   1.027  1.00  0.00     0.166 C 
BRANCH   2   3
HETATM    3  C   UNL     1      43.101 -17.028   1.645  1.00  0.00     0.177 C 
HETATM    4  O   UNL     1      43.993 -16.367   1.090  1.00  0.00    -0.291 OA
BRANCH   3   5
HETATM    5  C   UNL     1      43.395 -17.767   2.920  1.00  0.00     0.117 C 
HETATM    6  C   UNL     1      43.472 -19.243   2.934  1.00  0.00     0.266 C 
HETATM    7  N   UNL     1      43.974 -19.815   4.054  1.00  0.00    -0.274 N 
HETATM    8  O   UNL     1      43.064 -19.920   1.996  1.00  0.00    -0.267 OA
HETATM    9  C   UNL     1      43.990 -19.207   5.269  1.00  0.00     0.330 C 
HETATM   10  H   UNL     1      44.000 -20.826   4.083  1.00  0.00     0.173 HD
HETATM   11  N   UNL     1      43.791 -17.830   5.263  1.00  0.00    -0.289 N 
HETATM   12  O   UNL     1      44.142 -19.885   6.281  1.00  0.00    -0.246 OA
HETATM   13  C   UNL     1      43.528 -17.103   4.097  1.00  0.00     0.103 C 
BRANCH  11  14
HETATM   14  C   UNL     1      43.830 -17.173   6.576  1.00  0.00     0.135 C 
BRANCH  14  15
HETATM   15  C   UNL     1      42.545 -17.435   7.367  1.00  0.00     0.016 C 
HETATM   16  C   UNL     1      41.325 -16.861   6.666  1.00  0.00     0.006 C 
ENDBRANCH  14  15
ENDBRANCH  11  14
BRANCH  13  17
HETATM   17  N   UNL     1      43.402 -15.719   4.170  1.00  0.00    -0.287 NA
HETATM   18  H   UNL     1      42.954 -15.409   5.038  1.00  0.00     0.125 HD
HETATM   19  H   UNL     1      44.286 -15.236   4.045  1.00  0.00     0.125 HD
ENDBRANCH  13  17
ENDBRANCH   3   5
ENDBRANCH   2   3
ENDBRANCH   1   2
BRANCH   1  20
HETATM   20  C   UNL     1      41.206 -14.493   1.531  1.00  0.00     0.196 A 
HETATM   21  N   UNL     1      41.050 -13.855   0.310  1.00  0.00    -0.274 N 
HETATM   22  C   UNL     1      41.892 -12.748   0.419  1.00  0.00     0.166 A 
HETATM   23  N   UNL     1      42.481 -12.744   1.599  1.00  0.00    -0.131 NA
HETATM   24  N   UNL     1      42.047 -13.830   2.291  1.00  0.00    -0.122 NA
BRANCH  21  25
HETATM   25  C   UNL     1      40.171 -14.163  -0.766  1.00  0.00     0.043 A 
HETATM   26  C   UNL     1      38.836 -13.737  -0.731  1.00  0.00     0.032 A 
HETATM   27  C   UNL     1      37.980 -14.003  -1.805  1.00  0.00     0.026 A 
HETATM   28  C   UNL     1      38.452 -14.697  -2.915  1.00  0.00     0.034 A 
HETATM   29 CL   UNL     1      37.403 -15.011  -4.239  1.00  0.00    -0.084 Cl
HETATM   30  C   UNL     1      39.772 -15.134  -2.956  1.00  0.00     0.026 A 
HETATM   31  C   UNL     1      40.633 -14.871  -1.884  1.00  0.00     0.032 A 
ENDBRANCH  21  25
BRANCH  22  32
HETATM   32  C   UNL     1      41.999 -11.582  -0.517  1.00  0.00     0.254 C 
HETATM   33  C   UNL     1      43.011 -11.924  -1.618  1.00  0.00     0.049 C 
BRANCH  32  34
HETATM   34  N   UNL     1      42.492 -10.340   0.263  1.00  0.00    -0.068 N 
HETATM   35  H   UNL     1      42.986 -10.734   1.082  1.00  0.00     0.279 HD
HETATM   36  C   UNL     1      43.450  -9.451  -0.471  1.00  0.00     0.270 C 
HETATM   37  C   UNL     1      41.350  -9.534   0.833  1.00  0.00     0.270 C 
ENDBRANCH  32  34
ENDBRANCH  22  32
ENDBRANCH   1  20
TORSDOF 10
ENDMDL
MODEL 8
REMARK VINA RESULT:      -7.0      3.239      4.694
REMARK  10 active torsions:
REMARK  status: ('A' for Active; 'I' for Inactive)
REMARK    1  A    between atoms: C_2  and  C_3 
REMARK    2  A    between atoms: C_3  and  N_4 
REMARK    3  A    between atoms: C_10  and  C_11 
REMARK    4  A    between atoms: C_11  and  C_12 
REMARK    5  A    between atoms: C_12  and  S_13 
REMARK    6  A    between atoms: S_13  and  C_14 
REMARK    7  A    between atoms: N_15  and  C_16 
REMARK    8  A    between atoms: C_23  and  C_24 
REMARK    9  A    between atoms: C_24  and  N_25 
REMARK   10  A    between atoms: C_33  and  N_34 
ROOT
HETATM    1  S   UNL     1      39.697 -13.814   3.753  1.00  0.00    -0.082 SA
ENDROOT
BRANCH   1   2
HETATM    2  C   UNL     1      41.304 -13.868   4.614  1.00  0.00     0.166 C 
BRANCH   2   3
HETATM    3  C   UNL     1      41.261 -14.949   5.685  1.00  0.00     0.177 C 
HETATM    4  O   UNL     1      40.243 -15.109   6.376  1.00  0.00    -0.291 OA
BRANCH   3   5
HETATM    5  C   UNL     1      42.474 -15.803   5.922  1.00  0.00     0.117 C 
HETATM    6  C   UNL     1      43.703 -15.221   6.500  1.00  0.00     0.266 C 
HETATM    7  N   UNL     1      44.658 -16.093   6.905  1.00  0.00    -0.274 N 
HETATM    8  O   UNL     1      43.871 -14.008   6.574  1.00  0.00    -0.267 OA
HETATM    9  C   UNL     1      44.765 -17.363   6.436  1.00  0.00     0.330 C 
HETATM   10  H   UNL     1      45.514 -15.700   7.272  1.00  0.00     0.173 HD
HETATM   11  N   UNL     1      43.647 -17.866   5.778  1.00  0.00    -0.289 N 
HETATM   12  O   UNL     1      45.820 -17.973   6.582  1.00  0.00    -0.246 OA
HETATM   13  C   UNL     1      42.492 -17.108   5.549  1.00  0.00     0.103 C 
BRANCH  11  14
HETATM   14  C   UNL     1      43.758 -19.248   5.292  1.00  0.00     0.135 C 
BRANCH  14  15
HETATM   15  C   UNL     1      43.655 -20.251   6.445  1.00  0.00     0.016 C 
HETATM   16  C   UNL     1      44.322 -21.573   6.103  1.00  0.00     0.006 C 
ENDBRANCH  14  15
ENDBRANCH  11  14
BRANCH  13  17
HETATM   17  N   UNL     1      41.394 -17.706   4.939  1.00  0.00    -0.287 NA
HETATM   18  H   UNL     1      41.640 -18.187   4.067  1.00  0.00     0.125 HD
HETATM   19  H   UNL     1      40.897 -18.341   5.556  1.00  0.00     0.125 HD
ENDBRANCH  13  17
ENDBRANCH   3   5
ENDBRANCH   2   3
ENDBRANCH   1   2
BRANCH   1  20
HETATM   20  C   UNL     1      40.219 -13.342   2.168  1.00  0.00     0.196 A 
HETATM   21  N   UNL     1      41.108 -14.039   1.364  1.00  0.00    -0.274 N 
HETATM   22  C   UNL     1      41.331 -13.162   0.303  1.00  0.00     0.166 A 
HETATM   23  N   UNL     1      40.631 -12.057   0.476  1.00  0.00    -0.131 NA
HETATM   24  N   UNL     1      39.936 -12.176   1.637  1.00  0.00    -0.122 NA
BRANCH  21  25
HETATM   25  C   UNL     1      41.603 -15.366   1.500  1.00  0.00     0.043 A 
HETATM   26  C   UNL     1      40.781 -16.461   1.200  1.00  0.00     0.032 A 
HETATM   27  C   UNL     1      41.277 -17.765   1.293  1.00  0.00     0.026 A 
HETATM   28  C   UNL     1      42.592 -17.982   1.691  1.00  0.00     0.034 A 
HETATM   29 CL   UNL     1      43.204 -19.584   1.793  1.00  0.00    -0.084 Cl
HETATM   30  C   UNL     1      43.414 -16.903   2.004  1.00  0.00     0.026 A 
HETATM   31  C   UNL     1      42.923 -15.595   1.911  1.00  0.00     0.032 A 
ENDBRANCH  21  25
BRANCH  22  32
HETATM   32  C   UNL     1      42.056 -13.440  -0.979  1.00  0.00     0.254 C 
HETATM   33  C   UNL     1      42.366 -12.106  -1.671  1.00  0.00     0.049 C 
BRANCH  32  34
HETATM   34  N   UNL     1      41.160 -14.299  -1.902  1.00  0.00    -0.068 N 
HETATM   35  H   UNL     1      41.429 -15.273  -1.681  1.00  0.00     0.279 HD
HETATM   36  C   UNL     1      39.683 -14.165  -1.682  1.00  0.00     0.270 C 
HETATM   37  C   UNL     1      41.499 -14.111  -3.361  1.00  0.00     0.270 C 
ENDBRANCH  32  34
ENDBRANCH  22  32
ENDBRANCH   1  20
TORSDOF 10
ENDMDL
MODEL 9
REMARK VINA RESULT:      -6.9      3.459      5.205
REMARK  10 active torsions:
REMARK  status: ('A' for Active; 'I' for Inactive)
REMARK    1  A    between atoms: C_2  and  C_3 
REMARK    2  A    between atoms: C_3  and  N_4 
REMARK    3  A    between atoms: C_10  and  C_11 
REMARK    4  A    between atoms: C_11  and  C_12 
REMARK    5  A    between atoms: C_12  and  S_13 
REMARK    6  A    between atoms: S_13  and  C_14 
REMARK    7  A    between atoms: N_15  and  C_16 
REMARK    8  A    between atoms: C_23  and  C_24 
REMARK    9  A    between atoms: C_24  and  N_25 
REMARK   10  A    between atoms: C_33  and  N_34 
ROOT
HETATM    1  S   UNL     1      40.928 -14.971   1.780  1.00  0.00    -0.082 SA
ENDROOT
BRANCH   1   2
HETATM    2  C   UNL     1      42.364 -15.362   2.834  1.00  0.00     0.166 C 
BRANCH   2   3
HETATM    3  C   UNL     1      42.070 -16.625   3.631  1.00  0.00     0.177 C 
HETATM    4  O   UNL     1      41.236 -16.609   4.550  1.00  0.00    -0.291 OA
BRANCH   3   5
HETATM    5  C   UNL     1      42.821 -17.889   3.319  1.00  0.00     0.117 C 
HETATM    6  C   UNL     1      42.600 -18.600   2.042  1.00  0.00     0.266 C 
HETATM    7  N   UNL     1      43.479 -19.583   1.733  1.00  0.00    -0.274 N 
HETATM    8  O   UNL     1      41.646 -18.342   1.315  1.00  0.00    -0.267 OA
HETATM    9  C   UNL     1      44.233 -20.236   2.656  1.00  0.00     0.330 C 
HETATM   10  H   UNL     1      43.315 -20.095   0.877  1.00  0.00     0.173 HD
HETATM   11  N   UNL     1      44.336 -19.626   3.901  1.00  0.00    -0.289 N 
HETATM   12  O   UNL     1      44.743 -21.314   2.364  1.00  0.00    -0.246 OA
HETATM   13  C   UNL     1      43.664 -18.442   4.227  1.00  0.00     0.103 C 
BRANCH  11  14
HETATM   14  C   UNL     1      45.170 -20.323   4.889  1.00  0.00     0.135 C 
BRANCH  14  15
HETATM   15  C   UNL     1      44.405 -21.478   5.544  1.00  0.00     0.016 C 
HETATM   16  C   UNL     1      43.812 -21.073   6.883  1.00  0.00     0.006 C 
ENDBRANCH  14  15
ENDBRANCH  11  14
BRANCH  13  17
HETATM   17  N   UNL     1      43.870 -17.863   5.476  1.00  0.00    -0.287 NA
HETATM   18  H   UNL     1      44.428 -17.004   5.425  1.00  0.00     0.125 HD
HETATM   19  H   UNL     1      43.005 -17.684   5.975  1.00  0.00     0.125 HD
ENDBRANCH  13  17
ENDBRANCH   3   5
ENDBRANCH   2   3
ENDBRANCH   1   2
BRANCH   1  20
HETATM   20  C   UNL     1      41.459 -13.471   1.091  1.00  0.00     0.196 A 
HETATM   21  N   UNL     1      41.139 -12.997  -0.171  1.00  0.00    -0.274 N 
HETATM   22  C   UNL     1      41.951 -11.871  -0.304  1.00  0.00     0.166 A 
HETATM   23  N   UNL     1      42.675 -11.706   0.786  1.00  0.00    -0.131 NA
HETATM   24  N   UNL     1      42.362 -12.703   1.655  1.00  0.00    -0.122 NA
BRANCH  21  25
HETATM   25  C   UNL     1      40.149 -13.456  -1.086  1.00  0.00     0.043 A 
HETATM   26  C   UNL     1      40.512 -14.258  -2.176  1.00  0.00     0.032 A 
HETATM   27  C   UNL     1      39.538 -14.744  -3.053  1.00  0.00     0.026 A 
HETATM   28  C   UNL     1      38.198 -14.427  -2.849  1.00  0.00     0.034 A 
HETATM   29 CL   UNL     1      37.000 -15.034  -3.920  1.00  0.00    -0.084 Cl
HETATM   30  C   UNL     1      37.827 -13.620  -1.777  1.00  0.00     0.026 A 
HETATM   31  C   UNL     1      38.799 -13.132  -0.895  1.00  0.00     0.032 A 
ENDBRANCH  21  25
BRANCH  22  32
HETATM   32  C   UNL     1      41.908 -10.833  -1.383  1.00  0.00     0.254 C 
HETATM   33  C   UNL     1      42.807 -11.286  -2.541  1.00  0.00     0.049 C 
BRANCH  32  34
HETATM   34  N   UNL     1      42.432  -9.488  -0.826  1.00  0.00    -0.068 N 
HETATM   35  H   UNL     1      42.878  -9.743   0.072  1.00  0.00     0.279 HD
HETATM   36  C   UNL     1      43.456  -8.790  -1.669  1.00  0.00     0.270 C 
HETATM   37  C   UNL     1      41.310  -8.545  -0.462  1.00  0.00     0.270 C 
ENDBRANCH  32  34
ENDBRANCH  22  32
ENDBRANCH   1  20
TORSDOF 10
ENDMDL
MODEL 10
REMARK VINA RESULT:      -6.8      1.829      2.292
REMARK  10 active torsions:
REMARK  status: ('A' for Active; 'I' for Inactive)
REMARK    1  A    between atoms: C_2  and  C_3 
REMARK    2  A    between atoms: C_3  and  N_4 
REMARK    3  A    between atoms: C_10  and  C_11 
REMARK    4  A    between atoms: C_11  and  C_12 
REMARK    5  A    between atoms: C_12  and  S_13 
REMARK    6  A    between atoms: S_13  and  C_14 
REMARK    7  A    between atoms: N_15  and  C_16 
REMARK    8  A    between atoms: C_23  and  C_24 
REMARK    9  A    between atoms: C_24  and  N_25 
REMARK   10  A    between atoms: C_33  and  N_34 
ROOT
HETATM    1  S   UNL     1      42.719 -14.560   2.668  1.00  0.00    -0.082 SA
ENDROOT
BRANCH   1   2
HETATM    2  C   UNL     1      41.484 -15.274   3.804  1.00  0.00     0.166 C 
BRANCH   2   3
HETATM    3  C   UNL     1      41.281 -16.743   3.462  1.00  0.00     0.177 C 
HETATM    4  O   UNL     1      40.323 -17.098   2.757  1.00  0.00    -0.291 OA
BRANCH   3   5
HETATM    5  C   UNL     1      42.231 -17.769   4.010  1.00  0.00     0.117 C 
HETATM    6  C   UNL     1      42.388 -17.946   5.469  1.00  0.00     0.266 C 
HETATM    7  N   UNL     1      43.073 -19.041   5.880  1.00  0.00    -0.274 N 
HETATM    8  O   UNL     1      41.957 -17.123   6.270  1.00  0.00    -0.267 OA
HETATM    9  C   UNL     1      43.963 -19.708   5.100  1.00  0.00     0.330 C 
HETATM   10  H   UNL     1      43.211 -19.151   6.875  1.00  0.00     0.173 HD
HETATM   11  N   UNL     1      43.896 -19.444   3.736  1.00  0.00    -0.289 N 
HETATM   12  O   UNL     1      44.776 -20.463   5.624  1.00  0.00    -0.246 OA
HETATM   13  C   UNL     1      43.016 -18.506   3.183  1.00  0.00     0.103 C 
BRANCH  11  14
HETATM   14  C   UNL     1      44.845 -20.184   2.893  1.00  0.00     0.135 C 
BRANCH  14  15
HETATM   15  C   UNL     1      44.402 -21.638   2.706  1.00  0.00     0.016 C 
HETATM   16  C   UNL     1      43.922 -21.903   1.289  1.00  0.00     0.006 C 
ENDBRANCH  14  15
ENDBRANCH  11  14
BRANCH  13  17
HETATM   17  N   UNL     1      42.969 -18.346   1.802  1.00  0.00    -0.287 NA
HETATM   18  H   UNL     1      43.806 -17.886   1.429  1.00  0.00     0.125 HD
HETATM   19  H   UNL     1      42.806 -19.219   1.309  1.00  0.00     0.125 HD
ENDBRANCH  13  17
ENDBRANCH   3   5
ENDBRANCH   2   3
ENDBRANCH   1   2
BRANCH   1  20
HETATM   20  C   UNL     1      41.789 -14.507   1.206  1.00  0.00     0.196 A 
HETATM   21  N   UNL     1      40.735 -13.645   0.943  1.00  0.00    -0.274 N 
HETATM   22  C   UNL     1      40.222 -14.128  -0.261  1.00  0.00     0.166 A 
HETATM   23  N   UNL     1      40.919 -15.174  -0.660  1.00  0.00    -0.131 NA
HETATM   24  N   UNL     1      41.897 -15.404   0.254  1.00  0.00    -0.122 NA
BRANCH  21  25
HETATM   25  C   UNL     1      40.323 -12.478   1.646  1.00  0.00     0.043 A 
HETATM   26  C   UNL     1      39.191 -12.515   2.472  1.00  0.00     0.032 A 
HETATM   27  C   UNL     1      38.807 -11.382   3.197  1.00  0.00     0.026 A 
HETATM   28  C   UNL     1      39.547 -10.208   3.096  1.00  0.00     0.034 A 
HETATM   29 CL   UNL     1      39.082  -8.820   3.996  1.00  0.00    -0.084 Cl
HETATM   30  C   UNL     1      40.666 -10.156   2.269  1.00  0.00     0.026 A 
HETATM   31  C   UNL     1      41.056 -11.288   1.542  1.00  0.00     0.032 A 
ENDBRANCH  21  25
BRANCH  22  32
HETATM   32  C   UNL     1      39.192 -13.487  -1.140  1.00  0.00     0.254 C 
HETATM   33  C   UNL     1      37.798 -13.841  -0.607  1.00  0.00     0.049 C 
BRANCH  32  34
HETATM   34  N   UNL     1      39.339 -14.026  -2.583  1.00  0.00    -0.068 N 
HETATM   35  H   UNL     1      40.090 -14.734  -2.514  1.00  0.00     0.279 HD
HETATM   36  C   UNL     1      38.125 -14.694  -3.154  1.00  0.00     0.270 C 
HETATM   37  C   UNL     1      39.865 -12.977  -3.533  1.00  0.00     0.270 C 
ENDBRANCH  32  34
ENDBRANCH  22  32
ENDBRANCH   1  20
TORSDOF 10
ENDMDL
