MODEL 1
REMARK VINA RESULT:      -8.0      0.000      0.000
REMARK  11 active torsions:
REMARK  status: ('A' for Active; 'I' for Inactive)
REMARK    1  A    between atoms: O_2  and  C_3 
REMARK    2  A    between atoms: C_6  and  C_7 
REMARK    3  A    between atoms: C_7  and  N_8 
REMARK    4  A    between atoms: C_7  and  C_29 
REMARK       I    between atoms: N_8  and  C_9 
REMARK    5  A    between atoms: N_8  and  C_20 
REMARK    6  A    between atoms: C_9  and  C_10 
REMARK    7  A    between atoms: C_13  and  C_14 
REMARK       I    between atoms: C_14  and  N_15 
REMARK    8  A    between atoms: C_17  and  N_18 
REMARK    9  A    between atoms: C_20  and  C_21 
REMARK   10  A    between atoms: C_21  and  N_22 
REMARK       I    between atoms: C_29  and  N_30 
REMARK   11  A    between atoms: N_30  and  C_31 
ROOT
HETATM    1  N   UNL     1      41.669 -15.306   3.191  1.00  0.00    -0.328 N 
HETATM    2  C   UNL     1      41.483 -15.594   1.812  1.00  0.00     0.265 C 
HETATM    3  O   UNL     1      42.195 -16.439   1.266  1.00  0.00    -0.267 OA
ENDROOT
BRANCH   1   4
HETATM    4  C   UNL     1      42.802 -16.000   3.857  1.00  0.00     0.213 C 
BRANCH   4   5
HETATM    5  C   UNL     1      43.363 -15.330   5.109  1.00  0.00    -0.026 A 
HETATM    6  C   UNL     1      43.233 -15.949   6.365  1.00  0.00     0.012 A 
HETATM    7  C   UNL     1      43.809 -15.391   7.513  1.00  0.00     0.037 A 
HETATM    8  C   UNL     1      44.541 -14.211   7.429  1.00  0.00     0.068 A 
HETATM    9  C   UNL     1      44.695 -13.597   6.186  1.00  0.00     0.037 A 
HETATM   10  C   UNL     1      44.121 -14.149   5.038  1.00  0.00     0.012 A 
BRANCH   8  11
HETATM   11  O   UNL     1      45.158 -13.567   8.463  1.00  0.00    -0.356 OA
HETATM   12  C   UNL     1      44.679 -12.268   8.791  1.00  0.00     0.210 C 
ENDBRANCH   8  11
ENDBRANCH   4   5
BRANCH   4  13
HETATM   13  C   UNL     1      42.605 -17.532   3.916  1.00  0.00     0.245 C 
HETATM   14  N   UNL     1      43.593 -18.299   3.353  1.00  0.00    -0.354 N 
HETATM   15  H   UNL     1      44.316 -17.815   2.815  1.00  0.00     0.162 HD
HETATM   16  O   UNL     1      41.618 -18.002   4.486  1.00  0.00    -0.271 OA
BRANCH  14  17
HETATM   17  C   UNL     1      43.500 -19.738   3.244  1.00  0.00     0.084 C 
HETATM   18  C   UNL     1      43.107 -20.180   1.836  1.00  0.00     0.025 C 
HETATM   19  C   UNL     1      43.601 -21.615   1.782  1.00  0.00     0.002 C 
HETATM   20  C   UNL     1      44.954 -21.552   2.477  1.00  0.00     0.002 C 
HETATM   21  C   UNL     1      44.834 -20.439   3.519  1.00  0.00     0.025 C 
ENDBRANCH  14  17
ENDBRANCH   4  13
ENDBRANCH   1   4
BRANCH   1  22
HETATM   22  C   UNL     1      41.225 -14.037   3.812  1.00  0.00     0.155 C 
BRANCH  22  23
HETATM   23  C   UNL     1      40.228 -14.207   4.986  1.00  0.00     0.255 C 
BRANCH  23  24
HETATM   24  N   UNL     1      40.470 -13.241   6.130  1.00  0.00    -0.066 N 
HETATM   25  H   UNL     1      40.913 -13.759   6.898  1.00  0.00     0.280 HD
HETATM   26  C   UNL     1      41.368 -12.057   5.751  1.00  0.00     0.261 C 
HETATM   27  C   UNL     1      41.573 -11.162   6.979  1.00  0.00     0.195 C 
HETATM   28  O   UNL     1      40.318 -10.694   7.480  1.00  0.00    -0.388 OA
HETATM   29  C   UNL     1      39.471 -11.772   7.893  1.00  0.00     0.195 C 
HETATM   30  C   UNL     1      39.159 -12.703   6.714  1.00  0.00     0.261 C 
ENDBRANCH  23  24
ENDBRANCH  22  23
ENDBRANCH   1  22
BRANCH   2  31
HETATM   31  C   UNL     1      40.494 -14.876   1.044  1.00  0.00     0.120 A 
HETATM   32  S   UNL     1      38.863 -14.779   1.518  1.00  0.00     0.020 SA
HETATM   33  N   UNL     1      38.342 -13.877   0.237  1.00  0.00    -0.203 NA
HETATM   34  C   UNL     1      39.344 -13.755  -0.650  1.00  0.00     0.160 A 
HETATM   35  C   UNL     1      40.601 -14.331  -0.221  1.00  0.00     0.085 A 
BRANCH  34  36
HETATM   36  C   UNL     1      39.112 -13.098  -1.949  1.00  0.00     0.271 C 
HETATM   37  N   UNL     1      37.831 -12.671  -2.169  1.00  0.00    -0.365 N 
HETATM   38  H   UNL     1      37.103 -12.870  -1.495  1.00  0.00     0.159 HD
HETATM   39  H   UNL     1      37.597 -12.272  -3.067  1.00  0.00     0.159 HD
HETATM   40  O   UNL     1      39.986 -12.944  -2.798  1.00  0.00    -0.266 OA
ENDBRANCH  34  36
BRANCH  35  41
HETATM   41  N   UNL     1      41.745 -14.332  -0.951  1.00  0.00    -0.396 N 
HETATM   42  H   UNL     1      42.135 -15.235  -1.249  1.00  0.00     0.156 HD
HETATM   43  H   UNL     1      42.486 -13.657  -0.758  1.00  0.00     0.156 HD
ENDBRANCH  35  41
ENDBRANCH   2  31
TORSDOF 11
ENDMDL
MODEL 2
REMARK VINA RESULT:      -7.8      2.381      6.215
REMARK  11 active torsions:
REMARK  status: ('A' for Active; 'I' for Inactive)
REMARK    1  A    between atoms: O_2  and  C_3 
REMARK    2  A    between atoms: C_6  and  C_7 
REMARK    3  A    between atoms: C_7  and  N_8 
REMARK    4  A    between atoms: C_7  and  C_29 
REMARK       I    between atoms: N_8  and  C_9 
REMARK    5  A    between atoms: N_8  and  C_20 
REMARK    6  A    between atoms: C_9  and  C_10 
REMARK    7  A    between atoms: C_13  and  C_14 
REMARK       I    between atoms: C_14  and  N_15 
REMARK    8  A    between atoms: C_17  and  N_18 
REMARK    9  A    between atoms: C_20  and  C_21 
REMARK   10  A    between atoms: C_21  and  N_22 
REMARK       I    between atoms: C_29  and  N_30 
REMARK   11  A    between atoms: N_30  and  C_31 
ROOT
HETATM    1  N   UNL     1      40.945 -14.287   2.492  1.00  0.00    -0.328 N 
HETATM    2  C   UNL     1      40.057 -14.991   1.635  1.00  0.00     0.265 C 
HETATM    3  O   UNL     1      39.596 -16.076   1.997  1.00  0.00    -0.267 OA
ENDROOT
BRANCH   1   4
HETATM    4  C   UNL     1      41.330 -14.981   3.749  1.00  0.00     0.213 C 
BRANCH   4   5
HETATM    5  C   UNL     1      42.219 -16.213   3.596  1.00  0.00    -0.026 A 
HETATM    6  C   UNL     1      42.004 -17.347   4.398  1.00  0.00     0.012 A 
HETATM    7  C   UNL     1      42.755 -18.516   4.220  1.00  0.00     0.037 A 
HETATM    8  C   UNL     1      43.727 -18.581   3.226  1.00  0.00     0.068 A 
HETATM    9  C   UNL     1      43.937 -17.470   2.410  1.00  0.00     0.037 A 
HETATM   10  C   UNL     1      43.190 -16.302   2.584  1.00  0.00     0.012 A 
BRANCH   8  11
HETATM   11  O   UNL     1      44.521 -19.655   2.942  1.00  0.00    -0.356 OA
HETATM   12  C   UNL     1      44.912 -20.476   4.037  1.00  0.00     0.210 C 
ENDBRANCH   8  11
ENDBRANCH   4   5
BRANCH   4  13
HETATM   13  C   UNL     1      41.696 -13.993   4.881  1.00  0.00     0.245 C 
HETATM   14  N   UNL     1      40.692 -13.170   5.323  1.00  0.00    -0.354 N 
HETATM   15  H   UNL     1      39.820 -13.162   4.790  1.00  0.00     0.162 HD
HETATM   16  O   UNL     1      42.830 -14.007   5.363  1.00  0.00    -0.271 OA
BRANCH  14  17
HETATM   17  C   UNL     1      40.909 -12.130   6.304  1.00  0.00     0.084 C 
HETATM   18  C   UNL     1      41.299 -10.804   5.655  1.00  0.00     0.025 C 
HETATM   19  C   UNL     1      40.933  -9.785   6.720  1.00  0.00     0.002 C 
HETATM   20  C   UNL     1      39.601 -10.292   7.254  1.00  0.00     0.002 C 
HETATM   21  C   UNL     1      39.651 -11.814   7.120  1.00  0.00     0.025 C 
ENDBRANCH  14  17
ENDBRANCH   4  13
ENDBRANCH   1   4
BRANCH   1  22
HETATM   22  C   UNL     1      41.892 -13.261   1.998  1.00  0.00     0.155 C 
BRANCH  22  23
HETATM   23  C   UNL     1      41.338 -11.814   2.004  1.00  0.00     0.255 C 
BRANCH  23  24
HETATM   24  N   UNL     1      41.568 -11.072   0.702  1.00  0.00    -0.066 N 
HETATM   25  H   UNL     1      42.078 -10.205   0.913  1.00  0.00     0.280 HD
HETATM   26  C   UNL     1      42.370 -11.877  -0.328  1.00  0.00     0.261 C 
HETATM   27  C   UNL     1      42.572 -11.029  -1.590  1.00  0.00     0.195 C 
HETATM   28  O   UNL     1      41.312 -10.632  -2.140  1.00  0.00    -0.388 OA
HETATM   29  C   UNL     1      40.556  -9.834  -1.223  1.00  0.00     0.195 C 
HETATM   30  C   UNL     1      40.253 -10.616   0.061  1.00  0.00     0.261 C 
ENDBRANCH  23  24
ENDBRANCH  22  23
ENDBRANCH   1  22
BRANCH   2  31
HETATM   31  C   UNL     1      39.725 -14.461   0.334  1.00  0.00     0.120 A 
HETATM   32  S   UNL     1      38.250 -13.677   0.017  1.00  0.00     0.020 SA
HETATM   33  N   UNL     1      38.532 -13.372  -1.581  1.00  0.00    -0.203 NA
HETATM   34  C   UNL     1      39.672 -13.983  -1.950  1.00  0.00     0.160 A 
HETATM   35  C   UNL     1      40.383 -14.632  -0.869  1.00  0.00     0.085 A 
BRANCH  34  36
HETATM   36  C   UNL     1      40.097 -13.975  -3.361  1.00  0.00     0.271 C 
HETATM   37  N   UNL     1      40.049 -12.756  -3.981  1.00  0.00    -0.365 N 
HETATM   38  H   UNL     1      39.678 -11.950  -3.495  1.00  0.00     0.159 HD
HETATM   39  H   UNL     1      40.266 -12.701  -4.966  1.00  0.00     0.159 HD
HETATM   40  O   UNL     1      40.459 -14.980  -3.967  1.00  0.00    -0.266 OA
ENDBRANCH  34  36
BRANCH  35  41
HETATM   41  N   UNL     1      41.549 -15.312  -1.005  1.00  0.00    -0.396 N 
HETATM   42  H   UNL     1      41.526 -16.238  -1.451  1.00  0.00     0.156 HD
HETATM   43  H   UNL     1      42.262 -15.273  -0.276  1.00  0.00     0.156 HD
ENDBRANCH  35  41
ENDBRANCH   2  31
TORSDOF 11
ENDMDL
MODEL 3
REMARK VINA RESULT:      -7.8      2.149      6.399
REMARK  11 active torsions:
REMARK  status: ('A' for Active; 'I' for Inactive)
REMARK    1  A    between atoms: O_2  and  C_3 
REMARK    2  A    between atoms: C_6  and  C_7 
REMARK    3  A    between atoms: C_7  and  N_8 
REMARK    4  A    between atoms: C_7  and  C_29 
REMARK       I    between atoms: N_8  and  C_9 
REMARK    5  A    between atoms: N_8  and  C_20 
REMARK    6  A    between atoms: C_9  and  C_10 
REMARK    7  A    between atoms: C_13  and  C_14 
REMARK       I    between atoms: C_14  and  N_15 
REMARK    8  A    between atoms: C_17  and  N_18 
REMARK    9  A    between atoms: C_20  and  C_21 
REMARK   10  A    between atoms: C_21  and  N_22 
REMARK       I    between atoms: C_29  and  N_30 
REMARK   11  A    between atoms: N_30  and  C_31 
ROOT
HETATM    1  N   UNL     1      41.494 -14.615   2.892  1.00  0.00    -0.328 N 
HETATM    2  C   UNL     1      40.146 -14.445   3.308  1.00  0.00     0.265 C 
HETATM    3  O   UNL     1      39.261 -15.134   2.795  1.00  0.00    -0.267 OA
ENDROOT
BRANCH   1   4
HETATM    4  C   UNL     1      41.719 -15.568   1.774  1.00  0.00     0.213 C 
BRANCH   4   5
HETATM    5  C   UNL     1      41.506 -15.022   0.365  1.00  0.00    -0.026 A 
HETATM    6  C   UNL     1      41.789 -13.676   0.074  1.00  0.00     0.012 A 
HETATM    7  C   UNL     1      41.676 -13.175  -1.228  1.00  0.00     0.037 A 
HETATM    8  C   UNL     1      41.292 -14.012  -2.272  1.00  0.00     0.068 A 
HETATM    9  C   UNL     1      41.028 -15.354  -2.002  1.00  0.00     0.037 A 
HETATM   10  C   UNL     1      41.139 -15.858  -0.703  1.00  0.00     0.012 A 
BRANCH   8  11
HETATM   11  O   UNL     1      41.151 -13.656  -3.583  1.00  0.00    -0.356 OA
HETATM   12  C   UNL     1      40.527 -12.405  -3.847  1.00  0.00     0.210 C 
ENDBRANCH   8  11
ENDBRANCH   4   5
BRANCH   4  13
HETATM   13  C   UNL     1      42.967 -16.455   1.996  1.00  0.00     0.245 C 
HETATM   14  N   UNL     1      42.801 -17.557   2.796  1.00  0.00    -0.354 N 
HETATM   15  H   UNL     1      41.915 -17.643   3.300  1.00  0.00     0.162 HD
HETATM   16  O   UNL     1      44.026 -16.175   1.431  1.00  0.00    -0.271 OA
BRANCH  14  17
HETATM   17  C   UNL     1      43.897 -18.421   3.174  1.00  0.00     0.084 C 
HETATM   18  C   UNL     1      43.656 -19.094   4.523  1.00  0.00     0.025 C 
HETATM   19  C   UNL     1      44.566 -20.307   4.464  1.00  0.00     0.002 C 
HETATM   20  C   UNL     1      44.391 -20.815   3.039  1.00  0.00     0.002 C 
HETATM   21  C   UNL     1      44.106 -19.576   2.189  1.00  0.00     0.025 C 
ENDBRANCH  14  17
ENDBRANCH   4  13
ENDBRANCH   1   4
BRANCH   1  22
HETATM   22  C   UNL     1      42.527 -13.570   3.076  1.00  0.00     0.155 C 
BRANCH  22  23
HETATM   23  C   UNL     1      43.811 -14.050   3.798  1.00  0.00     0.255 C 
BRANCH  23  24
HETATM   24  N   UNL     1      43.610 -14.320   5.277  1.00  0.00    -0.066 N 
HETATM   25  H   UNL     1      42.732 -13.871   5.568  1.00  0.00     0.280 HD
HETATM   26  C   UNL     1      43.537 -15.811   5.622  1.00  0.00     0.261 C 
HETATM   27  C   UNL     1      43.304 -15.973   7.129  1.00  0.00     0.195 C 
HETATM   28  O   UNL     1      44.347 -15.339   7.875  1.00  0.00    -0.388 OA
HETATM   29  C   UNL     1      44.411 -13.932   7.616  1.00  0.00     0.195 C 
HETATM   30  C   UNL     1      44.697 -13.663   6.133  1.00  0.00     0.261 C 
ENDBRANCH  23  24
ENDBRANCH  22  23
ENDBRANCH   1  22
BRANCH   2  31
HETATM   31  C   UNL     1      39.807 -13.448   4.295  1.00  0.00     0.120 A 
HETATM   32  S   UNL     1      39.411 -11.848   3.878  1.00  0.00     0.020 SA
HETATM   33  N   UNL     1      39.171 -11.300   5.417  1.00  0.00    -0.203 NA
HETATM   34  C   UNL     1      39.528 -12.262   6.286  1.00  0.00     0.160 A 
HETATM   35  C   UNL     1      39.912 -13.515   5.671  1.00  0.00     0.085 A 
BRANCH  34  36
HETATM   36  C   UNL     1      39.530 -11.993   7.734  1.00  0.00     0.271 C 
HETATM   37  N   UNL     1      38.728 -12.810   8.484  1.00  0.00    -0.365 N 
HETATM   38  H   UNL     1      38.137 -13.498   8.034  1.00  0.00     0.159 HD
HETATM   39  H   UNL     1      38.638 -12.631   9.474  1.00  0.00     0.159 HD
HETATM   40  O   UNL     1      40.183 -11.094   8.258  1.00  0.00    -0.266 OA
ENDBRANCH  34  36
BRANCH  35  41
HETATM   41  N   UNL     1      40.313 -14.621   6.347  1.00  0.00    -0.396 N 
HETATM   42  H   UNL     1      41.105 -14.537   6.998  1.00  0.00     0.156 HD
HETATM   43  H   UNL     1      40.302 -15.538   5.898  1.00  0.00     0.156 HD
ENDBRANCH  35  41
ENDBRANCH   2  31
TORSDOF 11
ENDMDL
MODEL 4
REMARK VINA RESULT:      -7.5      2.173      5.179
REMARK  11 active torsions:
REMARK  status: ('A' for Active; 'I' for Inactive)
REMARK    1  A    between atoms: O_2  and  C_3 
REMARK    2  A    between atoms: C_6  and  C_7 
REMARK    3  A    between atoms: C_7  and  N_8 
REMARK    4  A    between atoms: C_7  and  C_29 
REMARK       I    between atoms: N_8  and  C_9 
REMARK    5  A    between atoms: N_8  and  C_20 
REMARK    6  A    between atoms: C_9  and  C_10 
REMARK    7  A    between atoms: C_13  and  C_14 
REMARK       I    between atoms: C_14  and  N_15 
REMARK    8  A    between atoms: C_17  and  N_18 
REMARK    9  A    between atoms: C_20  and  C_21 
REMARK   10  A    between atoms: C_21  and  N_22 
REMARK       I    between atoms: C_29  and  N_30 
REMARK   11  A    between atoms: N_30  and  C_31 
ROOT
HETATM    1  N   UNL     1      41.014 -13.974   2.100  1.00  0.00    -0.328 N 
HETATM    2  C   UNL     1      40.913 -13.076   1.003  1.00  0.00     0.265 C 
HETATM    3  O   UNL     1      41.502 -11.993   1.049  1.00  0.00    -0.267 OA
ENDROOT
BRANCH   1   4
HETATM    4  C   UNL     1      41.763 -13.480   3.284  1.00  0.00     0.213 C 
BRANCH   4   5
HETATM    5  C   UNL     1      40.974 -12.629   4.277  1.00  0.00    -0.026 A 
HETATM    6  C   UNL     1      39.834 -13.152   4.912  1.00  0.00     0.012 A 
HETATM    7  C   UNL     1      39.143 -12.419   5.884  1.00  0.00     0.037 A 
HETATM    8  C   UNL     1      39.586 -11.153   6.256  1.00  0.00     0.068 A 
HETATM    9  C   UNL     1      40.728 -10.630   5.649  1.00  0.00     0.037 A 
HETATM   10  C   UNL     1      41.420 -11.358   4.678  1.00  0.00     0.012 A 
BRANCH   8  11
HETATM   11  O   UNL     1      39.014 -10.338   7.190  1.00  0.00    -0.356 OA
HETATM   12  C   UNL     1      39.257 -10.654   8.556  1.00  0.00     0.210 C 
ENDBRANCH   8  11
ENDBRANCH   4   5
BRANCH   4  13
HETATM   13  C   UNL     1      42.703 -14.554   3.879  1.00  0.00     0.245 C 
HETATM   14  N   UNL     1      42.271 -15.182   5.019  1.00  0.00    -0.354 N 
HETATM   15  H   UNL     1      41.435 -14.809   5.475  1.00  0.00     0.162 HD
HETATM   16  O   UNL     1      43.757 -14.832   3.304  1.00  0.00    -0.271 OA
BRANCH  14  17
HETATM   17  C   UNL     1      43.084 -16.134   5.743  1.00  0.00     0.084 C 
HETATM   18  C   UNL     1      43.829 -15.483   6.905  1.00  0.00     0.025 C 
HETATM   19  C   UNL     1      44.130 -16.659   7.817  1.00  0.00     0.002 C 
HETATM   20  C   UNL     1      42.847 -17.479   7.775  1.00  0.00     0.002 C 
HETATM   21  C   UNL     1      42.255 -17.253   6.384  1.00  0.00     0.025 C 
ENDBRANCH  14  17
ENDBRANCH   4  13
ENDBRANCH   1   4
BRANCH   1  22
HETATM   22  C   UNL     1      40.019 -15.040   2.356  1.00  0.00     0.155 C 
BRANCH  22  23
HETATM   23  C   UNL     1      40.362 -16.411   1.720  1.00  0.00     0.255 C 
BRANCH  23  24
HETATM   24  N   UNL     1      41.776 -16.875   2.008  1.00  0.00    -0.066 N 
HETATM   25  H   UNL     1      42.255 -16.135   2.537  1.00  0.00     0.280 HD
HETATM   26  C   UNL     1      41.840 -18.177   2.816  1.00  0.00     0.261 C 
HETATM   27  C   UNL     1      43.306 -18.541   3.078  1.00  0.00     0.195 C 
HETATM   28  O   UNL     1      44.020 -18.683   1.847  1.00  0.00    -0.388 OA
HETATM   29  C   UNL     1      44.026 -17.470   1.088  1.00  0.00     0.195 C 
HETATM   30  C   UNL     1      42.597 -17.046   0.726  1.00  0.00     0.261 C 
ENDBRANCH  23  24
ENDBRANCH  22  23
ENDBRANCH   1  22
BRANCH   2  31
HETATM   31  C   UNL     1      40.099 -13.410  -0.141  1.00  0.00     0.120 A 
HETATM   32  S   UNL     1      38.404 -13.266  -0.128  1.00  0.00     0.020 SA
HETATM   33  N   UNL     1      38.153 -13.805  -1.668  1.00  0.00    -0.203 NA
HETATM   34  C   UNL     1      39.317 -14.247  -2.174  1.00  0.00     0.160 A 
HETATM   35  C   UNL     1      40.463 -14.044  -1.313  1.00  0.00     0.085 A 
BRANCH  34  36
HETATM   36  C   UNL     1      39.354 -14.898  -3.496  1.00  0.00     0.271 C 
HETATM   37  N   UNL     1      38.167 -14.913  -4.177  1.00  0.00    -0.365 N 
HETATM   38  H   UNL     1      37.326 -14.552  -3.744  1.00  0.00     0.159 HD
HETATM   39  H   UNL     1      38.116 -15.402  -5.058  1.00  0.00     0.159 HD
HETATM   40  O   UNL     1      40.363 -15.414  -3.971  1.00  0.00    -0.266 OA
ENDBRANCH  34  36
BRANCH  35  41
HETATM   41  N   UNL     1      41.734 -14.414  -1.611  1.00  0.00    -0.396 N 
HETATM   42  H   UNL     1      41.892 -15.002  -2.439  1.00  0.00     0.156 HD
HETATM   43  H   UNL     1      42.398 -14.637  -0.869  1.00  0.00     0.156 HD
ENDBRANCH  35  41
ENDBRANCH   2  31
TORSDOF 11
ENDMDL
MODEL 5
REMARK VINA RESULT:      -7.3      2.678      6.643
REMARK  11 active torsions:
REMARK  status: ('A' for Active; 'I' for Inactive)
REMARK    1  A    between atoms: O_2  and  C_3 
REMARK    2  A    between atoms: C_6  and  C_7 
REMARK    3  A    between atoms: C_7  and  N_8 
REMARK    4  A    between atoms: C_7  and  C_29 
REMARK       I    between atoms: N_8  and  C_9 
REMARK    5  A    between atoms: N_8  and  C_20 
REMARK    6  A    between atoms: C_9  and  C_10 
REMARK    7  A    between atoms: C_13  and  C_14 
REMARK       I    between atoms: C_14  and  N_15 
REMARK    8  A    between atoms: C_17  and  N_18 
REMARK    9  A    between atoms: C_20  and  C_21 
REMARK   10  A    between atoms: C_21  and  N_22 
REMARK       I    between atoms: C_29  and  N_30 
REMARK   11  A    between atoms: N_30  and  C_31 
ROOT
HETATM    1  N   UNL     1      41.034 -13.387   3.691  1.00  0.00    -0.328 N 
HETATM    2  C   UNL     1      40.041 -12.463   4.114  1.00  0.00     0.265 C 
HETATM    3  O   UNL     1      38.992 -12.364   3.473  1.00  0.00    -0.267 OA
ENDROOT
BRANCH   1   4
HETATM    4  C   UNL     1      40.758 -14.110   2.422  1.00  0.00     0.213 C 
BRANCH   4   5
HETATM    5  C   UNL     1      41.385 -13.524   1.160  1.00  0.00    -0.026 A 
HETATM    6  C   UNL     1      41.402 -14.265  -0.035  1.00  0.00     0.012 A 
HETATM    7  C   UNL     1      41.900 -13.717  -1.223  1.00  0.00     0.037 A 
HETATM    8  C   UNL     1      42.377 -12.409  -1.247  1.00  0.00     0.068 A 
HETATM    9  C   UNL     1      42.347 -11.656  -0.074  1.00  0.00     0.037 A 
HETATM   10  C   UNL     1      41.852 -12.199   1.114  1.00  0.00     0.012 A 
BRANCH   8  11
HETATM   11  O   UNL     1      42.881 -11.752  -2.334  1.00  0.00    -0.356 OA
HETATM   12  C   UNL     1      42.470 -10.403  -2.518  1.00  0.00     0.210 C 
ENDBRANCH   8  11
ENDBRANCH   4   5
BRANCH   4  13
HETATM   13  C   UNL     1      40.832 -15.646   2.589  1.00  0.00     0.245 C 
HETATM   14  N   UNL     1      42.078 -16.180   2.795  1.00  0.00    -0.354 N 
HETATM   15  H   UNL     1      42.882 -15.557   2.686  1.00  0.00     0.162 HD
HETATM   16  O   UNL     1      39.797 -16.314   2.575  1.00  0.00    -0.271 OA
BRANCH  14  17
HETATM   17  C   UNL     1      42.316 -17.605   2.869  1.00  0.00     0.084 C 
HETATM   18  C   UNL     1      42.551 -18.217   1.490  1.00  0.00     0.025 C 
HETATM   19  C   UNL     1      43.303 -19.496   1.812  1.00  0.00     0.002 C 
HETATM   20  C   UNL     1      44.275 -19.073   2.904  1.00  0.00     0.002 C 
HETATM   21  C   UNL     1      43.572 -17.954   3.674  1.00  0.00     0.025 C 
ENDBRANCH  14  17
ENDBRANCH   4  13
ENDBRANCH   1   4
BRANCH   1  22
HETATM   22  C   UNL     1      42.459 -13.264   4.075  1.00  0.00     0.155 C 
BRANCH  22  23
HETATM   23  C   UNL     1      42.756 -13.569   5.564  1.00  0.00     0.255 C 
BRANCH  23  24
HETATM   24  N   UNL     1      42.820 -15.051   5.878  1.00  0.00    -0.066 N 
HETATM   25  H   UNL     1      43.077 -15.550   5.017  1.00  0.00     0.280 HD
HETATM   26  C   UNL     1      43.835 -15.402   6.972  1.00  0.00     0.261 C 
HETATM   27  C   UNL     1      43.844 -16.920   7.191  1.00  0.00     0.195 C 
HETATM   28  O   UNL     1      42.541 -17.386   7.552  1.00  0.00    -0.388 OA
HETATM   29  C   UNL     1      41.575 -17.122   6.530  1.00  0.00     0.195 C 
HETATM   30  C   UNL     1      41.451 -15.615   6.272  1.00  0.00     0.261 C 
ENDBRANCH  23  24
ENDBRANCH  22  23
ENDBRANCH   1  22
BRANCH   2  31
HETATM   31  C   UNL     1      40.271 -11.618   5.261  1.00  0.00     0.120 A 
HETATM   32  S   UNL     1      41.196 -10.194   5.175  1.00  0.00     0.020 SA
HETATM   33  N   UNL     1      41.061  -9.778   6.767  1.00  0.00    -0.203 NA
HETATM   34  C   UNL     1      40.447 -10.774   7.430  1.00  0.00     0.160 A 
HETATM   35  C   UNL     1      39.986 -11.860   6.591  1.00  0.00     0.085 A 
BRANCH  34  36
HETATM   36  C   UNL     1      40.306 -10.715   8.895  1.00  0.00     0.271 C 
HETATM   37  N   UNL     1      41.406 -11.109   9.607  1.00  0.00    -0.365 N 
HETATM   38  H   UNL     1      42.220 -11.473   9.129  1.00  0.00     0.159 HD
HETATM   39  H   UNL     1      41.346 -11.152  10.614  1.00  0.00     0.159 HD
HETATM   40  O   UNL     1      39.279 -10.356   9.465  1.00  0.00    -0.266 OA
ENDBRANCH  34  36
BRANCH  35  41
HETATM   41  N   UNL     1      39.347 -12.970   7.039  1.00  0.00    -0.396 N 
HETATM   42  H   UNL     1      38.409 -13.176   6.673  1.00  0.00     0.156 HD
HETATM   43  H   UNL     1      39.435 -13.264   8.013  1.00  0.00     0.156 HD
ENDBRANCH  35  41
ENDBRANCH   2  31
TORSDOF 11
ENDMDL
MODEL 6
REMARK VINA RESULT:      -7.2      2.770      7.323
REMARK  11 active torsions:
REMARK  status: ('A' for Active; 'I' for Inactive)
REMARK    1  A    between atoms: O_2  and  C_3 
REMARK    2  A    between atoms: C_6  and  C_7 
REMARK    3  A    between atoms: C_7  and  N_8 
REMARK    4  A    between atoms: C_7  and  C_29 
REMARK       I    between atoms: N_8  and  C_9 
REMARK    5  A    between atoms: N_8  and  C_20 
REMARK    6  A    between atoms: C_9  and  C_10 
REMARK    7  A    between atoms: C_13  and  C_14 
REMARK       I    between atoms: C_14  and  N_15 
REMARK    8  A    between atoms: C_17  and  N_18 
REMARK    9  A    between atoms: C_20  and  C_21 
REMARK   10  A    between atoms: C_21  and  N_22 
REMARK       I    between atoms: C_29  and  N_30 
REMARK   11  A    between atoms: N_30  and  C_31 
ROOT
HETATM    1  N   UNL     1      40.938 -13.910   3.095  1.00  0.00    -0.328 N 
HETATM    2  C   UNL     1      40.763 -14.198   4.476  1.00  0.00     0.265 C 
HETATM    3  O   UNL     1      40.494 -15.350   4.826  1.00  0.00    -0.267 OA
ENDROOT
BRANCH   1   4
HETATM    4  C   UNL     1      40.683 -15.031   2.154  1.00  0.00     0.213 C 
BRANCH   4   5
HETATM    5  C   UNL     1      39.830 -14.706   0.930  1.00  0.00    -0.026 A 
HETATM    6  C   UNL     1      38.483 -14.333   1.081  1.00  0.00     0.012 A 
HETATM    7  C   UNL     1      37.706 -13.954  -0.020  1.00  0.00     0.037 A 
HETATM    8  C   UNL     1      38.262 -13.924  -1.295  1.00  0.00     0.068 A 
HETATM    9  C   UNL     1      39.603 -14.271  -1.457  1.00  0.00     0.037 A 
HETATM   10  C   UNL     1      40.382 -14.651  -0.361  1.00  0.00     0.012 A 
BRANCH   8  11
HETATM   11  O   UNL     1      37.623 -13.568  -2.448  1.00  0.00    -0.356 OA
HETATM   12  C   UNL     1      37.556 -14.549  -3.477  1.00  0.00     0.210 C 
ENDBRANCH   8  11
ENDBRANCH   4   5
BRANCH   4  13
HETATM   13  C   UNL     1      41.939 -15.902   1.917  1.00  0.00     0.245 C 
HETATM   14  N   UNL     1      42.058 -17.028   2.690  1.00  0.00    -0.354 N 
HETATM   15  H   UNL     1      41.393 -17.144   3.459  1.00  0.00     0.162 HD
HETATM   16  O   UNL     1      42.744 -15.588   1.039  1.00  0.00    -0.271 OA
BRANCH  14  17
HETATM   17  C   UNL     1      43.223 -17.884   2.652  1.00  0.00     0.084 C 
HETATM   18  C   UNL     1      43.456 -18.592   3.984  1.00  0.00     0.025 C 
HETATM   19  C   UNL     1      44.302 -19.789   3.587  1.00  0.00     0.002 C 
HETATM   20  C   UNL     1      43.658 -20.266   2.292  1.00  0.00     0.002 C 
HETATM   21  C   UNL     1      43.094 -19.012   1.623  1.00  0.00     0.025 C 
ENDBRANCH  14  17
ENDBRANCH   4  13
ENDBRANCH   1   4
BRANCH   1  22
HETATM   22  C   UNL     1      40.797 -12.545   2.538  1.00  0.00     0.155 C 
BRANCH  22  23
HETATM   23  C   UNL     1      42.054 -12.012   1.806  1.00  0.00     0.255 C 
BRANCH  23  24
HETATM   24  N   UNL     1      41.734 -11.211   0.559  1.00  0.00    -0.066 N 
HETATM   25  H   UNL     1      42.048 -10.244   0.710  1.00  0.00     0.280 HD
HETATM   26  C   UNL     1      42.408 -11.754  -0.706  1.00  0.00     0.261 C 
HETATM   27  C   UNL     1      42.046 -10.860  -1.899  1.00  0.00     0.195 C 
HETATM   28  O   UNL     1      40.628 -10.800  -2.075  1.00  0.00    -0.388 OA
HETATM   29  C   UNL     1      39.969 -10.249  -0.931  1.00  0.00     0.195 C 
HETATM   30  C   UNL     1      40.225 -11.107   0.314  1.00  0.00     0.261 C 
ENDBRANCH  23  24
ENDBRANCH  22  23
ENDBRANCH   1  22
BRANCH   2  31
HETATM   31  C   UNL     1      40.861 -13.147   5.459  1.00  0.00     0.120 A 
HETATM   32  S   UNL     1      42.336 -12.397   5.851  1.00  0.00     0.020 SA
HETATM   33  N   UNL     1      41.734 -11.368   6.993  1.00  0.00    -0.203 NA
HETATM   34  C   UNL     1      40.442 -11.667   7.215  1.00  0.00     0.160 A 
HETATM   35  C   UNL     1      39.906 -12.698   6.352  1.00  0.00     0.085 A 
BRANCH  34  36
HETATM   36  C   UNL     1      39.691 -10.979   8.280  1.00  0.00     0.271 C 
HETATM   37  N   UNL     1      40.204 -11.117   9.542  1.00  0.00    -0.365 N 
HETATM   38  H   UNL     1      41.005 -11.714   9.705  1.00  0.00     0.159 HD
HETATM   39  H   UNL     1      39.696 -10.723  10.321  1.00  0.00     0.159 HD
HETATM   40  O   UNL     1      38.666 -10.332   8.081  1.00  0.00    -0.266 OA
ENDBRANCH  34  36
BRANCH  35  41
HETATM   41  N   UNL     1      38.633 -13.166   6.397  1.00  0.00    -0.396 N 
HETATM   42  H   UNL     1      38.040 -12.897   7.192  1.00  0.00     0.156 HD
HETATM   43  H   UNL     1      38.414 -14.111   6.079  1.00  0.00     0.156 HD
ENDBRANCH  35  41
ENDBRANCH   2  31
TORSDOF 11
ENDMDL
MODEL 7
REMARK VINA RESULT:      -7.2      2.217      6.628
REMARK  11 active torsions:
REMARK  status: ('A' for Active; 'I' for Inactive)
REMARK    1  A    between atoms: O_2  and  C_3 
REMARK    2  A    between atoms: C_6  and  C_7 
REMARK    3  A    between atoms: C_7  and  N_8 
REMARK    4  A    between atoms: C_7  and  C_29 
REMARK       I    between atoms: N_8  and  C_9 
REMARK    5  A    between atoms: N_8  and  C_20 
REMARK    6  A    between atoms: C_9  and  C_10 
REMARK    7  A    between atoms: C_13  and  C_14 
REMARK       I    between atoms: C_14  and  N_15 
REMARK    8  A    between atoms: C_17  and  N_18 
REMARK    9  A    between atoms: C_20  and  C_21 
REMARK   10  A    between atoms: C_21  and  N_22 
REMARK       I    between atoms: C_29  and  N_30 
REMARK   11  A    between atoms: N_30  and  C_31 
ROOT
HETATM    1  N   UNL     1      41.034 -13.270   3.323  1.00  0.00    -0.328 N 
HETATM    2  C   UNL     1      39.913 -12.839   2.563  1.00  0.00     0.265 C 
HETATM    3  O   UNL     1      38.884 -12.489   3.145  1.00  0.00    -0.267 OA
ENDROOT
BRANCH   1   4
HETATM    4  C   UNL     1      40.835 -13.356   4.793  1.00  0.00     0.213 C 
BRANCH   4   5
HETATM    5  C   UNL     1      41.388 -14.603   5.479  1.00  0.00    -0.026 A 
HETATM    6  C   UNL     1      42.745 -14.672   5.840  1.00  0.00     0.012 A 
HETATM    7  C   UNL     1      43.256 -15.771   6.541  1.00  0.00     0.037 A 
HETATM    8  C   UNL     1      42.418 -16.820   6.909  1.00  0.00     0.068 A 
HETATM    9  C   UNL     1      41.066 -16.755   6.576  1.00  0.00     0.037 A 
HETATM   10  C   UNL     1      40.552 -15.660   5.876  1.00  0.00     0.012 A 
BRANCH   8  11
HETATM   11  O   UNL     1      42.783 -17.942   7.597  1.00  0.00    -0.356 OA
HETATM   12  C   UNL     1      44.045 -18.514   7.274  1.00  0.00     0.210 C 
ENDBRANCH   8  11
ENDBRANCH   4   5
BRANCH   4  13
HETATM   13  C   UNL     1      41.078 -12.004   5.503  1.00  0.00     0.245 C 
HETATM   14  N   UNL     1      40.718 -11.933   6.825  1.00  0.00    -0.354 N 
HETATM   15  H   UNL     1      40.191 -12.719   7.212  1.00  0.00     0.162 HD
HETATM   16  O   UNL     1      41.610 -11.077   4.890  1.00  0.00    -0.271 OA
BRANCH  14  17
HETATM   17  C   UNL     1      40.793 -10.709   7.591  1.00  0.00     0.084 C 
HETATM   18  C   UNL     1      39.741 -10.660   8.695  1.00  0.00     0.025 C 
HETATM   19  C   UNL     1      40.322  -9.653   9.673  1.00  0.00     0.002 C 
HETATM   20  C   UNL     1      41.802 -10.005   9.707  1.00  0.00     0.002 C 
HETATM   21  C   UNL     1      42.133 -10.547   8.316  1.00  0.00     0.025 C 
ENDBRANCH  14  17
ENDBRANCH   4  13
ENDBRANCH   1   4
BRANCH   1  22
HETATM   22  C   UNL     1      42.104 -14.124   2.759  1.00  0.00     0.155 C 
BRANCH  22  23
HETATM   23  C   UNL     1      41.624 -15.501   2.235  1.00  0.00     0.255 C 
BRANCH  23  24
HETATM   24  N   UNL     1      42.640 -16.610   2.428  1.00  0.00    -0.066 N 
HETATM   25  H   UNL     1      43.495 -16.197   2.819  1.00  0.00     0.280 HD
HETATM   26  C   UNL     1      42.159 -17.724   3.366  1.00  0.00     0.261 C 
HETATM   27  C   UNL     1      43.265 -18.775   3.516  1.00  0.00     0.195 C 
HETATM   28  O   UNL     1      43.625 -19.317   2.242  1.00  0.00    -0.388 OA
HETATM   29  C   UNL     1      44.128 -18.312   1.356  1.00  0.00     0.195 C 
HETATM   30  C   UNL     1      43.069 -17.233   1.096  1.00  0.00     0.261 C 
ENDBRANCH  23  24
ENDBRANCH  22  23
ENDBRANCH   1  22
BRANCH   2  31
HETATM   31  C   UNL     1      39.963 -12.845   1.121  1.00  0.00     0.120 A 
HETATM   32  S   UNL     1      40.934 -11.764   0.237  1.00  0.00     0.020 SA
HETATM   33  N   UNL     1      40.502 -12.299  -1.264  1.00  0.00    -0.203 NA
HETATM   34  C   UNL     1      39.509 -13.198  -1.141  1.00  0.00     0.160 A 
HETATM   35  C   UNL     1      39.165 -13.529   0.225  1.00  0.00     0.085 A 
BRANCH  34  36
HETATM   36  C   UNL     1      38.850 -13.747  -2.339  1.00  0.00     0.271 C 
HETATM   37  N   UNL     1      39.430 -13.413  -3.533  1.00  0.00    -0.365 N 
HETATM   38  H   UNL     1      40.216 -12.776  -3.558  1.00  0.00     0.159 HD
HETATM   39  H   UNL     1      38.985 -13.706  -4.390  1.00  0.00     0.159 HD
HETATM   40  O   UNL     1      37.841 -14.446  -2.300  1.00  0.00    -0.266 OA
ENDBRANCH  34  36
BRANCH  35  41
HETATM   41  N   UNL     1      38.194 -14.404   0.591  1.00  0.00    -0.396 N 
HETATM   42  H   UNL     1      38.208 -15.349   0.187  1.00  0.00     0.156 HD
HETATM   43  H   UNL     1      37.237 -14.084   0.746  1.00  0.00     0.156 HD
ENDBRANCH  35  41
ENDBRANCH   2  31
TORSDOF 11
ENDMDL
MODEL 8
REMARK VINA RESULT:      -7.1      2.433      4.797
REMARK  11 active torsions:
REMARK  status: ('A' for Active; 'I' for Inactive)
REMARK    1  A    between atoms: O_2  and  C_3 
REMARK    2  A    between atoms: C_6  and  C_7 
REMARK    3  A    between atoms: C_7  and  N_8 
REMARK    4  A    between atoms: C_7  and  C_29 
REMARK       I    between atoms: N_8  and  C_9 
REMARK    5  A    between atoms: N_8  and  C_20 
REMARK    6  A    between atoms: C_9  and  C_10 
REMARK    7  A    between atoms: C_13  and  C_14 
REMARK       I    between atoms: C_14  and  N_15 
REMARK    8  A    between atoms: C_17  and  N_18 
REMARK    9  A    between atoms: C_20  and  C_21 
REMARK   10  A    between atoms: C_21  and  N_22 
REMARK       I    between atoms: C_29  and  N_30 
REMARK   11  A    between atoms: N_30  and  C_31 
ROOT
HETATM    1  N   UNL     1      41.398 -13.379   2.331  1.00  0.00    -0.328 N 
HETATM    2  C   UNL     1      40.547 -14.398   1.823  1.00  0.00     0.265 C 
HETATM    3  O   UNL     1      40.255 -15.358   2.540  1.00  0.00    -0.267 OA
ENDROOT
BRANCH   1   4
HETATM    4  C   UNL     1      41.956 -13.607   3.689  1.00  0.00     0.213 C 
BRANCH   4   5
HETATM    5  C   UNL     1      41.171 -13.005   4.852  1.00  0.00    -0.026 A 
HETATM    6  C   UNL     1      41.809 -12.161   5.778  1.00  0.00     0.012 A 
HETATM    7  C   UNL     1      41.093 -11.535   6.805  1.00  0.00     0.037 A 
HETATM    8  C   UNL     1      39.719 -11.727   6.920  1.00  0.00     0.068 A 
HETATM    9  C   UNL     1      39.069 -12.545   5.996  1.00  0.00     0.037 A 
HETATM   10  C   UNL     1      39.781 -13.172   4.970  1.00  0.00     0.012 A 
BRANCH   8  11
HETATM   11  O   UNL     1      38.902 -11.174   7.865  1.00  0.00    -0.356 OA
HETATM   12  C   UNL     1      39.497 -10.832   9.111  1.00  0.00     0.210 C 
ENDBRANCH   8  11
ENDBRANCH   4   5
BRANCH   4  13
HETATM   13  C   UNL     1      42.484 -15.049   3.876  1.00  0.00     0.245 C 
HETATM   14  N   UNL     1      43.162 -15.595   2.817  1.00  0.00    -0.354 N 
HETATM   15  H   UNL     1      43.153 -15.077   1.934  1.00  0.00     0.162 HD
HETATM   16  O   UNL     1      42.321 -15.626   4.953  1.00  0.00    -0.271 OA
BRANCH  14  17
HETATM   17  C   UNL     1      43.626 -16.964   2.808  1.00  0.00     0.084 C 
HETATM   18  C   UNL     1      42.487 -17.956   3.029  1.00  0.00     0.025 C 
HETATM   19  C   UNL     1      43.039 -19.243   2.443  1.00  0.00     0.002 C 
HETATM   20  C   UNL     1      43.742 -18.783   1.173  1.00  0.00     0.002 C 
HETATM   21  C   UNL     1      44.246 -17.370   1.466  1.00  0.00     0.025 C 
ENDBRANCH  14  17
ENDBRANCH   4  13
ENDBRANCH   1   4
BRANCH   1  22
HETATM   22  C   UNL     1      42.168 -12.468   1.454  1.00  0.00     0.155 C 
BRANCH  22  23
HETATM   23  C   UNL     1      41.445 -11.143   1.102  1.00  0.00     0.255 C 
BRANCH  23  24
HETATM   24  N   UNL     1      41.634 -10.715  -0.340  1.00  0.00    -0.066 N 
HETATM   25  H   UNL     1      40.708 -10.663  -0.782  1.00  0.00     0.280 HD
HETATM   26  C   UNL     1      42.327  -9.356  -0.489  1.00  0.00     0.261 C 
HETATM   27  C   UNL     1      42.441  -9.003  -1.977  1.00  0.00     0.195 C 
HETATM   28  O   UNL     1      43.168 -10.014  -2.682  1.00  0.00    -0.388 OA
HETATM   29  C   UNL     1      42.522 -11.288  -2.608  1.00  0.00     0.195 C 
HETATM   30  C   UNL     1      42.407 -11.759  -1.153  1.00  0.00     0.261 C 
ENDBRANCH  23  24
ENDBRANCH  22  23
ENDBRANCH   1  22
BRANCH   2  31
HETATM   31  C   UNL     1      40.060 -14.333   0.466  1.00  0.00     0.120 A 
HETATM   32  S   UNL     1      38.502 -13.769   0.083  1.00  0.00     0.020 SA
HETATM   33  N   UNL     1      38.616 -13.981  -1.551  1.00  0.00    -0.203 NA
HETATM   34  C   UNL     1      39.766 -14.619  -1.831  1.00  0.00     0.160 A 
HETATM   35  C   UNL     1      40.621 -14.848  -0.686  1.00  0.00     0.085 A 
BRANCH  34  36
HETATM   36  C   UNL     1      40.063 -15.044  -3.210  1.00  0.00     0.271 C 
HETATM   37  N   UNL     1      39.031 -15.651  -3.873  1.00  0.00    -0.365 N 
HETATM   38  H   UNL     1      38.159 -15.840  -3.395  1.00  0.00     0.159 HD
HETATM   39  H   UNL     1      39.196 -16.022  -4.797  1.00  0.00     0.159 HD
HETATM   40  O   UNL     1      41.156 -14.890  -3.748  1.00  0.00    -0.266 OA
ENDBRANCH  34  36
BRANCH  35  41
HETATM   41  N   UNL     1      41.823 -15.475  -0.728  1.00  0.00    -0.396 N 
HETATM   42  H   UNL     1      42.026 -16.193  -0.020  1.00  0.00     0.156 HD
HETATM   43  H   UNL     1      42.668 -14.964  -0.986  1.00  0.00     0.156 HD
ENDBRANCH  35  41
ENDBRANCH   2  31
TORSDOF 11
ENDMDL
MODEL 9
REMARK VINA RESULT:      -7.1      2.521      5.988
REMARK  11 active torsions:
REMARK  status: ('A' for Active; 'I' for Inactive)
REMARK    1  A    between atoms: O_2  and  C_3 
REMARK    2  A    between atoms: C_6  and  C_7 
REMARK    3  A    between atoms: C_7  and  N_8 
REMARK    4  A    between atoms: C_7  and  C_29 
REMARK       I    between atoms: N_8  and  C_9 
REMARK    5  A    between atoms: N_8  and  C_20 
REMARK    6  A    between atoms: C_9  and  C_10 
REMARK    7  A    between atoms: C_13  and  C_14 
REMARK       I    between atoms: C_14  and  N_15 
REMARK    8  A    between atoms: C_17  and  N_18 
REMARK    9  A    between atoms: C_20  and  C_21 
REMARK   10  A    between atoms: C_21  and  N_22 
REMARK       I    between atoms: C_29  and  N_30 
REMARK   11  A    between atoms: N_30  and  C_31 
ROOT
HETATM    1  N   UNL     1      41.800 -13.818   0.968  1.00  0.00    -0.328 N 
HETATM    2  C   UNL     1      41.502 -13.103  -0.224  1.00  0.00     0.265 C 
HETATM    3  O   UNL     1      41.612 -11.875  -0.239  1.00  0.00    -0.267 OA
ENDROOT
BRANCH   1   4
HETATM    4  C   UNL     1      42.139 -12.995   2.158  1.00  0.00     0.213 C 
BRANCH   4   5
HETATM    5  C   UNL     1      40.979 -12.261   2.825  1.00  0.00    -0.026 A 
HETATM    6  C   UNL     1      39.936 -12.982   3.432  1.00  0.00     0.012 A 
HETATM    7  C   UNL     1      38.904 -12.330   4.118  1.00  0.00     0.037 A 
HETATM    8  C   UNL     1      38.901 -10.942   4.226  1.00  0.00     0.068 A 
HETATM    9  C   UNL     1      39.940 -10.215   3.647  1.00  0.00     0.037 A 
HETATM   10  C   UNL     1      40.971 -10.862   2.960  1.00  0.00     0.012 A 
BRANCH   8  11
HETATM   11  O   UNL     1      37.964 -10.184   4.870  1.00  0.00    -0.356 OA
HETATM   12  C   UNL     1      37.377  -9.121   4.130  1.00  0.00     0.210 C 
ENDBRANCH   8  11
ENDBRANCH   4   5
BRANCH   4  13
HETATM   13  C   UNL     1      43.150 -13.698   3.094  1.00  0.00     0.245 C 
HETATM   14  N   UNL     1      42.959 -13.525   4.441  1.00  0.00    -0.354 N 
HETATM   15  H   UNL     1      42.258 -12.840   4.733  1.00  0.00     0.162 HD
HETATM   16  O   UNL     1      44.040 -14.403   2.616  1.00  0.00    -0.271 OA
BRANCH  14  17
HETATM   17  C   UNL     1      43.877 -14.038   5.433  1.00  0.00     0.084 C 
HETATM   18  C   UNL     1      43.777 -13.276   6.753  1.00  0.00     0.025 C 
HETATM   19  C   UNL     1      44.346 -14.263   7.757  1.00  0.00     0.002 C 
HETATM   20  C   UNL     1      43.760 -15.597   7.317  1.00  0.00     0.002 C 
HETATM   21  C   UNL     1      43.598 -15.499   5.799  1.00  0.00     0.025 C 
ENDBRANCH  14  17
ENDBRANCH   4  13
ENDBRANCH   1   4
BRANCH   1  22
HETATM   22  C   UNL     1      41.274 -15.175   1.241  1.00  0.00     0.155 C 
BRANCH  22  23
HETATM   23  C   UNL     1      42.031 -16.319   0.523  1.00  0.00     0.255 C 
BRANCH  23  24
HETATM   24  N   UNL     1      42.444 -17.447   1.448  1.00  0.00    -0.066 N 
HETATM   25  H   UNL     1      41.935 -18.295   1.168  1.00  0.00     0.280 HD
HETATM   26  C   UNL     1      43.947 -17.744   1.418  1.00  0.00     0.261 C 
HETATM   27  C   UNL     1      44.254 -18.914   2.361  1.00  0.00     0.195 C 
HETATM   28  O   UNL     1      43.832 -18.614   3.695  1.00  0.00    -0.388 OA
HETATM   29  C   UNL     1      42.422 -18.381   3.770  1.00  0.00     0.195 C 
HETATM   30  C   UNL     1      42.018 -17.186   2.897  1.00  0.00     0.261 C 
ENDBRANCH  23  24
ENDBRANCH  22  23
ENDBRANCH   1  22
BRANCH   2  31
HETATM   31  C   UNL     1      41.036 -13.803  -1.397  1.00  0.00     0.120 A 
HETATM   32  S   UNL     1      41.952 -13.896  -2.828  1.00  0.00     0.020 SA
HETATM   33  N   UNL     1      40.860 -14.775  -3.700  1.00  0.00    -0.203 NA
HETATM   34  C   UNL     1      39.723 -14.889  -2.991  1.00  0.00     0.160 A 
HETATM   35  C   UNL     1      39.786 -14.329  -1.658  1.00  0.00     0.085 A 
BRANCH  34  36
HETATM   36  C   UNL     1      38.535 -15.525  -3.588  1.00  0.00     0.271 C 
HETATM   37  N   UNL     1      38.721 -16.800  -4.049  1.00  0.00    -0.365 N 
HETATM   38  H   UNL     1      39.641 -17.222  -4.026  1.00  0.00     0.159 HD
HETATM   39  H   UNL     1      37.961 -17.262  -4.526  1.00  0.00     0.159 HD
HETATM   40  O   UNL     1      37.446 -14.967  -3.693  1.00  0.00    -0.266 OA
ENDBRANCH  34  36
BRANCH  35  41
HETATM   41  N   UNL     1      38.762 -14.323  -0.768  1.00  0.00    -0.396 N 
HETATM   42  H   UNL     1      38.427 -13.419  -0.411  1.00  0.00     0.156 HD
HETATM   43  H   UNL     1      38.689 -15.050  -0.055  1.00  0.00     0.156 HD
ENDBRANCH  35  41
ENDBRANCH   2  31
TORSDOF 11
ENDMDL
MODEL 10
REMARK VINA RESULT:      -7.0      2.151      6.653
REMARK  11 active torsions:
REMARK  status: ('A' for Active; 'I' for Inactive)
REMARK    1  A    between atoms: O_2  and  C_3 
REMARK    2  A    between atoms: C_6  and  C_7 
REMARK    3  A    between atoms: C_7  and  N_8 
REMARK    4  A    between atoms: C_7  and  C_29 
REMARK       I    between atoms: N_8  and  C_9 
REMARK    5  A    between atoms: N_8  and  C_20 
REMARK    6  A    between atoms: C_9  and  C_10 
REMARK    7  A    between atoms: C_13  and  C_14 
REMARK       I    between atoms: C_14  and  N_15 
REMARK    8  A    between atoms: C_17  and  N_18 
REMARK    9  A    between atoms: C_20  and  C_21 
REMARK   10  A    between atoms: C_21  and  N_22 
REMARK       I    between atoms: C_29  and  N_30 
REMARK   11  A    between atoms: N_30  and  C_31 
ROOT
HETATM    1  N   UNL     1      41.453 -13.955   3.686  1.00  0.00    -0.328 N 
HETATM    2  C   UNL     1      40.469 -13.334   2.870  1.00  0.00     0.265 C 
HETATM    3  O   UNL     1      39.518 -12.755   3.400  1.00  0.00    -0.267 OA
ENDROOT
BRANCH   1   4
HETATM    4  C   UNL     1      41.197 -13.935   5.150  1.00  0.00     0.213 C 
BRANCH   4   5
HETATM    5  C   UNL     1      41.846 -15.051   5.965  1.00  0.00    -0.026 A 
HETATM    6  C   UNL     1      41.157 -16.254   6.199  1.00  0.00     0.012 A 
HETATM    7  C   UNL     1      41.764 -17.320   6.875  1.00  0.00     0.037 A 
HETATM    8  C   UNL     1      43.079 -17.213   7.318  1.00  0.00     0.068 A 
HETATM    9  C   UNL     1      43.782 -16.033   7.074  1.00  0.00     0.037 A 
HETATM   10  C   UNL     1      43.180 -14.967   6.401  1.00  0.00     0.012 A 
BRANCH   8  11
HETATM   11  O   UNL     1      43.789 -18.173   7.980  1.00  0.00    -0.356 OA
HETATM   12  C   UNL     1      43.747 -19.490   7.443  1.00  0.00     0.210 C 
ENDBRANCH   8  11
ENDBRANCH   4   5
BRANCH   4  13
HETATM   13  C   UNL     1      41.265 -12.509   5.743  1.00  0.00     0.245 C 
HETATM   14  N   UNL     1      40.459 -12.256   6.824  1.00  0.00    -0.354 N 
HETATM   15  H   UNL     1      39.772 -12.970   7.077  1.00  0.00     0.162 HD
HETATM   16  O   UNL     1      42.048 -11.685   5.268  1.00  0.00    -0.271 OA
BRANCH  14  17
HETATM   17  C   UNL     1      40.342 -10.945   7.422  1.00  0.00     0.084 C 
HETATM   18  C   UNL     1      39.400 -10.039   6.632  1.00  0.00     0.025 C 
HETATM   19  C   UNL     1      38.987  -9.001   7.661  1.00  0.00     0.002 C 
HETATM   20  C   UNL     1      38.772  -9.820   8.926  1.00  0.00     0.002 C 
HETATM   21  C   UNL     1      39.753 -10.990   8.836  1.00  0.00     0.025 C 
ENDBRANCH  14  17
ENDBRANCH   4  13
ENDBRANCH   1   4
BRANCH   1  22
HETATM   22  C   UNL     1      42.338 -15.035   3.193  1.00  0.00     0.155 C 
BRANCH  22  23
HETATM   23  C   UNL     1      41.596 -16.266   2.617  1.00  0.00     0.255 C 
BRANCH  23  24
HETATM   24  N   UNL     1      42.282 -17.584   2.922  1.00  0.00    -0.066 N 
HETATM   25  H   UNL     1      41.711 -18.091   3.609  1.00  0.00     0.280 HD
HETATM   26  C   UNL     1      42.473 -18.474   1.688  1.00  0.00     0.261 C 
HETATM   27  C   UNL     1      43.144 -19.787   2.108  1.00  0.00     0.195 C 
HETATM   28  O   UNL     1      44.403 -19.534   2.739  1.00  0.00    -0.388 OA
HETATM   29  C   UNL     1      44.257 -18.747   3.926  1.00  0.00     0.195 C 
HETATM   30  C   UNL     1      43.639 -17.380   3.603  1.00  0.00     0.261 C 
ENDBRANCH  23  24
ENDBRANCH  22  23
ENDBRANCH   1  22
BRANCH   2  31
HETATM   31  C   UNL     1      40.558 -13.412   1.432  1.00  0.00     0.120 A 
HETATM   32  S   UNL     1      39.595 -14.471   0.513  1.00  0.00     0.020 SA
HETATM   33  N   UNL     1      40.210 -14.061  -0.963  1.00  0.00    -0.203 NA
HETATM   34  C   UNL     1      41.255 -13.232  -0.788  1.00  0.00     0.160 A 
HETATM   35  C   UNL     1      41.491 -12.844   0.586  1.00  0.00     0.085 A 
BRANCH  34  36
HETATM   36  C   UNL     1      42.068 -12.807  -1.941  1.00  0.00     0.271 C 
HETATM   37  N   UNL     1      42.468 -13.812  -2.780  1.00  0.00    -0.365 N 
HETATM   38  H   UNL     1      42.259 -14.776  -2.556  1.00  0.00     0.159 HD
HETATM   39  H   UNL     1      43.081 -13.589  -3.550  1.00  0.00     0.159 HD
HETATM   40  O   UNL     1      42.391 -11.641  -2.152  1.00  0.00    -0.266 OA
ENDBRANCH  34  36
BRANCH  35  41
HETATM   41  N   UNL     1      42.488 -12.023   1.001  1.00  0.00    -0.396 N 
HETATM   42  H   UNL     1      42.242 -11.081   1.331  1.00  0.00     0.156 HD
HETATM   43  H   UNL     1      43.393 -12.021   0.527  1.00  0.00     0.156 HD
ENDBRANCH  35  41
ENDBRANCH   2  31
TORSDOF 11
ENDMDL
