MODEL 1
REMARK VINA RESULT:      -7.7      0.000      0.000
REMARK  9 active torsions:
REMARK  status: ('A' for Active; 'I' for Inactive)
REMARK    1  A    between atoms: C_4  and  S_5 
REMARK    2  A    between atoms: S_5  and  C_6 
REMARK    3  A    between atoms: C_6  and  C_7 
REMARK       I    between atoms: C_7  and  N_8 
REMARK    4  A    between atoms: C_13  and  C_14 
REMARK    5  A    between atoms: C_14  and  C_15 
REMARK    6  A    between atoms: C_15  and  C_16 
REMARK       I    between atoms: C_16  and  N_17 
REMARK    7  A    between atoms: N_17  and  C_18 
REMARK    8  A    between atoms: C_19  and  O_20 
REMARK    9  A    between atoms: C_24  and  C_25 
ROOT
HETATM    1  C   UNL     1      44.647 -17.349   7.003  1.00  0.00     0.108 C 
ENDROOT
BRANCH   1   2
HETATM    2  C   UNL     1      43.604 -16.367   7.557  1.00  0.00     0.052 C 
BRANCH   2   3
HETATM    3  C   UNL     1      43.009 -15.345   6.614  1.00  0.00    -0.009 A 
HETATM    4  C   UNL     1      43.655 -14.135   6.343  1.00  0.00     0.042 A 
HETATM    5  C   UNL     1      44.974 -13.760   6.958  1.00  0.00     0.071 C 
HETATM    6  N   UNL     1      43.134 -13.189   5.531  1.00  0.00    -0.228 NA
HETATM    7  C   UNL     1      41.955 -13.452   4.961  1.00  0.00     0.189 A 
HETATM    8  N   UNL     1      41.243 -14.564   5.169  1.00  0.00    -0.228 NA
HETATM    9  C   UNL     1      41.768 -15.495   5.997  1.00  0.00     0.042 A 
HETATM   10  C   UNL     1      40.905 -16.709   6.182  1.00  0.00     0.071 C 
BRANCH   7  11
HETATM   11  S   UNL     1      41.238 -12.221   3.904  1.00  0.00    -0.081 SA
BRANCH  11  12
HETATM   12  C   UNL     1      41.760 -12.891   2.293  1.00  0.00     0.185 C 
BRANCH  12  13
HETATM   13  C   UNL     1      40.644 -13.714   1.683  1.00  0.00     0.225 C 
HETATM   14  N   UNL     1      39.500 -13.816   2.426  1.00  0.00    -0.370 N 
HETATM   15  H   UNL     1      39.541 -13.677   3.428  1.00  0.00     0.159 HD
HETATM   16  H   UNL     1      38.785 -14.433   2.065  1.00  0.00     0.159 HD
HETATM   17  O   UNL     1      40.701 -14.208   0.561  1.00  0.00    -0.273 OA
ENDBRANCH  12  13
ENDBRANCH  11  12
ENDBRANCH   7  11
ENDBRANCH   2   3
ENDBRANCH   1   2
BRANCH   1  18
HETATM   18  C   UNL     1      44.347 -18.808   7.286  1.00  0.00     0.222 C 
HETATM   19  N   UNL     1      44.352 -19.705   6.257  1.00  0.00    -0.325 N 
HETATM   20  H   UNL     1      44.477 -20.665   6.570  1.00  0.00     0.169 HD
HETATM   21  O   UNL     1      44.163 -19.223   8.431  1.00  0.00    -0.273 OA
BRANCH  19  22
HETATM   22  C   UNL     1      44.231 -19.567   4.859  1.00  0.00     0.069 A 
HETATM   23  C   UNL     1      44.628 -20.663   4.071  1.00  0.00     0.095 A 
HETATM   24  C   UNL     1      44.477 -20.603   2.686  1.00  0.00     0.039 A 
HETATM   25  C   UNL     1      43.911 -19.473   2.088  1.00  0.00     0.011 A 
HETATM   26  C   UNL     1      43.471 -18.377   2.851  1.00  0.00    -0.048 A 
HETATM   27  C   UNL     1      43.648 -18.450   4.246  1.00  0.00     0.040 A 
BRANCH  23  28
HETATM   28  O   UNL     1      45.146 -21.735   4.758  1.00  0.00    -0.354 OA
HETATM   29  C   UNL     1      44.721 -23.029   4.349  1.00  0.00     0.210 C 
ENDBRANCH  23  28
BRANCH  26  30
HETATM   30  C   UNL     1      42.783 -17.183   2.162  1.00  0.00    -0.024 C 
HETATM   31  C   UNL     1      43.460 -15.870   2.614  1.00  0.00     0.019 C 
HETATM   32  C   UNL     1      42.852 -17.223   0.618  1.00  0.00     0.019 C 
HETATM   33  C   UNL     1      41.290 -17.143   2.548  1.00  0.00     0.019 C 
ENDBRANCH  26  30
ENDBRANCH  19  22
ENDBRANCH   1  18
TORSDOF 9
ENDMDL
MODEL 2
REMARK VINA RESULT:      -7.6      3.190      5.695
REMARK  9 active torsions:
REMARK  status: ('A' for Active; 'I' for Inactive)
REMARK    1  A    between atoms: C_4  and  S_5 
REMARK    2  A    between atoms: S_5  and  C_6 
REMARK    3  A    between atoms: C_6  and  C_7 
REMARK       I    between atoms: C_7  and  N_8 
REMARK    4  A    between atoms: C_13  and  C_14 
REMARK    5  A    between atoms: C_14  and  C_15 
REMARK    6  A    between atoms: C_15  and  C_16 
REMARK       I    between atoms: C_16  and  N_17 
REMARK    7  A    between atoms: N_17  and  C_18 
REMARK    8  A    between atoms: C_19  and  O_20 
REMARK    9  A    between atoms: C_24  and  C_25 
ROOT
HETATM    1  C   UNL     1      39.843 -14.778   3.839  1.00  0.00     0.108 C 
ENDROOT
BRANCH   1   2
HETATM    2  C   UNL     1      39.634 -13.556   2.932  1.00  0.00     0.052 C 
BRANCH   2   3
HETATM    3  C   UNL     1      39.943 -13.698   1.458  1.00  0.00    -0.009 A 
HETATM    4  C   UNL     1      38.936 -13.933   0.517  1.00  0.00     0.042 A 
HETATM    5  C   UNL     1      37.486 -14.063   0.891  1.00  0.00     0.071 C 
HETATM    6  N   UNL     1      39.185 -14.097  -0.801  1.00  0.00    -0.228 NA
HETATM    7  C   UNL     1      40.456 -14.007  -1.202  1.00  0.00     0.189 A 
HETATM    8  N   UNL     1      41.496 -13.808  -0.385  1.00  0.00    -0.228 NA
HETATM    9  C   UNL     1      41.236 -13.664   0.934  1.00  0.00     0.042 A 
HETATM   10  C   UNL     1      42.455 -13.451   1.782  1.00  0.00     0.071 C 
BRANCH   7  11
HETATM   11  S   UNL     1      40.815 -14.234  -2.923  1.00  0.00    -0.081 SA
BRANCH  11  12
HETATM   12  C   UNL     1      40.286 -15.968  -3.098  1.00  0.00     0.185 C 
BRANCH  12  13
HETATM   13  C   UNL     1      38.972 -16.040  -3.848  1.00  0.00     0.225 C 
HETATM   14  N   UNL     1      37.868 -15.614  -3.164  1.00  0.00    -0.370 N 
HETATM   15  H   UNL     1      37.876 -15.613  -2.151  1.00  0.00     0.159 HD
HETATM   16  H   UNL     1      36.977 -15.739  -3.626  1.00  0.00     0.159 HD
HETATM   17  O   UNL     1      38.880 -16.383  -5.023  1.00  0.00    -0.273 OA
ENDBRANCH  12  13
ENDBRANCH  11  12
ENDBRANCH   7  11
ENDBRANCH   2   3
ENDBRANCH   1   2
BRANCH   1  18
HETATM   18  C   UNL     1      40.458 -14.459   5.189  1.00  0.00     0.222 C 
HETATM   19  N   UNL     1      41.609 -15.086   5.566  1.00  0.00    -0.325 N 
HETATM   20  H   UNL     1      42.112 -14.585   6.294  1.00  0.00     0.169 HD
HETATM   21  O   UNL     1      39.983 -13.598   5.931  1.00  0.00    -0.273 OA
BRANCH  19  22
HETATM   22  C   UNL     1      42.242 -16.273   5.143  1.00  0.00     0.069 A 
HETATM   23  C   UNL     1      42.653 -17.172   6.145  1.00  0.00     0.095 A 
HETATM   24  C   UNL     1      43.232 -18.387   5.781  1.00  0.00     0.039 A 
HETATM   25  C   UNL     1      43.378 -18.721   4.432  1.00  0.00     0.011 A 
HETATM   26  C   UNL     1      42.944 -17.862   3.408  1.00  0.00    -0.048 A 
HETATM   27  C   UNL     1      42.377 -16.632   3.795  1.00  0.00     0.040 A 
BRANCH  23  28
HETATM   28  O   UNL     1      42.439 -16.760   7.439  1.00  0.00    -0.354 OA
HETATM   29  C   UNL     1      43.378 -17.193   8.417  1.00  0.00     0.210 C 
ENDBRANCH  23  28
BRANCH  26  30
HETATM   30  C   UNL     1      43.052 -18.299   1.934  1.00  0.00    -0.024 C 
HETATM   31  C   UNL     1      41.703 -18.053   1.225  1.00  0.00     0.019 C 
HETATM   32  C   UNL     1      44.134 -17.540   1.132  1.00  0.00     0.019 C 
HETATM   33  C   UNL     1      43.400 -19.800   1.857  1.00  0.00     0.019 C 
ENDBRANCH  26  30
ENDBRANCH  19  22
ENDBRANCH   1  18
TORSDOF 9
ENDMDL
MODEL 3
REMARK VINA RESULT:      -7.5      2.667      4.643
REMARK  9 active torsions:
REMARK  status: ('A' for Active; 'I' for Inactive)
REMARK    1  A    between atoms: C_4  and  S_5 
REMARK    2  A    between atoms: S_5  and  C_6 
REMARK    3  A    between atoms: C_6  and  C_7 
REMARK       I    between atoms: C_7  and  N_8 
REMARK    4  A    between atoms: C_13  and  C_14 
REMARK    5  A    between atoms: C_14  and  C_15 
REMARK    6  A    between atoms: C_15  and  C_16 
REMARK       I    between atoms: C_16  and  N_17 
REMARK    7  A    between atoms: N_17  and  C_18 
REMARK    8  A    between atoms: C_19  and  O_20 
REMARK    9  A    between atoms: C_24  and  C_25 
ROOT
HETATM    1  C   UNL     1      41.801 -13.733   5.738  1.00  0.00     0.108 C 
ENDROOT
BRANCH   1   2
HETATM    2  C   UNL     1      41.746 -12.631   4.670  1.00  0.00     0.052 C 
BRANCH   2   3
HETATM    3  C   UNL     1      41.224 -12.990   3.296  1.00  0.00    -0.009 A 
HETATM    4  C   UNL     1      41.979 -13.756   2.402  1.00  0.00     0.042 A 
HETATM    5  C   UNL     1      43.349 -14.277   2.731  1.00  0.00     0.071 C 
HETATM    6  N   UNL     1      41.554 -14.065   1.157  1.00  0.00    -0.228 NA
HETATM    7  C   UNL     1      40.347 -13.621   0.793  1.00  0.00     0.189 A 
HETATM    8  N   UNL     1      39.555 -12.864   1.559  1.00  0.00    -0.228 NA
HETATM    9  C   UNL     1      40.000 -12.547   2.797  1.00  0.00     0.042 A 
HETATM   10  C   UNL     1      39.056 -11.691   3.588  1.00  0.00     0.071 C 
BRANCH   7  11
HETATM   11  S   UNL     1      39.769 -13.996  -0.841  1.00  0.00    -0.081 SA
BRANCH  11  12
HETATM   12  C   UNL     1      40.997 -15.263  -1.292  1.00  0.00     0.185 C 
BRANCH  12  13
HETATM   13  C   UNL     1      40.877 -15.606  -2.763  1.00  0.00     0.225 C 
HETATM   14  N   UNL     1      39.872 -16.472  -3.096  1.00  0.00    -0.370 N 
HETATM   15  H   UNL     1      39.501 -17.101  -2.394  1.00  0.00     0.159 HD
HETATM   16  H   UNL     1      39.840 -16.772  -4.061  1.00  0.00     0.159 HD
HETATM   17  O   UNL     1      41.573 -15.098  -3.637  1.00  0.00    -0.273 OA
ENDBRANCH  12  13
ENDBRANCH  11  12
ENDBRANCH   7  11
ENDBRANCH   2   3
ENDBRANCH   1   2
BRANCH   1  18
HETATM   18  C   UNL     1      40.544 -14.576   5.834  1.00  0.00     0.222 C 
HETATM   19  N   UNL     1      40.640 -15.934   5.751  1.00  0.00    -0.325 N 
HETATM   20  H   UNL     1      39.836 -16.413   6.151  1.00  0.00     0.169 HD
HETATM   21  O   UNL     1      39.441 -14.073   6.051  1.00  0.00    -0.273 OA
BRANCH  19  22
HETATM   22  C   UNL     1      41.627 -16.800   5.237  1.00  0.00     0.069 A 
HETATM   23  C   UNL     1      42.445 -17.463   6.170  1.00  0.00     0.095 A 
HETATM   24  C   UNL     1      43.400 -18.375   5.721  1.00  0.00     0.039 A 
HETATM   25  C   UNL     1      43.525 -18.647   4.355  1.00  0.00     0.011 A 
HETATM   26  C   UNL     1      42.698 -18.029   3.401  1.00  0.00    -0.048 A 
HETATM   27  C   UNL     1      41.752 -17.099   3.874  1.00  0.00     0.040 A 
BRANCH  23  28
HETATM   28  O   UNL     1      42.225 -17.146   7.489  1.00  0.00    -0.354 OA
HETATM   29  C   UNL     1      43.341 -17.223   8.368  1.00  0.00     0.210 C 
ENDBRANCH  23  28
BRANCH  26  30
HETATM   30  C   UNL     1      42.814 -18.413   1.914  1.00  0.00    -0.024 C 
HETATM   31  C   UNL     1      41.495 -18.066   1.189  1.00  0.00     0.019 C 
HETATM   32  C   UNL     1      43.951 -17.681   1.163  1.00  0.00     0.019 C 
HETATM   33  C   UNL     1      43.083 -19.926   1.781  1.00  0.00     0.019 C 
ENDBRANCH  26  30
ENDBRANCH  19  22
ENDBRANCH   1  18
TORSDOF 9
ENDMDL
MODEL 4
REMARK VINA RESULT:      -7.4      2.666      4.667
REMARK  9 active torsions:
REMARK  status: ('A' for Active; 'I' for Inactive)
REMARK    1  A    between atoms: C_4  and  S_5 
REMARK    2  A    between atoms: S_5  and  C_6 
REMARK    3  A    between atoms: C_6  and  C_7 
REMARK       I    between atoms: C_7  and  N_8 
REMARK    4  A    between atoms: C_13  and  C_14 
REMARK    5  A    between atoms: C_14  and  C_15 
REMARK    6  A    between atoms: C_15  and  C_16 
REMARK       I    between atoms: C_16  and  N_17 
REMARK    7  A    between atoms: N_17  and  C_18 
REMARK    8  A    between atoms: C_19  and  O_20 
REMARK    9  A    between atoms: C_24  and  C_25 
ROOT
HETATM    1  C   UNL     1      41.730 -13.699   5.849  1.00  0.00     0.108 C 
ENDROOT
BRANCH   1   2
HETATM    2  C   UNL     1      41.718 -12.615   4.761  1.00  0.00     0.052 C 
BRANCH   2   3
HETATM    3  C   UNL     1      41.496 -13.040   3.327  1.00  0.00    -0.009 A 
HETATM    4  C   UNL     1      40.312 -12.736   2.646  1.00  0.00     0.042 A 
HETATM    5  C   UNL     1      39.183 -11.972   3.278  1.00  0.00     0.071 C 
HETATM    6  N   UNL     1      40.071 -13.131   1.377  1.00  0.00    -0.228 NA
HETATM    7  C   UNL     1      41.029 -13.828   0.759  1.00  0.00     0.189 A 
HETATM    8  N   UNL     1      42.186 -14.192   1.322  1.00  0.00    -0.228 NA
HETATM    9  C   UNL     1      42.407 -13.806   2.599  1.00  0.00     0.042 A 
HETATM   10  C   UNL     1      43.724 -14.259   3.159  1.00  0.00     0.071 C 
BRANCH   7  11
HETATM   11  S   UNL     1      40.734 -14.375  -0.902  1.00  0.00    -0.081 SA
BRANCH  11  12
HETATM   12  C   UNL     1      41.078 -12.816  -1.779  1.00  0.00     0.185 C 
BRANCH  12  13
HETATM   13  C   UNL     1      42.572 -12.625  -1.940  1.00  0.00     0.225 C 
HETATM   14  N   UNL     1      43.168 -13.364  -2.925  1.00  0.00    -0.370 N 
HETATM   15  H   UNL     1      42.726 -14.217  -3.246  1.00  0.00     0.159 HD
HETATM   16  H   UNL     1      44.175 -13.306  -2.981  1.00  0.00     0.159 HD
HETATM   17  O   UNL     1      43.225 -11.810  -1.295  1.00  0.00    -0.273 OA
ENDBRANCH  12  13
ENDBRANCH  11  12
ENDBRANCH   7  11
ENDBRANCH   2   3
ENDBRANCH   1   2
BRANCH   1  18
HETATM   18  C   UNL     1      40.490 -14.573   5.875  1.00  0.00     0.222 C 
HETATM   19  N   UNL     1      40.621 -15.925   5.757  1.00  0.00    -0.325 N 
HETATM   20  H   UNL     1      39.816 -16.433   6.114  1.00  0.00     0.169 HD
HETATM   21  O   UNL     1      39.368 -14.101   6.066  1.00  0.00    -0.273 OA
BRANCH  19  22
HETATM   22  C   UNL     1      41.646 -16.753   5.255  1.00  0.00     0.069 A 
HETATM   23  C   UNL     1      42.492 -17.369   6.197  1.00  0.00     0.095 A 
HETATM   24  C   UNL     1      43.486 -18.242   5.759  1.00  0.00     0.039 A 
HETATM   25  C   UNL     1      43.625 -18.525   4.398  1.00  0.00     0.011 A 
HETATM   26  C   UNL     1      42.772 -17.957   3.435  1.00  0.00    -0.048 A 
HETATM   27  C   UNL     1      41.786 -17.063   3.896  1.00  0.00     0.040 A 
BRANCH  23  28
HETATM   28  O   UNL     1      42.255 -17.045   7.512  1.00  0.00    -0.354 OA
HETATM   29  C   UNL     1      43.341 -17.192   8.419  1.00  0.00     0.210 C 
ENDBRANCH  23  28
BRANCH  26  30
HETATM   30  C   UNL     1      42.908 -18.353   1.953  1.00  0.00    -0.024 C 
HETATM   31  C   UNL     1      44.079 -17.572   1.318  1.00  0.00     0.019 C 
HETATM   32  C   UNL     1      43.187 -19.856   1.727  1.00  0.00     0.019 C 
HETATM   33  C   UNL     1      41.605 -18.015   1.198  1.00  0.00     0.019 C 
ENDBRANCH  26  30
ENDBRANCH  19  22
ENDBRANCH   1  18
TORSDOF 9
ENDMDL
MODEL 5
REMARK VINA RESULT:      -7.4      2.882      4.775
REMARK  9 active torsions:
REMARK  status: ('A' for Active; 'I' for Inactive)
REMARK    1  A    between atoms: C_4  and  S_5 
REMARK    2  A    between atoms: S_5  and  C_6 
REMARK    3  A    between atoms: C_6  and  C_7 
REMARK       I    between atoms: C_7  and  N_8 
REMARK    4  A    between atoms: C_13  and  C_14 
REMARK    5  A    between atoms: C_14  and  C_15 
REMARK    6  A    between atoms: C_15  and  C_16 
REMARK       I    between atoms: C_16  and  N_17 
REMARK    7  A    between atoms: N_17  and  C_18 
REMARK    8  A    between atoms: C_19  and  O_20 
REMARK    9  A    between atoms: C_24  and  C_25 
ROOT
HETATM    1  C   UNL     1      41.905 -14.562   5.882  1.00  0.00     0.108 C 
ENDROOT
BRANCH   1   2
HETATM    2  C   UNL     1      42.274 -13.132   5.464  1.00  0.00     0.052 C 
BRANCH   2   3
HETATM    3  C   UNL     1      42.002 -12.710   4.037  1.00  0.00    -0.009 A 
HETATM    4  C   UNL     1      42.684 -13.285   2.959  1.00  0.00     0.042 A 
HETATM    5  C   UNL     1      43.726 -14.354   3.132  1.00  0.00     0.071 C 
HETATM    6  N   UNL     1      42.487 -12.906   1.678  1.00  0.00    -0.228 NA
HETATM    7  C   UNL     1      41.583 -11.949   1.453  1.00  0.00     0.189 A 
HETATM    8  N   UNL     1      40.894 -11.317   2.409  1.00  0.00    -0.228 NA
HETATM    9  C   UNL     1      41.113 -11.694   3.689  1.00  0.00     0.042 A 
HETATM   10  C   UNL     1      40.305 -10.933   4.700  1.00  0.00     0.071 C 
BRANCH   7  11
HETATM   11  S   UNL     1      41.315 -11.419  -0.218  1.00  0.00    -0.081 SA
BRANCH  11  12
HETATM   12  C   UNL     1      42.516 -12.501  -1.056  1.00  0.00     0.185 C 
BRANCH  12  13
HETATM   13  C   UNL     1      41.805 -13.411  -2.036  1.00  0.00     0.225 C 
HETATM   14  N   UNL     1      42.537 -13.813  -3.119  1.00  0.00    -0.370 N 
HETATM   15  H   UNL     1      43.328 -13.258  -3.421  1.00  0.00     0.159 HD
HETATM   16  H   UNL     1      42.044 -14.350  -3.820  1.00  0.00     0.159 HD
HETATM   17  O   UNL     1      40.670 -13.842  -1.860  1.00  0.00    -0.273 OA
ENDBRANCH  12  13
ENDBRANCH  11  12
ENDBRANCH   7  11
ENDBRANCH   2   3
ENDBRANCH   1   2
BRANCH   1  18
HETATM   18  C   UNL     1      40.575 -15.051   5.339  1.00  0.00     0.222 C 
HETATM   19  N   UNL     1      40.492 -16.299   4.794  1.00  0.00    -0.325 N 
HETATM   20  H   UNL     1      39.540 -16.658   4.772  1.00  0.00     0.169 HD
HETATM   21  O   UNL     1      39.549 -14.377   5.434  1.00  0.00    -0.273 OA
BRANCH  19  22
HETATM   22  C   UNL     1      41.454 -17.188   4.272  1.00  0.00     0.069 A 
HETATM   23  C   UNL     1      41.569 -17.257   2.872  1.00  0.00     0.095 A 
HETATM   24  C   UNL     1      42.542 -18.076   2.302  1.00  0.00     0.039 A 
HETATM   25  C   UNL     1      43.415 -18.803   3.118  1.00  0.00     0.011 A 
HETATM   26  C   UNL     1      43.351 -18.727   4.520  1.00  0.00    -0.048 A 
HETATM   27  C   UNL     1      42.349 -17.907   5.075  1.00  0.00     0.040 A 
BRANCH  23  28
HETATM   28  O   UNL     1      40.681 -16.483   2.162  1.00  0.00    -0.354 OA
HETATM   29  C   UNL     1      41.049 -16.135   0.832  1.00  0.00     0.210 C 
ENDBRANCH  23  28
BRANCH  26  30
HETATM   30  C   UNL     1      44.379 -19.483   5.382  1.00  0.00    -0.024 C 
HETATM   31  C   UNL     1      45.331 -18.468   6.054  1.00  0.00     0.019 C 
HETATM   32  C   UNL     1      43.750 -20.332   6.511  1.00  0.00     0.019 C 
HETATM   33  C   UNL     1      45.203 -20.442   4.498  1.00  0.00     0.019 C 
ENDBRANCH  26  30
ENDBRANCH  19  22
ENDBRANCH   1  18
TORSDOF 9
ENDMDL
MODEL 6
REMARK VINA RESULT:      -7.3      3.228      5.474
REMARK  9 active torsions:
REMARK  status: ('A' for Active; 'I' for Inactive)
REMARK    1  A    between atoms: C_4  and  S_5 
REMARK    2  A    between atoms: S_5  and  C_6 
REMARK    3  A    between atoms: C_6  and  C_7 
REMARK       I    between atoms: C_7  and  N_8 
REMARK    4  A    between atoms: C_13  and  C_14 
REMARK    5  A    between atoms: C_14  and  C_15 
REMARK    6  A    between atoms: C_15  and  C_16 
REMARK       I    between atoms: C_16  and  N_17 
REMARK    7  A    between atoms: N_17  and  C_18 
REMARK    8  A    between atoms: C_19  and  O_20 
REMARK    9  A    between atoms: C_24  and  C_25 
ROOT
HETATM    1  C   UNL     1      41.514 -13.428   3.874  1.00  0.00     0.108 C 
ENDROOT
BRANCH   1   2
HETATM    2  C   UNL     1      40.591 -12.914   2.759  1.00  0.00     0.052 C 
BRANCH   2   3
HETATM    3  C   UNL     1      40.726 -13.521   1.380  1.00  0.00    -0.009 A 
HETATM    4  C   UNL     1      41.486 -12.907   0.379  1.00  0.00     0.042 A 
HETATM    5  C   UNL     1      42.219 -11.612   0.593  1.00  0.00     0.071 C 
HETATM    6  N   UNL     1      41.598 -13.407  -0.871  1.00  0.00    -0.228 NA
HETATM    7  C   UNL     1      40.959 -14.551  -1.134  1.00  0.00     0.189 A 
HETATM    8  N   UNL     1      40.189 -15.207  -0.260  1.00  0.00    -0.228 NA
HETATM    9  C   UNL     1      40.070 -14.686   0.983  1.00  0.00     0.042 A 
HETATM   10  C   UNL     1      39.185 -15.479   1.899  1.00  0.00     0.071 C 
BRANCH   7  11
HETATM   11  S   UNL     1      41.075 -15.223  -2.771  1.00  0.00    -0.081 SA
BRANCH  11  12
HETATM   12  C   UNL     1      39.561 -14.502  -3.481  1.00  0.00     0.185 C 
BRANCH  12  13
HETATM   13  C   UNL     1      38.605 -15.600  -3.899  1.00  0.00     0.225 C 
HETATM   14  N   UNL     1      39.049 -16.881  -3.717  1.00  0.00    -0.370 N 
HETATM   15  H   UNL     1      40.044 -17.063  -3.668  1.00  0.00     0.159 HD
HETATM   16  H   UNL     1      38.453 -17.617  -4.072  1.00  0.00     0.159 HD
HETATM   17  O   UNL     1      37.467 -15.390  -4.307  1.00  0.00    -0.273 OA
ENDBRANCH  12  13
ENDBRANCH  11  12
ENDBRANCH   7  11
ENDBRANCH   2   3
ENDBRANCH   1   2
BRANCH   1  18
HETATM   18  C   UNL     1      40.792 -14.109   5.021  1.00  0.00     0.222 C 
HETATM   19  N   UNL     1      41.309 -15.253   5.554  1.00  0.00    -0.325 N 
HETATM   20  H   UNL     1      40.969 -15.440   6.494  1.00  0.00     0.169 HD
HETATM   21  O   UNL     1      39.782 -13.622   5.532  1.00  0.00    -0.273 OA
BRANCH  19  22
HETATM   22  C   UNL     1      42.223 -16.212   5.071  1.00  0.00     0.069 A 
HETATM   23  C   UNL     1      43.157 -16.726   5.991  1.00  0.00     0.095 A 
HETATM   24  C   UNL     1      44.047 -17.718   5.582  1.00  0.00     0.039 A 
HETATM   25  C   UNL     1      43.995 -18.217   4.278  1.00  0.00     0.011 A 
HETATM   26  C   UNL     1      43.050 -17.752   3.347  1.00  0.00    -0.048 A 
HETATM   27  C   UNL     1      42.171 -16.737   3.774  1.00  0.00     0.040 A 
BRANCH  23  28
HETATM   28  O   UNL     1      43.108 -16.187   7.254  1.00  0.00    -0.354 OA
HETATM   29  C   UNL     1      43.367 -17.068   8.341  1.00  0.00     0.210 C 
ENDBRANCH  23  28
BRANCH  26  30
HETATM   30  C   UNL     1      42.973 -18.381   1.943  1.00  0.00    -0.024 C 
HETATM   31  C   UNL     1      44.006 -17.699   1.018  1.00  0.00     0.019 C 
HETATM   32  C   UNL     1      43.271 -19.898   1.917  1.00  0.00     0.019 C 
HETATM   33  C   UNL     1      41.560 -18.185   1.356  1.00  0.00     0.019 C 
ENDBRANCH  26  30
ENDBRANCH  19  22
ENDBRANCH   1  18
TORSDOF 9
ENDMDL
MODEL 7
REMARK VINA RESULT:      -7.2      3.384      6.061
REMARK  9 active torsions:
REMARK  status: ('A' for Active; 'I' for Inactive)
REMARK    1  A    between atoms: C_4  and  S_5 
REMARK    2  A    between atoms: S_5  and  C_6 
REMARK    3  A    between atoms: C_6  and  C_7 
REMARK       I    between atoms: C_7  and  N_8 
REMARK    4  A    between atoms: C_13  and  C_14 
REMARK    5  A    between atoms: C_14  and  C_15 
REMARK    6  A    between atoms: C_15  and  C_16 
REMARK       I    between atoms: C_16  and  N_17 
REMARK    7  A    between atoms: N_17  and  C_18 
REMARK    8  A    between atoms: C_19  and  O_20 
REMARK    9  A    between atoms: C_24  and  C_25 
ROOT
HETATM    1  C   UNL     1      41.672 -14.934   5.716  1.00  0.00     0.108 C 
ENDROOT
BRANCH   1   2
HETATM    2  C   UNL     1      42.446 -13.617   5.554  1.00  0.00     0.052 C 
BRANCH   2   3
HETATM    3  C   UNL     1      43.163 -13.054   6.761  1.00  0.00    -0.009 A 
HETATM    4  C   UNL     1      42.755 -11.861   7.366  1.00  0.00     0.042 A 
HETATM    5  C   UNL     1      41.586 -11.056   6.872  1.00  0.00     0.071 C 
HETATM    6  N   UNL     1      43.395 -11.317   8.424  1.00  0.00    -0.228 NA
HETATM    7  C   UNL     1      44.452 -11.975   8.907  1.00  0.00     0.189 A 
HETATM    8  N   UNL     1      44.941 -13.107   8.391  1.00  0.00    -0.228 NA
HETATM    9  C   UNL     1      44.302 -13.633   7.321  1.00  0.00     0.042 A 
HETATM   10  C   UNL     1      44.915 -14.900   6.800  1.00  0.00     0.071 C 
BRANCH   7  11
HETATM   11  S   UNL     1      45.323 -11.275  10.284  1.00  0.00    -0.081 SA
BRANCH  11  12
HETATM   12  C   UNL     1      43.902 -10.622  11.216  1.00  0.00     0.185 C 
BRANCH  12  13
HETATM   13  C   UNL     1      43.252 -11.727  12.022  1.00  0.00     0.225 C 
HETATM   14  N   UNL     1      43.936 -12.911  12.075  1.00  0.00    -0.370 N 
HETATM   15  H   UNL     1      44.602 -13.136  11.346  1.00  0.00     0.159 HD
HETATM   16  H   UNL     1      43.469 -13.678  12.538  1.00  0.00     0.159 HD
HETATM   17  O   UNL     1      42.216 -11.580  12.664  1.00  0.00    -0.273 OA
ENDBRANCH  12  13
ENDBRANCH  11  12
ENDBRANCH   7  11
ENDBRANCH   2   3
ENDBRANCH   1   2
BRANCH   1  18
HETATM   18  C   UNL     1      40.587 -15.155   4.680  1.00  0.00     0.222 C 
HETATM   19  N   UNL     1      40.592 -16.299   3.937  1.00  0.00    -0.325 N 
HETATM   20  H   UNL     1      39.683 -16.513   3.534  1.00  0.00     0.169 HD
HETATM   21  O   UNL     1      39.658 -14.358   4.533  1.00  0.00    -0.273 OA
BRANCH  19  22
HETATM   22  C   UNL     1      41.593 -17.243   3.631  1.00  0.00     0.069 A 
HETATM   23  C   UNL     1      41.879 -17.454   2.269  1.00  0.00     0.095 A 
HETATM   24  C   UNL     1      42.899 -18.334   1.910  1.00  0.00     0.039 A 
HETATM   25  C   UNL     1      43.650 -18.981   2.896  1.00  0.00     0.011 A 
HETATM   26  C   UNL     1      43.414 -18.763   4.265  1.00  0.00    -0.048 A 
HETATM   27  C   UNL     1      42.368 -17.884   4.606  1.00  0.00     0.040 A 
BRANCH  23  28
HETATM   28  O   UNL     1      41.102 -16.749   1.381  1.00  0.00    -0.354 OA
HETATM   29  C   UNL     1      41.742 -15.714   0.643  1.00  0.00     0.210 C 
ENDBRANCH  23  28
BRANCH  26  30
HETATM   30  C   UNL     1      44.312 -19.436   5.320  1.00  0.00    -0.024 C 
HETATM   31  C   UNL     1      45.259 -18.382   5.935  1.00  0.00     0.019 C 
HETATM   32  C   UNL     1      43.533 -20.085   6.487  1.00  0.00     0.019 C 
HETATM   33  C   UNL     1      45.153 -20.550   4.661  1.00  0.00     0.019 C 
ENDBRANCH  26  30
ENDBRANCH  19  22
ENDBRANCH   1  18
TORSDOF 9
ENDMDL
MODEL 8
REMARK VINA RESULT:      -7.1      2.594      4.697
REMARK  9 active torsions:
REMARK  status: ('A' for Active; 'I' for Inactive)
REMARK    1  A    between atoms: C_4  and  S_5 
REMARK    2  A    between atoms: S_5  and  C_6 
REMARK    3  A    between atoms: C_6  and  C_7 
REMARK       I    between atoms: C_7  and  N_8 
REMARK    4  A    between atoms: C_13  and  C_14 
REMARK    5  A    between atoms: C_14  and  C_15 
REMARK    6  A    between atoms: C_15  and  C_16 
REMARK       I    between atoms: C_16  and  N_17 
REMARK    7  A    between atoms: N_17  and  C_18 
REMARK    8  A    between atoms: C_19  and  O_20 
REMARK    9  A    between atoms: C_24  and  C_25 
ROOT
HETATM    1  C   UNL     1      40.479 -17.035   2.424  1.00  0.00     0.108 C 
ENDROOT
BRANCH   1   2
HETATM    2  C   UNL     1      40.594 -15.666   3.111  1.00  0.00     0.052 C 
BRANCH   2   3
HETATM    3  C   UNL     1      40.918 -14.461   2.257  1.00  0.00    -0.009 A 
HETATM    4  C   UNL     1      42.189 -13.877   2.263  1.00  0.00     0.042 A 
HETATM    5  C   UNL     1      43.318 -14.395   3.108  1.00  0.00     0.071 C 
HETATM    6  N   UNL     1      42.499 -12.781   1.537  1.00  0.00    -0.228 NA
HETATM    7  C   UNL     1      41.536 -12.259   0.772  1.00  0.00     0.189 A 
HETATM    8  N   UNL     1      40.283 -12.722   0.709  1.00  0.00    -0.228 NA
HETATM    9  C   UNL     1      39.981 -13.810   1.454  1.00  0.00     0.042 A 
HETATM   10  C   UNL     1      38.555 -14.262   1.331  1.00  0.00     0.071 C 
BRANCH   7  11
HETATM   11  S   UNL     1      41.908 -10.810  -0.180  1.00  0.00    -0.081 SA
BRANCH  11  12
HETATM   12  C   UNL     1      41.286 -11.366  -1.799  1.00  0.00     0.185 C 
BRANCH  12  13
HETATM   13  C   UNL     1      41.940 -12.675  -2.189  1.00  0.00     0.225 C 
HETATM   14  N   UNL     1      41.103 -13.750  -2.311  1.00  0.00    -0.370 N 
HETATM   15  H   UNL     1      40.215 -13.749  -1.824  1.00  0.00     0.159 HD
HETATM   16  H   UNL     1      41.543 -14.643  -2.486  1.00  0.00     0.159 HD
HETATM   17  O   UNL     1      43.132 -12.784  -2.460  1.00  0.00    -0.273 OA
ENDBRANCH  12  13
ENDBRANCH  11  12
ENDBRANCH   7  11
ENDBRANCH   2   3
ENDBRANCH   1   2
BRANCH   1  18
HETATM   18  C   UNL     1      41.562 -17.315   1.400  1.00  0.00     0.222 C 
HETATM   19  N   UNL     1      42.581 -18.164   1.718  1.00  0.00    -0.325 N 
HETATM   20  H   UNL     1      43.049 -18.545   0.899  1.00  0.00     0.169 HD
HETATM   21  O   UNL     1      41.515 -16.847   0.261  1.00  0.00    -0.273 OA
BRANCH  19  22
HETATM   22  C   UNL     1      43.103 -18.626   2.944  1.00  0.00     0.069 A 
HETATM   23  C   UNL     1      43.834 -19.828   2.917  1.00  0.00     0.095 A 
HETATM   24  C   UNL     1      44.420 -20.301   4.090  1.00  0.00     0.039 A 
HETATM   25  C   UNL     1      44.306 -19.573   5.277  1.00  0.00     0.011 A 
HETATM   26  C   UNL     1      43.616 -18.349   5.329  1.00  0.00    -0.048 A 
HETATM   27  C   UNL     1      43.015 -17.898   4.138  1.00  0.00     0.040 A 
BRANCH  23  28
HETATM   28  O   UNL     1      43.909 -20.453   1.695  1.00  0.00    -0.354 OA
HETATM   29  C   UNL     1      44.130 -21.858   1.701  1.00  0.00     0.210 C 
ENDBRANCH  23  28
BRANCH  26  30
HETATM   30  C   UNL     1      43.577 -17.539   6.638  1.00  0.00    -0.024 C 
HETATM   31  C   UNL     1      44.073 -18.422   7.804  1.00  0.00     0.019 C 
HETATM   32  C   UNL     1      44.463 -16.271   6.619  1.00  0.00     0.019 C 
HETATM   33  C   UNL     1      42.134 -17.079   6.929  1.00  0.00     0.019 C 
ENDBRANCH  26  30
ENDBRANCH  19  22
ENDBRANCH   1  18
TORSDOF 9
ENDMDL
MODEL 9
REMARK VINA RESULT:      -7.0      2.903      5.356
REMARK  9 active torsions:
REMARK  status: ('A' for Active; 'I' for Inactive)
REMARK    1  A    between atoms: C_4  and  S_5 
REMARK    2  A    between atoms: S_5  and  C_6 
REMARK    3  A    between atoms: C_6  and  C_7 
REMARK       I    between atoms: C_7  and  N_8 
REMARK    4  A    between atoms: C_13  and  C_14 
REMARK    5  A    between atoms: C_14  and  C_15 
REMARK    6  A    between atoms: C_15  and  C_16 
REMARK       I    between atoms: C_16  and  N_17 
REMARK    7  A    between atoms: N_17  and  C_18 
REMARK    8  A    between atoms: C_19  and  O_20 
REMARK    9  A    between atoms: C_24  and  C_25 
ROOT
HETATM    1  C   UNL     1      41.007 -16.436   4.129  1.00  0.00     0.108 C 
ENDROOT
BRANCH   1   2
HETATM    2  C   UNL     1      40.735 -17.060   2.753  1.00  0.00     0.052 C 
BRANCH   2   3
HETATM    3  C   UNL     1      40.892 -16.188   1.527  1.00  0.00    -0.009 A 
HETATM    4  C   UNL     1      39.952 -15.204   1.203  1.00  0.00     0.042 A 
HETATM    5  C   UNL     1      38.729 -14.939   2.035  1.00  0.00     0.071 C 
HETATM    6  N   UNL     1      40.047 -14.432   0.098  1.00  0.00    -0.228 NA
HETATM    7  C   UNL     1      41.104 -14.624  -0.696  1.00  0.00     0.189 A 
HETATM    8  N   UNL     1      42.047 -15.550  -0.492  1.00  0.00    -0.228 NA
HETATM    9  C   UNL     1      41.931 -16.328   0.608  1.00  0.00     0.042 A 
HETATM   10  C   UNL     1      43.024 -17.344   0.759  1.00  0.00     0.071 C 
BRANCH   7  11
HETATM   11  S   UNL     1      41.247 -13.637  -2.163  1.00  0.00    -0.081 SA
BRANCH  11  12
HETATM   12  C   UNL     1      41.111 -14.958  -3.408  1.00  0.00     0.185 C 
BRANCH  12  13
HETATM   13  C   UNL     1      39.683 -15.457  -3.487  1.00  0.00     0.225 C 
HETATM   14  N   UNL     1      39.520 -16.815  -3.462  1.00  0.00    -0.370 N 
HETATM   15  H   UNL     1      40.285 -17.415  -3.744  1.00  0.00     0.159 HD
HETATM   16  H   UNL     1      38.579 -17.156  -3.600  1.00  0.00     0.159 HD
HETATM   17  O   UNL     1      38.705 -14.715  -3.497  1.00  0.00    -0.273 OA
ENDBRANCH  12  13
ENDBRANCH  11  12
ENDBRANCH   7  11
ENDBRANCH   2   3
ENDBRANCH   1   2
BRANCH   1  18
HETATM   18  C   UNL     1      42.301 -15.650   4.217  1.00  0.00     0.222 C 
HETATM   19  N   UNL     1      43.490 -16.318   4.249  1.00  0.00    -0.325 N 
HETATM   20  H   UNL     1      44.278 -15.736   3.972  1.00  0.00     0.169 HD
HETATM   21  O   UNL     1      42.314 -14.418   4.194  1.00  0.00    -0.273 OA
BRANCH  19  22
HETATM   22  C   UNL     1      43.841 -17.644   4.574  1.00  0.00     0.069 A 
HETATM   23  C   UNL     1      43.936 -17.965   5.941  1.00  0.00     0.095 A 
HETATM   24  C   UNL     1      44.223 -19.275   6.320  1.00  0.00     0.039 A 
HETATM   25  C   UNL     1      44.390 -20.268   5.350  1.00  0.00     0.011 A 
HETATM   26  C   UNL     1      44.264 -19.988   3.978  1.00  0.00    -0.048 A 
HETATM   27  C   UNL     1      43.991 -18.655   3.616  1.00  0.00     0.040 A 
BRANCH  23  28
HETATM   28  O   UNL     1      43.728 -16.923   6.814  1.00  0.00    -0.354 OA
HETATM   29  C   UNL     1      43.310 -17.259   8.131  1.00  0.00     0.210 C 
ENDBRANCH  23  28
BRANCH  26  30
HETATM   30  C   UNL     1      44.379 -21.124   2.944  1.00  0.00    -0.024 C 
HETATM   31  C   UNL     1      44.488 -22.478   3.679  1.00  0.00     0.019 C 
HETATM   32  C   UNL     1      43.172 -21.223   1.983  1.00  0.00     0.019 C 
HETATM   33  C   UNL     1      45.636 -20.916   2.074  1.00  0.00     0.019 C 
ENDBRANCH  26  30
ENDBRANCH  19  22
ENDBRANCH   1  18
TORSDOF 9
ENDMDL
MODEL 10
REMARK VINA RESULT:      -6.7      4.169      8.955
REMARK  9 active torsions:
REMARK  status: ('A' for Active; 'I' for Inactive)
REMARK    1  A    between atoms: C_4  and  S_5 
REMARK    2  A    between atoms: S_5  and  C_6 
REMARK    3  A    between atoms: C_6  and  C_7 
REMARK       I    between atoms: C_7  and  N_8 
REMARK    4  A    between atoms: C_13  and  C_14 
REMARK    5  A    between atoms: C_14  and  C_15 
REMARK    6  A    between atoms: C_15  and  C_16 
REMARK       I    between atoms: C_16  and  N_17 
REMARK    7  A    between atoms: N_17  and  C_18 
REMARK    8  A    between atoms: C_19  and  O_20 
REMARK    9  A    between atoms: C_24  and  C_25 
ROOT
HETATM    1  C   UNL     1      41.581 -12.788   5.882  1.00  0.00     0.108 C 
ENDROOT
BRANCH   1   2
HETATM    2  C   UNL     1      42.652 -13.483   5.029  1.00  0.00     0.052 C 
BRANCH   2   3
HETATM    3  C   UNL     1      42.966 -14.935   5.316  1.00  0.00    -0.009 A 
HETATM    4  C   UNL     1      42.315 -15.973   4.642  1.00  0.00     0.042 A 
HETATM    5  C   UNL     1      41.268 -15.732   3.592  1.00  0.00     0.071 C 
HETATM    6  N   UNL     1      42.550 -17.278   4.900  1.00  0.00    -0.228 NA
HETATM    7  C   UNL     1      43.461 -17.565   5.834  1.00  0.00     0.189 A 
HETATM    8  N   UNL     1      44.123 -16.653   6.553  1.00  0.00    -0.228 NA
HETATM    9  C   UNL     1      43.866 -15.350   6.297  1.00  0.00     0.042 A 
HETATM   10  C   UNL     1      44.644 -14.391   7.151  1.00  0.00     0.071 C 
BRANCH   7  11
HETATM   11  S   UNL     1      43.778 -19.270   6.206  1.00  0.00    -0.081 SA
BRANCH  11  12
HETATM   12  C   UNL     1      45.072 -19.595   4.967  1.00  0.00     0.185 C 
BRANCH  12  13
HETATM   13  C   UNL     1      44.473 -20.271   3.751  1.00  0.00     0.225 C 
HETATM   14  N   UNL     1      43.832 -19.449   2.865  1.00  0.00    -0.370 N 
HETATM   15  H   UNL     1      43.472 -18.557   3.181  1.00  0.00     0.159 HD
HETATM   16  H   UNL     1      43.357 -19.902   2.096  1.00  0.00     0.159 HD
HETATM   17  O   UNL     1      44.603 -21.466   3.505  1.00  0.00    -0.273 OA
ENDBRANCH  12  13
ENDBRANCH  11  12
ENDBRANCH   7  11
ENDBRANCH   2   3
ENDBRANCH   1   2
BRANCH   1  18
HETATM   18  C   UNL     1      41.388 -11.317   5.568  1.00  0.00     0.222 C 
HETATM   19  N   UNL     1      41.572 -10.391   6.553  1.00  0.00    -0.325 N 
HETATM   20  H   UNL     1      41.752  -9.458   6.190  1.00  0.00     0.169 HD
HETATM   21  O   UNL     1      41.131 -10.925   4.429  1.00  0.00    -0.273 OA
BRANCH  19  22
HETATM   22  C   UNL     1      41.577 -10.471   7.961  1.00  0.00     0.069 A 
HETATM   23  C   UNL     1      40.326 -10.470   8.606  1.00  0.00     0.095 A 
HETATM   24  C   UNL     1      40.269 -10.604   9.993  1.00  0.00     0.039 A 
HETATM   25  C   UNL     1      41.444 -10.766  10.733  1.00  0.00     0.011 A 
HETATM   26  C   UNL     1      42.706 -10.810  10.115  1.00  0.00    -0.048 A 
HETATM   27  C   UNL     1      42.743 -10.655   8.715  1.00  0.00     0.040 A 
BRANCH  23  28
HETATM   28  O   UNL     1      39.232 -10.332   7.786  1.00  0.00    -0.354 OA
HETATM   29  C   UNL     1      38.661  -9.033   7.684  1.00  0.00     0.210 C 
ENDBRANCH  23  28
BRANCH  26  30
HETATM   30  C   UNL     1      43.970 -11.067  10.956  1.00  0.00    -0.024 C 
HETATM   31  C   UNL     1      44.045 -12.565  11.326  1.00  0.00     0.019 C 
HETATM   32  C   UNL     1      45.290 -10.711  10.233  1.00  0.00     0.019 C 
HETATM   33  C   UNL     1      43.920 -10.227  12.249  1.00  0.00     0.019 C 
ENDBRANCH  26  30
ENDBRANCH  19  22
ENDBRANCH   1  18
TORSDOF 9
ENDMDL
