MODEL 1
REMARK VINA RESULT:      -9.1      0.000      0.000
REMARK  6 active torsions:
REMARK  status: ('A' for Active; 'I' for Inactive)
REMARK    1  A    between atoms: C_7  and  S_8 
REMARK    2  A    between atoms: S_8  and  C_9 
REMARK    3  A    between atoms: C_9  and  C_10 
REMARK    4  A    between atoms: C_18  and  C_19 
REMARK    5  A    between atoms: C_26  and  C_27 
REMARK    6  A    between atoms: C_27  and  O_28 
ROOT
HETATM    1  C   UNL     1      39.183 -13.063   6.190  1.00  0.00     0.070 C 
HETATM    2  C   UNL     1      40.244 -14.004   5.672  1.00  0.00     0.037 A 
HETATM    3  N   UNL     1      40.534 -15.089   6.492  1.00  0.00    -0.192 N 
HETATM    4  C   UNL     1      41.469 -16.011   6.200  1.00  0.00     0.726 A 
HETATM    5  N   UNL     1      42.199 -15.887   5.051  1.00  0.00    -0.082 N 
HETATM    6  N   UNL     1      43.113 -16.874   4.942  1.00  0.00    -0.128 NA
HETATM    7  C   UNL     1      42.827 -17.603   6.029  1.00  0.00     0.226 A 
HETATM    8  N   UNL     1      41.838 -17.090   6.835  1.00  0.00    -0.035 NA
HETATM    9  C   UNL     1      42.004 -14.816   4.064  1.00  0.00     0.203 A 
HETATM   10  C   UNL     1      40.921 -13.840   4.509  1.00  0.00     0.070 A 
HETATM   11  H   UNL     1      39.997 -15.191   7.350  1.00  0.00     0.184 HD
ENDROOT
BRANCH   7  12
HETATM   12  S   UNL     1      43.585 -19.126   6.394  1.00  0.00    -0.083 SA
BRANCH  12  13
HETATM   13  C   UNL     1      44.914 -19.180   5.161  1.00  0.00     0.123 C 
BRANCH  13  14
HETATM   14  C   UNL     1      44.532 -20.045   3.980  1.00  0.00    -0.027 A 
HETATM   15  C   UNL     1      44.689 -21.440   3.971  1.00  0.00     0.041 A 
HETATM   16 CL   UNL     1      45.376 -22.294   5.306  1.00  0.00    -0.084 Cl
HETATM   17  C   UNL     1      44.288 -22.192   2.861  1.00  0.00     0.024 A 
HETATM   18  C   UNL     1      43.727 -21.565   1.749  1.00  0.00     0.002 A 
HETATM   19  C   UNL     1      43.563 -20.183   1.744  1.00  0.00     0.001 A 
HETATM   20  C   UNL     1      43.958 -19.430   2.851  1.00  0.00     0.009 A 
ENDBRANCH  13  14
ENDBRANCH  12  13
ENDBRANCH   7  12
BRANCH   9  21
HETATM   21  C   UNL     1      41.729 -15.416   2.687  1.00  0.00    -0.026 A 
HETATM   22  C   UNL     1      41.937 -14.638   1.534  1.00  0.00     0.033 A 
HETATM   23  C   UNL     1      41.673 -15.167   0.270  1.00  0.00     0.034 A 
HETATM   24 CL   UNL     1      41.924 -14.197  -1.129  1.00  0.00    -0.084 Cl
HETATM   25  C   UNL     1      41.205 -16.472   0.132  1.00  0.00     0.024 A 
HETATM   26  C   UNL     1      40.993 -17.253   1.267  1.00  0.00     0.002 A 
HETATM   27  C   UNL     1      41.250 -16.729   2.537  1.00  0.00     0.010 A 
ENDBRANCH   9  21
BRANCH  10  28
HETATM   28  C   UNL     1      40.606 -12.736   3.582  1.00  0.00     0.293 C 
HETATM   29  O   UNL     1      41.317 -11.761   3.404  1.00  0.00    -0.259 OA
BRANCH  28  30
HETATM   30  O   UNL     1      39.416 -12.980   2.977  1.00  0.00    -0.323 OA
HETATM   31  C   UNL     1      38.661 -11.798   2.702  1.00  0.00     0.213 C 
ENDBRANCH  28  30
ENDBRANCH  10  28
TORSDOF 6
ENDMDL
MODEL 2
REMARK VINA RESULT:      -8.8      1.063      1.373
REMARK  6 active torsions:
REMARK  status: ('A' for Active; 'I' for Inactive)
REMARK    1  A    between atoms: C_7  and  S_8 
REMARK    2  A    between atoms: S_8  and  C_9 
REMARK    3  A    between atoms: C_9  and  C_10 
REMARK    4  A    between atoms: C_18  and  C_19 
REMARK    5  A    between atoms: C_26  and  C_27 
REMARK    6  A    between atoms: C_27  and  O_28 
ROOT
HETATM    1  C   UNL     1      39.095 -12.863   6.271  1.00  0.00     0.070 C 
HETATM    2  C   UNL     1      40.155 -13.784   5.717  1.00  0.00     0.037 A 
HETATM    3  N   UNL     1      40.464 -14.884   6.507  1.00  0.00    -0.192 N 
HETATM    4  C   UNL     1      41.401 -15.793   6.181  1.00  0.00     0.726 A 
HETATM    5  N   UNL     1      42.112 -15.638   5.024  1.00  0.00    -0.082 N 
HETATM    6  N   UNL     1      43.032 -16.616   4.880  1.00  0.00    -0.128 NA
HETATM    7  C   UNL     1      42.767 -17.371   5.954  1.00  0.00     0.226 A 
HETATM    8  N   UNL     1      41.786 -16.884   6.785  1.00  0.00    -0.035 NA
HETATM    9  C   UNL     1      41.896 -14.546   4.066  1.00  0.00     0.203 A 
HETATM   10  C   UNL     1      40.813 -13.589   4.548  1.00  0.00     0.070 A 
HETATM   11  H   UNL     1      39.940 -15.011   7.370  1.00  0.00     0.184 HD
ENDROOT
BRANCH   7  12
HETATM   12  S   UNL     1      43.540 -18.897   6.273  1.00  0.00    -0.083 SA
BRANCH  12  13
HETATM   13  C   UNL     1      44.831 -18.927   5.000  1.00  0.00     0.123 C 
BRANCH  13  14
HETATM   14  C   UNL     1      44.609 -20.056   4.018  1.00  0.00    -0.027 A 
HETATM   15  C   UNL     1      44.262 -19.846   2.675  1.00  0.00     0.041 A 
HETATM   16 CL   UNL     1      44.016 -18.263   2.029  1.00  0.00    -0.084 Cl
HETATM   17  C   UNL     1      44.100 -20.930   1.805  1.00  0.00     0.024 A 
HETATM   18  C   UNL     1      44.281 -22.234   2.262  1.00  0.00     0.002 A 
HETATM   19  C   UNL     1      44.628 -22.460   3.591  1.00  0.00     0.001 A 
HETATM   20  C   UNL     1      44.794 -21.381   4.461  1.00  0.00     0.009 A 
ENDBRANCH  13  14
ENDBRANCH  12  13
ENDBRANCH   7  12
BRANCH   9  21
HETATM   21  C   UNL     1      41.605 -15.117   2.679  1.00  0.00    -0.026 A 
HETATM   22  C   UNL     1      41.935 -14.369   1.534  1.00  0.00     0.033 A 
HETATM   23  C   UNL     1      41.659 -14.869   0.261  1.00  0.00     0.034 A 
HETATM   24 CL   UNL     1      42.061 -13.936  -1.127  1.00  0.00    -0.084 Cl
HETATM   25  C   UNL     1      41.057 -16.116   0.107  1.00  0.00     0.024 A 
HETATM   26  C   UNL     1      40.724 -16.867   1.233  1.00  0.00     0.002 A 
HETATM   27  C   UNL     1      40.991 -16.370   2.511  1.00  0.00     0.010 A 
ENDBRANCH   9  21
BRANCH  10  28
HETATM   28  C   UNL     1      40.477 -12.466   3.652  1.00  0.00     0.293 C 
HETATM   29  O   UNL     1      41.173 -11.476   3.495  1.00  0.00    -0.259 OA
BRANCH  28  30
HETATM   30  O   UNL     1      39.287 -12.711   3.047  1.00  0.00    -0.323 OA
HETATM   31  C   UNL     1      39.029 -11.862   1.927  1.00  0.00     0.213 C 
ENDBRANCH  28  30
ENDBRANCH  10  28
TORSDOF 6
ENDMDL
MODEL 3
REMARK VINA RESULT:      -8.6      3.218      5.014
REMARK  6 active torsions:
REMARK  status: ('A' for Active; 'I' for Inactive)
REMARK    1  A    between atoms: C_7  and  S_8 
REMARK    2  A    between atoms: S_8  and  C_9 
REMARK    3  A    between atoms: C_9  and  C_10 
REMARK    4  A    between atoms: C_18  and  C_19 
REMARK    5  A    between atoms: C_26  and  C_27 
REMARK    6  A    between atoms: C_27  and  O_28 
ROOT
HETATM    1  C   UNL     1      41.108 -14.942  -3.247  1.00  0.00     0.070 C 
HETATM    2  C   UNL     1      40.830 -15.018  -1.765  1.00  0.00     0.037 A 
HETATM    3  N   UNL     1      41.540 -15.990  -1.071  1.00  0.00    -0.192 N 
HETATM    4  C   UNL     1      41.398 -16.213   0.248  1.00  0.00     0.726 A 
HETATM    5  N   UNL     1      40.501 -15.470   0.962  1.00  0.00    -0.082 N 
HETATM    6  N   UNL     1      40.463 -15.857   2.255  1.00  0.00    -0.128 NA
HETATM    7  C   UNL     1      41.422 -16.792   2.266  1.00  0.00     0.226 A 
HETATM    8  N   UNL     1      42.002 -17.051   1.047  1.00  0.00    -0.035 NA
HETATM    9  C   UNL     1      39.687 -14.389   0.389  1.00  0.00     0.203 A 
HETATM   10  C   UNL     1      39.940 -14.236  -1.106  1.00  0.00     0.070 A 
HETATM   11  H   UNL     1      42.212 -16.548  -1.592  1.00  0.00     0.184 HD
ENDROOT
BRANCH   7  12
HETATM   12  S   UNL     1      41.968 -17.596   3.710  1.00  0.00    -0.083 SA
BRANCH  12  13
HETATM   13  C   UNL     1      43.712 -17.903   3.322  1.00  0.00     0.123 C 
BRANCH  13  14
HETATM   14  C   UNL     1      43.995 -19.384   3.200  1.00  0.00    -0.027 A 
HETATM   15  C   UNL     1      44.530 -20.151   4.247  1.00  0.00     0.041 A 
HETATM   16 CL   UNL     1      44.955 -19.452   5.769  1.00  0.00    -0.084 Cl
HETATM   17  C   UNL     1      44.740 -21.525   4.086  1.00  0.00     0.024 A 
HETATM   18  C   UNL     1      44.421 -22.151   2.883  1.00  0.00     0.002 A 
HETATM   19  C   UNL     1      43.887 -21.405   1.835  1.00  0.00     0.001 A 
HETATM   20  C   UNL     1      43.672 -20.035   1.993  1.00  0.00     0.009 A 
ENDBRANCH  13  14
ENDBRANCH  12  13
ENDBRANCH   7  12
BRANCH   9  21
HETATM   21  C   UNL     1      39.919 -13.093   1.163  1.00  0.00    -0.026 A 
HETATM   22  C   UNL     1      38.830 -12.433   1.760  1.00  0.00     0.033 A 
HETATM   23  C   UNL     1      39.023 -11.239   2.456  1.00  0.00     0.034 A 
HETATM   24 CL   UNL     1      37.676 -10.443   3.171  1.00  0.00    -0.084 Cl
HETATM   25  C   UNL     1      40.296 -10.686   2.571  1.00  0.00     0.024 A 
HETATM   26  C   UNL     1      41.385 -11.329   1.983  1.00  0.00     0.002 A 
HETATM   27  C   UNL     1      41.198 -12.522   1.280  1.00  0.00     0.010 A 
ENDBRANCH   9  21
BRANCH  10  28
HETATM   28  C   UNL     1      39.206 -13.154  -1.792  1.00  0.00     0.293 C 
HETATM   29  O   UNL     1      39.679 -12.061  -2.056  1.00  0.00    -0.259 OA
BRANCH  28  30
HETATM   30  O   UNL     1      37.945 -13.571  -2.071  1.00  0.00    -0.323 OA
HETATM   31  C   UNL     1      37.620 -13.513  -3.462  1.00  0.00     0.213 C 
ENDBRANCH  28  30
ENDBRANCH  10  28
TORSDOF 6
ENDMDL
MODEL 4
REMARK VINA RESULT:      -8.4      3.312      6.628
REMARK  6 active torsions:
REMARK  status: ('A' for Active; 'I' for Inactive)
REMARK    1  A    between atoms: C_7  and  S_8 
REMARK    2  A    between atoms: S_8  and  C_9 
REMARK    3  A    between atoms: C_9  and  C_10 
REMARK    4  A    between atoms: C_18  and  C_19 
REMARK    5  A    between atoms: C_26  and  C_27 
REMARK    6  A    between atoms: C_27  and  O_28 
ROOT
HETATM    1  C   UNL     1      44.345 -14.817   7.352  1.00  0.00     0.070 C 
HETATM    2  C   UNL     1      43.397 -15.237   6.255  1.00  0.00     0.037 A 
HETATM    3  N   UNL     1      42.602 -14.225   5.731  1.00  0.00    -0.192 N 
HETATM    4  C   UNL     1      41.685 -14.425   4.767  1.00  0.00     0.726 A 
HETATM    5  N   UNL     1      41.494 -15.685   4.272  1.00  0.00    -0.082 N 
HETATM    6  N   UNL     1      40.513 -15.705   3.347  1.00  0.00    -0.128 NA
HETATM    7  C   UNL     1      40.206 -14.403   3.278  1.00  0.00     0.226 A 
HETATM    8  N   UNL     1      40.891 -13.592   4.151  1.00  0.00    -0.035 NA
HETATM    9  C   UNL     1      42.265 -16.861   4.698  1.00  0.00     0.203 A 
HETATM   10  C   UNL     1      43.267 -16.504   5.789  1.00  0.00     0.070 A 
HETATM   11  H   UNL     1      42.736 -13.283   6.090  1.00  0.00     0.184 HD
ENDROOT
BRANCH   7  12
HETATM   12  S   UNL     1      39.074 -13.739   2.133  1.00  0.00    -0.083 SA
BRANCH  12  13
HETATM   13  C   UNL     1      40.186 -13.033   0.886  1.00  0.00     0.123 C 
BRANCH  13  14
HETATM   14  C   UNL     1      40.306 -13.940  -0.318  1.00  0.00    -0.027 A 
HETATM   15  C   UNL     1      39.620 -13.712  -1.521  1.00  0.00     0.041 A 
HETATM   16 CL   UNL     1      38.534 -12.383  -1.718  1.00  0.00    -0.084 Cl
HETATM   17  C   UNL     1      39.796 -14.569  -2.613  1.00  0.00     0.024 A 
HETATM   18  C   UNL     1      40.656 -15.662  -2.521  1.00  0.00     0.002 A 
HETATM   19  C   UNL     1      41.346 -15.901  -1.336  1.00  0.00     0.001 A 
HETATM   20  C   UNL     1      41.176 -15.046  -0.246  1.00  0.00     0.009 A 
ENDBRANCH  13  14
ENDBRANCH  12  13
ENDBRANCH   7  12
BRANCH   9  21
HETATM   21  C   UNL     1      42.921 -17.524   3.488  1.00  0.00    -0.026 A 
HETATM   22  C   UNL     1      42.873 -18.923   3.349  1.00  0.00     0.033 A 
HETATM   23  C   UNL     1      43.482 -19.544   2.258  1.00  0.00     0.034 A 
HETATM   24 CL   UNL     1      43.421 -21.257   2.110  1.00  0.00    -0.084 Cl
HETATM   25  C   UNL     1      44.142 -18.788   1.292  1.00  0.00     0.024 A 
HETATM   26  C   UNL     1      44.198 -17.401   1.419  1.00  0.00     0.002 A 
HETATM   27  C   UNL     1      43.595 -16.772   2.511  1.00  0.00     0.010 A 
ENDBRANCH   9  21
BRANCH  10  28
HETATM   28  C   UNL     1      44.131 -17.597   6.277  1.00  0.00     0.293 C 
HETATM   29  O   UNL     1      45.279 -17.784   5.910  1.00  0.00    -0.259 OA
BRANCH  28  30
HETATM   30  O   UNL     1      43.447 -18.344   7.180  1.00  0.00    -0.323 OA
HETATM   31  C   UNL     1      43.595 -19.752   6.986  1.00  0.00     0.213 C 
ENDBRANCH  28  30
ENDBRANCH  10  28
TORSDOF 6
ENDMDL
MODEL 5
REMARK VINA RESULT:      -8.4      3.893      5.052
REMARK  6 active torsions:
REMARK  status: ('A' for Active; 'I' for Inactive)
REMARK    1  A    between atoms: C_7  and  S_8 
REMARK    2  A    between atoms: S_8  and  C_9 
REMARK    3  A    between atoms: C_9  and  C_10 
REMARK    4  A    between atoms: C_18  and  C_19 
REMARK    5  A    between atoms: C_26  and  C_27 
REMARK    6  A    between atoms: C_27  and  O_28 
ROOT
HETATM    1  C   UNL     1      42.234  -9.789   0.178  1.00  0.00     0.070 C 
HETATM    2  C   UNL     1      42.041 -11.282   0.070  1.00  0.00     0.037 A 
HETATM    3  N   UNL     1      42.177 -11.991   1.258  1.00  0.00    -0.192 N 
HETATM    4  C   UNL     1      42.063 -13.329   1.342  1.00  0.00     0.726 A 
HETATM    5  N   UNL     1      41.819 -14.054   0.209  1.00  0.00    -0.082 N 
HETATM    6  N   UNL     1      41.777 -15.377   0.474  1.00  0.00    -0.128 NA
HETATM    7  C   UNL     1      41.930 -15.372   1.805  1.00  0.00     0.226 A 
HETATM    8  N   UNL     1      42.130 -14.134   2.367  1.00  0.00    -0.035 NA
HETATM    9  C   UNL     1      41.625 -13.461  -1.121  1.00  0.00     0.203 A 
HETATM   10  C   UNL     1      41.777 -11.946  -1.082  1.00  0.00     0.070 A 
HETATM   11  H   UNL     1      42.359 -11.462   2.108  1.00  0.00     0.184 HD
ENDROOT
BRANCH   7  12
HETATM   12  S   UNL     1      41.825 -16.802   2.792  1.00  0.00    -0.083 SA
BRANCH  12  13
HETATM   13  C   UNL     1      43.571 -17.124   3.159  1.00  0.00     0.123 C 
BRANCH  13  14
HETATM   14  C   UNL     1      43.881 -18.604   3.102  1.00  0.00    -0.027 A 
HETATM   15  C   UNL     1      44.488 -19.300   4.159  1.00  0.00     0.041 A 
HETATM   16 CL   UNL     1      44.978 -18.510   5.615  1.00  0.00    -0.084 Cl
HETATM   17  C   UNL     1      44.720 -20.677   4.062  1.00  0.00     0.024 A 
HETATM   18  C   UNL     1      44.351 -21.375   2.913  1.00  0.00     0.002 A 
HETATM   19  C   UNL     1      43.745 -20.699   1.858  1.00  0.00     0.001 A 
HETATM   20  C   UNL     1      43.509 -19.327   1.952  1.00  0.00     0.009 A 
ENDBRANCH  13  14
ENDBRANCH  12  13
ENDBRANCH   7  12
BRANCH   9  21
HETATM   21  C   UNL     1      40.284 -13.906  -1.702  1.00  0.00    -0.026 A 
HETATM   22  C   UNL     1      40.255 -14.816  -2.774  1.00  0.00     0.033 A 
HETATM   23  C   UNL     1      39.039 -15.217  -3.327  1.00  0.00     0.034 A 
HETATM   24 CL   UNL     1      39.025 -16.324  -4.644  1.00  0.00    -0.084 Cl
HETATM   25  C   UNL     1      37.837 -14.725  -2.823  1.00  0.00     0.024 A 
HETATM   26  C   UNL     1      37.851 -13.822  -1.761  1.00  0.00     0.002 A 
HETATM   27  C   UNL     1      39.065 -13.411  -1.206  1.00  0.00     0.010 A 
ENDBRANCH   9  21
BRANCH  10  28
HETATM   28  C   UNL     1      41.568 -11.228  -2.355  1.00  0.00     0.293 C 
HETATM   29  O   UNL     1      40.605 -10.518  -2.596  1.00  0.00    -0.259 OA
BRANCH  28  30
HETATM   30  O   UNL     1      42.602 -11.487  -3.194  1.00  0.00    -0.323 OA
HETATM   31  C   UNL     1      42.474 -10.855  -4.470  1.00  0.00     0.213 C 
ENDBRANCH  28  30
ENDBRANCH  10  28
TORSDOF 6
ENDMDL
MODEL 6
REMARK VINA RESULT:      -8.2      3.582      5.295
REMARK  6 active torsions:
REMARK  status: ('A' for Active; 'I' for Inactive)
REMARK    1  A    between atoms: C_7  and  S_8 
REMARK    2  A    between atoms: S_8  and  C_9 
REMARK    3  A    between atoms: C_9  and  C_10 
REMARK    4  A    between atoms: C_18  and  C_19 
REMARK    5  A    between atoms: C_26  and  C_27 
REMARK    6  A    between atoms: C_27  and  O_28 
ROOT
HETATM    1  C   UNL     1      40.167 -15.675  -3.446  1.00  0.00     0.070 C 
HETATM    2  C   UNL     1      40.401 -15.205  -2.031  1.00  0.00     0.037 A 
HETATM    3  N   UNL     1      41.279 -15.979  -1.281  1.00  0.00    -0.192 N 
HETATM    4  C   UNL     1      41.582 -15.721   0.004  1.00  0.00     0.726 A 
HETATM    5  N   UNL     1      40.996 -14.659   0.634  1.00  0.00    -0.082 N 
HETATM    6  N   UNL     1      41.385 -14.578   1.923  1.00  0.00    -0.128 NA
HETATM    7  C   UNL     1      42.268 -15.583   1.984  1.00  0.00     0.226 A 
HETATM    8  N   UNL     1      42.398 -16.319   0.830  1.00  0.00    -0.035 NA
HETATM    9  C   UNL     1      40.065 -13.728  -0.019  1.00  0.00     0.203 A 
HETATM   10  C   UNL     1      39.804 -14.126  -1.467  1.00  0.00     0.070 A 
HETATM   11  H   UNL     1      41.722 -16.771  -1.738  1.00  0.00     0.184 HD
ENDROOT
BRANCH   7  12
HETATM   12  S   UNL     1      43.247 -15.923   3.382  1.00  0.00    -0.083 SA
BRANCH  12  13
HETATM   13  C   UNL     1      42.484 -17.447   4.002  1.00  0.00     0.123 C 
BRANCH  13  14
HETATM   14  C   UNL     1      43.264 -18.668   3.567  1.00  0.00    -0.027 A 
HETATM   15  C   UNL     1      44.299 -19.229   4.330  1.00  0.00     0.041 A 
HETATM   16 CL   UNL     1      44.806 -18.540   5.832  1.00  0.00    -0.084 Cl
HETATM   17  C   UNL     1      44.964 -20.379   3.891  1.00  0.00     0.024 A 
HETATM   18  C   UNL     1      44.606 -20.983   2.687  1.00  0.00     0.002 A 
HETATM   19  C   UNL     1      43.580 -20.441   1.919  1.00  0.00     0.001 A 
HETATM   20  C   UNL     1      42.912 -19.296   2.356  1.00  0.00     0.009 A 
ENDBRANCH  13  14
ENDBRANCH  12  13
ENDBRANCH   7  12
BRANCH   9  21
HETATM   21  C   UNL     1      40.576 -12.295   0.117  1.00  0.00    -0.026 A 
HETATM   22  C   UNL     1      41.768 -11.916  -0.527  1.00  0.00     0.033 A 
HETATM   23  C   UNL     1      42.256 -10.615  -0.398  1.00  0.00     0.034 A 
HETATM   24 CL   UNL     1      43.721 -10.173  -1.185  1.00  0.00    -0.084 Cl
HETATM   25  C   UNL     1      41.570  -9.675   0.367  1.00  0.00     0.024 A 
HETATM   26  C   UNL     1      40.388 -10.038   1.011  1.00  0.00     0.002 A 
HETATM   27  C   UNL     1      39.895 -11.340   0.891  1.00  0.00     0.010 A 
ENDBRANCH   9  21
BRANCH  10  28
HETATM   28  C   UNL     1      38.911 -13.245  -2.244  1.00  0.00     0.293 C 
HETATM   29  O   UNL     1      37.703 -13.176  -2.086  1.00  0.00    -0.259 OA
BRANCH  28  30
HETATM   30  O   UNL     1      39.642 -12.542  -3.145  1.00  0.00    -0.323 OA
HETATM   31  C   UNL     1      39.045 -11.298  -3.519  1.00  0.00     0.213 C 
ENDBRANCH  28  30
ENDBRANCH  10  28
TORSDOF 6
ENDMDL
MODEL 7
REMARK VINA RESULT:      -8.1      2.778      3.747
REMARK  6 active torsions:
REMARK  status: ('A' for Active; 'I' for Inactive)
REMARK    1  A    between atoms: C_7  and  S_8 
REMARK    2  A    between atoms: S_8  and  C_9 
REMARK    3  A    between atoms: C_9  and  C_10 
REMARK    4  A    between atoms: C_18  and  C_19 
REMARK    5  A    between atoms: C_26  and  C_27 
REMARK    6  A    between atoms: C_27  and  O_28 
ROOT
HETATM    1  C   UNL     1      38.763 -12.254   3.246  1.00  0.00     0.070 C 
HETATM    2  C   UNL     1      39.719 -13.098   2.438  1.00  0.00     0.037 A 
HETATM    3  N   UNL     1      39.893 -14.402   2.886  1.00  0.00    -0.192 N 
HETATM    4  C   UNL     1      40.725 -15.282   2.302  1.00  0.00     0.726 A 
HETATM    5  N   UNL     1      41.464 -14.894   1.220  1.00  0.00    -0.082 N 
HETATM    6  N   UNL     1      42.269 -15.889   0.792  1.00  0.00    -0.128 NA
HETATM    7  C   UNL     1      41.907 -16.878   1.620  1.00  0.00     0.226 A 
HETATM    8  N   UNL     1      40.978 -16.534   2.573  1.00  0.00    -0.035 NA
HETATM    9  C   UNL     1      41.383 -13.561   0.605  1.00  0.00     0.203 A 
HETATM   10  C   UNL     1      40.409 -12.661   1.356  1.00  0.00     0.070 A 
HETATM   11  H   UNL     1      39.348 -14.703   3.691  1.00  0.00     0.184 HD
ENDROOT
BRANCH   7  12
HETATM   12  S   UNL     1      42.500 -18.509   1.489  1.00  0.00    -0.083 SA
BRANCH  12  13
HETATM   13  C   UNL     1      43.935 -18.468   2.598  1.00  0.00     0.123 C 
BRANCH  13  14
HETATM   14  C   UNL     1      44.249 -19.845   3.140  1.00  0.00    -0.027 A 
HETATM   15  C   UNL     1      44.624 -20.077   4.472  1.00  0.00     0.041 A 
HETATM   16 CL   UNL     1      44.802 -18.790   5.611  1.00  0.00    -0.084 Cl
HETATM   17  C   UNL     1      44.872 -21.378   4.925  1.00  0.00     0.024 A 
HETATM   18  C   UNL     1      44.748 -22.462   4.057  1.00  0.00     0.002 A 
HETATM   19  C   UNL     1      44.375 -22.249   2.734  1.00  0.00     0.001 A 
HETATM   20  C   UNL     1      44.123 -20.954   2.279  1.00  0.00     0.009 A 
ENDBRANCH  13  14
ENDBRANCH  12  13
ENDBRANCH   7  12
BRANCH   9  21
HETATM   21  C   UNL     1      41.046 -13.689  -0.879  1.00  0.00    -0.026 A 
HETATM   22  C   UNL     1      39.784 -14.172  -1.269  1.00  0.00     0.033 A 
HETATM   23  C   UNL     1      39.468 -14.310  -2.620  1.00  0.00     0.034 A 
HETATM   24 CL   UNL     1      37.922 -14.911  -3.077  1.00  0.00    -0.084 Cl
HETATM   25  C   UNL     1      40.396 -13.969  -3.602  1.00  0.00     0.024 A 
HETATM   26  C   UNL     1      41.651 -13.490  -3.230  1.00  0.00     0.002 A 
HETATM   27  C   UNL     1      41.977 -13.354  -1.878  1.00  0.00     0.010 A 
ENDBRANCH   9  21
BRANCH  10  28
HETATM   28  C   UNL     1      40.212 -11.303   0.812  1.00  0.00     0.293 C 
HETATM   29  O   UNL     1      39.256 -10.964   0.133  1.00  0.00    -0.259 OA
BRANCH  28  30
HETATM   30  O   UNL     1      41.251 -10.513   1.183  1.00  0.00    -0.323 OA
HETATM   31  C   UNL     1      40.879  -9.463   2.079  1.00  0.00     0.213 C 
ENDBRANCH  28  30
ENDBRANCH  10  28
TORSDOF 6
ENDMDL
MODEL 8
REMARK VINA RESULT:      -8.0      3.738      7.969
REMARK  6 active torsions:
REMARK  status: ('A' for Active; 'I' for Inactive)
REMARK    1  A    between atoms: C_7  and  S_8 
REMARK    2  A    between atoms: S_8  and  C_9 
REMARK    3  A    between atoms: C_9  and  C_10 
REMARK    4  A    between atoms: C_18  and  C_19 
REMARK    5  A    between atoms: C_26  and  C_27 
REMARK    6  A    between atoms: C_27  and  O_28 
ROOT
HETATM    1  C   UNL     1      43.636 -21.543   1.790  1.00  0.00     0.070 C 
HETATM    2  C   UNL     1      43.594 -20.086   2.182  1.00  0.00     0.037 A 
HETATM    3  N   UNL     1      42.839 -19.264   1.354  1.00  0.00    -0.192 N 
HETATM    4  C   UNL     1      42.713 -17.938   1.539  1.00  0.00     0.726 A 
HETATM    5  N   UNL     1      43.368 -17.339   2.579  1.00  0.00    -0.082 N 
HETATM    6  N   UNL     1      43.161 -16.006   2.586  1.00  0.00    -0.128 NA
HETATM    7  C   UNL     1      42.308 -15.878   1.561  1.00  0.00     0.226 A 
HETATM    8  N   UNL     1      42.028 -17.041   0.883  1.00  0.00    -0.035 NA
HETATM    9  C   UNL     1      44.188 -18.063   3.560  1.00  0.00     0.203 A 
HETATM   10  C   UNL     1      44.250 -19.553   3.242  1.00  0.00     0.070 A 
HETATM   11  H   UNL     1      42.346 -19.698   0.577  1.00  0.00     0.184 HD
ENDROOT
BRANCH   7  12
HETATM   12  S   UNL     1      41.537 -14.378   1.131  1.00  0.00    -0.083 SA
BRANCH  12  13
HETATM   13  C   UNL     1      39.888 -14.592   1.854  1.00  0.00     0.123 C 
BRANCH  13  14
HETATM   14  C   UNL     1      39.757 -13.833   3.156  1.00  0.00    -0.027 A 
HETATM   15  C   UNL     1      39.128 -12.581   3.253  1.00  0.00     0.041 A 
HETATM   16 CL   UNL     1      38.480 -11.773   1.871  1.00  0.00    -0.084 Cl
HETATM   17  C   UNL     1      39.008 -11.940   4.491  1.00  0.00     0.024 A 
HETATM   18  C   UNL     1      39.512 -12.537   5.646  1.00  0.00     0.002 A 
HETATM   19  C   UNL     1      40.136 -13.779   5.567  1.00  0.00     0.001 A 
HETATM   20  C   UNL     1      40.254 -14.423   4.335  1.00  0.00     0.009 A 
ENDBRANCH  13  14
ENDBRANCH  12  13
ENDBRANCH   7  12
BRANCH   9  21
HETATM   21  C   UNL     1      43.683 -17.782   4.974  1.00  0.00    -0.026 A 
HETATM   22  C   UNL     1      42.305 -17.610   5.201  1.00  0.00     0.033 A 
HETATM   23  C   UNL     1      41.831 -17.334   6.484  1.00  0.00     0.034 A 
HETATM   24 CL   UNL     1      40.144 -17.118   6.740  1.00  0.00    -0.084 Cl
HETATM   25  C   UNL     1      42.713 -17.230   7.557  1.00  0.00     0.024 A 
HETATM   26  C   UNL     1      44.081 -17.397   7.345  1.00  0.00     0.002 A 
HETATM   27  C   UNL     1      44.564 -17.667   6.063  1.00  0.00     0.010 A 
ENDBRANCH   9  21
BRANCH  10  28
HETATM   28  C   UNL     1      45.016 -20.397   4.180  1.00  0.00     0.293 C 
HETATM   29  O   UNL     1      46.233 -20.394   4.273  1.00  0.00    -0.259 OA
BRANCH  28  30
HETATM   30  O   UNL     1      44.159 -21.162   4.901  1.00  0.00    -0.323 OA
HETATM   31  C   UNL     1      44.686 -22.447   5.239  1.00  0.00     0.213 C 
ENDBRANCH  28  30
ENDBRANCH  10  28
TORSDOF 6
ENDMDL
MODEL 9
REMARK VINA RESULT:      -7.9      3.874      6.915
REMARK  6 active torsions:
REMARK  status: ('A' for Active; 'I' for Inactive)
REMARK    1  A    between atoms: C_7  and  S_8 
REMARK    2  A    between atoms: S_8  and  C_9 
REMARK    3  A    between atoms: C_9  and  C_10 
REMARK    4  A    between atoms: C_18  and  C_19 
REMARK    5  A    between atoms: C_26  and  C_27 
REMARK    6  A    between atoms: C_27  and  O_28 
ROOT
HETATM    1  C   UNL     1      44.479 -18.504   6.441  1.00  0.00     0.070 C 
HETATM    2  C   UNL     1      43.940 -17.482   5.470  1.00  0.00     0.037 A 
HETATM    3  N   UNL     1      43.556 -17.978   4.230  1.00  0.00    -0.192 N 
HETATM    4  C   UNL     1      43.079 -17.206   3.237  1.00  0.00     0.726 A 
HETATM    5  N   UNL     1      42.973 -15.856   3.427  1.00  0.00    -0.082 N 
HETATM    6  N   UNL     1      42.517 -15.239   2.317  1.00  0.00    -0.128 NA
HETATM    7  C   UNL     1      42.296 -16.291   1.517  1.00  0.00     0.226 A 
HETATM    8  N   UNL     1      42.650 -17.511   2.043  1.00  0.00    -0.035 NA
HETATM    9  C   UNL     1      43.313 -15.174   4.683  1.00  0.00     0.203 A 
HETATM   10  C   UNL     1      43.838 -16.154   5.724  1.00  0.00     0.070 A 
HETATM   11  H   UNL     1      43.629 -18.981   4.077  1.00  0.00     0.184 HD
ENDROOT
BRANCH   7  12
HETATM   12  S   UNL     1      41.555 -16.169  -0.053  1.00  0.00    -0.083 SA
BRANCH  12  13
HETATM   13  C   UNL     1      40.675 -14.589   0.079  1.00  0.00     0.123 C 
BRANCH  13  14
HETATM   14  C   UNL     1      41.447 -13.472  -0.588  1.00  0.00    -0.027 A 
HETATM   15  C   UNL     1      41.854 -12.311   0.088  1.00  0.00     0.041 A 
HETATM   16 CL   UNL     1      41.466 -12.036   1.748  1.00  0.00    -0.084 Cl
HETATM   17  C   UNL     1      42.595 -11.326  -0.574  1.00  0.00     0.024 A 
HETATM   18  C   UNL     1      42.940 -11.485  -1.916  1.00  0.00     0.002 A 
HETATM   19  C   UNL     1      42.547 -12.632  -2.600  1.00  0.00     0.001 A 
HETATM   20  C   UNL     1      41.811 -13.619  -1.942  1.00  0.00     0.009 A 
ENDBRANCH  13  14
ENDBRANCH  12  13
ENDBRANCH   7  12
BRANCH   9  21
HETATM   21  C   UNL     1      42.115 -14.368   5.181  1.00  0.00    -0.026 A 
HETATM   22  C   UNL     1      42.218 -12.971   5.308  1.00  0.00     0.033 A 
HETATM   23  C   UNL     1      41.138 -12.224   5.779  1.00  0.00     0.034 A 
HETATM   24 CL   UNL     1      41.286 -10.517   5.937  1.00  0.00    -0.084 Cl
HETATM   25  C   UNL     1      39.942 -12.850   6.126  1.00  0.00     0.024 A 
HETATM   26  C   UNL     1      39.827 -14.234   6.007  1.00  0.00     0.002 A 
HETATM   27  C   UNL     1      40.906 -14.990   5.541  1.00  0.00     0.010 A 
ENDBRANCH   9  21
BRANCH  10  28
HETATM   28  C   UNL     1      44.181 -15.594   7.046  1.00  0.00     0.293 C 
HETATM   29  O   UNL     1      43.707 -15.979   8.102  1.00  0.00    -0.259 OA
BRANCH  28  30
HETATM   30  O   UNL     1      45.089 -14.597   6.892  1.00  0.00    -0.323 OA
HETATM   31  C   UNL     1      44.882 -13.494   7.777  1.00  0.00     0.213 C 
ENDBRANCH  28  30
ENDBRANCH  10  28
TORSDOF 6
ENDMDL
MODEL 10
REMARK VINA RESULT:      -7.7      4.035      8.035
REMARK  6 active torsions:
REMARK  status: ('A' for Active; 'I' for Inactive)
REMARK    1  A    between atoms: C_7  and  S_8 
REMARK    2  A    between atoms: S_8  and  C_9 
REMARK    3  A    between atoms: C_9  and  C_10 
REMARK    4  A    between atoms: C_18  and  C_19 
REMARK    5  A    between atoms: C_26  and  C_27 
REMARK    6  A    between atoms: C_27  and  O_28 
ROOT
HETATM    1  C   UNL     1      43.431 -21.478   1.793  1.00  0.00     0.070 C 
HETATM    2  C   UNL     1      43.515 -20.033   2.222  1.00  0.00     0.037 A 
HETATM    3  N   UNL     1      42.863 -19.125   1.397  1.00  0.00    -0.192 N 
HETATM    4  C   UNL     1      42.856 -17.797   1.613  1.00  0.00     0.726 A 
HETATM    5  N   UNL     1      43.535 -17.287   2.684  1.00  0.00    -0.082 N 
HETATM    6  N   UNL     1      43.454 -15.941   2.721  1.00  0.00    -0.128 NA
HETATM    7  C   UNL     1      42.644 -15.709   1.679  1.00  0.00     0.226 A 
HETATM    8  N   UNL     1      42.276 -16.824   0.964  1.00  0.00    -0.035 NA
HETATM    9  C   UNL     1      44.256 -18.108   3.667  1.00  0.00     0.203 A 
HETATM   10  C   UNL     1      44.188 -19.589   3.312  1.00  0.00     0.070 A 
HETATM   11  H   UNL     1      42.354 -19.492   0.596  1.00  0.00     0.184 HD
ENDROOT
BRANCH   7  12
HETATM   12  S   UNL     1      42.029 -14.134   1.269  1.00  0.00    -0.083 SA
BRANCH  12  13
HETATM   13  C   UNL     1      40.971 -14.513  -0.155  1.00  0.00     0.123 C 
BRANCH  13  14
HETATM   14  C   UNL     1      41.313 -13.638  -1.341  1.00  0.00    -0.027 A 
HETATM   15  C   UNL     1      41.284 -14.098  -2.667  1.00  0.00     0.041 A 
HETATM   16 CL   UNL     1      40.890 -15.734  -3.060  1.00  0.00    -0.084 Cl
HETATM   17  C   UNL     1      41.579 -13.233  -3.727  1.00  0.00     0.024 A 
HETATM   18  C   UNL     1      41.907 -11.901  -3.479  1.00  0.00     0.002 A 
HETATM   19  C   UNL     1      41.938 -11.428  -2.170  1.00  0.00     0.001 A 
HETATM   20  C   UNL     1      41.641 -12.287  -1.111  1.00  0.00     0.009 A 
ENDBRANCH  13  14
ENDBRANCH  12  13
ENDBRANCH   7  12
BRANCH   9  21
HETATM   21  C   UNL     1      43.741 -17.814   5.074  1.00  0.00    -0.026 A 
HETATM   22  C   UNL     1      42.368 -17.591   5.282  1.00  0.00     0.033 A 
HETATM   23  C   UNL     1      41.885 -17.303   6.559  1.00  0.00     0.034 A 
HETATM   24 CL   UNL     1      40.204 -17.024   6.791  1.00  0.00    -0.084 Cl
HETATM   25  C   UNL     1      42.755 -17.237   7.645  1.00  0.00     0.024 A 
HETATM   26  C   UNL     1      44.118 -17.455   7.453  1.00  0.00     0.002 A 
HETATM   27  C   UNL     1      44.610 -17.738   6.177  1.00  0.00     0.010 A 
ENDBRANCH   9  21
BRANCH  10  28
HETATM   28  C   UNL     1      44.846 -20.523   4.246  1.00  0.00     0.293 C 
HETATM   29  O   UNL     1      46.055 -20.643   4.363  1.00  0.00    -0.259 OA
BRANCH  28  30
HETATM   30  O   UNL     1      43.902 -21.213   4.934  1.00  0.00    -0.323 OA
HETATM   31  C   UNL     1      44.225 -21.403   6.313  1.00  0.00     0.213 C 
ENDBRANCH  28  30
ENDBRANCH  10  28
TORSDOF 6
ENDMDL
