MODEL 1
REMARK VINA RESULT:      -9.8      0.000      0.000
REMARK  5 active torsions:
REMARK  status: ('A' for Active; 'I' for Inactive)
REMARK    1  A    between atoms: C_7  and  C_8 
REMARK    2  A    between atoms: C_16  and  C_17 
REMARK    3  A    between atoms: C_20  and  O_21 
REMARK    4  A    between atoms: C_24  and  C_25 
REMARK       I    between atoms: C_25  and  N_26 
REMARK    5  A    between atoms: N_26  and  C_27 
ROOT
HETATM    1  C   UNL     1      39.776 -14.075  -0.955  1.00  0.00     0.070 C 
HETATM    2  C   UNL     1      40.562 -14.567   0.236  1.00  0.00     0.037 C 
HETATM    3  N   UNL     1      40.494 -15.942   0.476  1.00  0.00    -0.192 N 
HETATM    4  C   UNL     1      41.364 -16.568   1.296  1.00  0.00     0.726 A 
HETATM    5  N   UNL     1      42.136 -15.823   2.136  1.00  0.00    -0.083 N 
HETATM    6  N   UNL     1      43.034 -16.578   2.795  1.00  0.00    -0.135 NA
HETATM    7  C   UNL     1      42.741 -17.805   2.316  1.00  0.00     0.200 A 
HETATM    8  N   UNL     1      41.688 -17.827   1.419  1.00  0.00    -0.041 NA
HETATM    9  C   UNL     1      42.046 -14.367   2.244  1.00  0.00     0.202 C 
HETATM   10  C   UNL     1      41.315 -13.773   1.043  1.00  0.00     0.062 C 
HETATM   11  H   UNL     1      40.044 -16.505  -0.243  1.00  0.00     0.184 HD
ENDROOT
BRANCH  10  12
HETATM   12  C   UNL     1      41.644 -12.367   0.650  1.00  0.00     0.256 C 
HETATM   13  N   UNL     1      42.400 -12.248  -0.496  1.00  0.00    -0.323 N 
HETATM   14  H   UNL     1      42.769 -13.089  -0.921  1.00  0.00     0.169 HD
HETATM   15  O   UNL     1      41.183 -11.440   1.308  1.00  0.00    -0.267 OA
BRANCH  13  16
HETATM   16  C   UNL     1      42.725 -11.058  -1.185  1.00  0.00     0.035 A 
HETATM   17  C   UNL     1      43.417  -9.986  -0.618  1.00  0.00     0.029 A 
HETATM   18  C   UNL     1      43.677  -8.833  -1.366  1.00  0.00     0.002 A 
HETATM   19  C   UNL     1      43.240  -8.737  -2.684  1.00  0.00     0.000 A 
HETATM   20  C   UNL     1      42.549  -9.800  -3.260  1.00  0.00     0.002 A 
HETATM   21  C   UNL     1      42.299 -10.956  -2.516  1.00  0.00     0.029 A 
ENDBRANCH  13  16
ENDBRANCH  10  12
BRANCH   9  22
HETATM   22  C   UNL     1      41.404 -14.013   3.588  1.00  0.00    -0.028 A 
HETATM   23  C   UNL     1      42.090 -13.174   4.488  1.00  0.00     0.012 A 
HETATM   24  C   UNL     1      41.526 -12.838   5.722  1.00  0.00     0.037 A 
HETATM   25  C   UNL     1      40.276 -13.342   6.066  1.00  0.00     0.065 A 
HETATM   26  C   UNL     1      39.587 -14.180   5.201  1.00  0.00     0.037 A 
HETATM   27  C   UNL     1      40.151 -14.524   3.972  1.00  0.00     0.012 A 
BRANCH  25  28
HETATM   28  O   UNL     1      39.691 -13.042   7.258  1.00  0.00    -0.361 OA
HETATM   29  H   UNL     1      39.705 -13.830   7.825  1.00  0.00     0.217 HD
ENDBRANCH  25  28
ENDBRANCH   9  22
BRANCH   7  30
HETATM   30  C   UNL     1      43.456 -19.004   2.735  1.00  0.00     0.036 A 
HETATM   31  C   UNL     1      44.100 -19.117   3.977  1.00  0.00     0.048 A 
HETATM   32 CL   UNL     1      44.077 -17.870   5.178  1.00  0.00    -0.083 Cl
HETATM   33  C   UNL     1      44.764 -20.303   4.320  1.00  0.00     0.025 A 
HETATM   34  C   UNL     1      44.789 -21.384   3.439  1.00  0.00     0.002 A 
HETATM   35  C   UNL     1      44.147 -21.287   2.208  1.00  0.00     0.001 A 
HETATM   36  C   UNL     1      43.485 -20.107   1.861  1.00  0.00     0.017 A 
ENDBRANCH   7  30
TORSDOF 5
ENDMDL
MODEL 2
REMARK VINA RESULT:      -9.5      3.598      7.495
REMARK  5 active torsions:
REMARK  status: ('A' for Active; 'I' for Inactive)
REMARK    1  A    between atoms: C_7  and  C_8 
REMARK    2  A    between atoms: C_16  and  C_17 
REMARK    3  A    between atoms: C_20  and  O_21 
REMARK    4  A    between atoms: C_24  and  C_25 
REMARK       I    between atoms: C_25  and  N_26 
REMARK    5  A    between atoms: N_26  and  C_27 
ROOT
HETATM    1  C   UNL     1      40.284 -15.231   6.198  1.00  0.00     0.070 C 
HETATM    2  C   UNL     1      41.034 -15.515   4.919  1.00  0.00     0.037 C 
HETATM    3  N   UNL     1      40.254 -15.562   3.760  1.00  0.00    -0.192 N 
HETATM    4  C   UNL     1      40.800 -15.501   2.528  1.00  0.00     0.726 A 
HETATM    5  N   UNL     1      42.142 -15.693   2.389  1.00  0.00    -0.083 N 
HETATM    6  N   UNL     1      42.551 -15.478   1.124  1.00  0.00    -0.135 NA
HETATM    7  C   UNL     1      41.383 -15.169   0.524  1.00  0.00     0.200 A 
HETATM    8  N   UNL     1      40.284 -15.215   1.363  1.00  0.00    -0.041 NA
HETATM    9  C   UNL     1      43.037 -16.016   3.500  1.00  0.00     0.202 C 
HETATM   10  C   UNL     1      42.378 -15.702   4.841  1.00  0.00     0.062 C 
HETATM   11  H   UNL     1      39.284 -15.266   3.855  1.00  0.00     0.184 HD
ENDROOT
BRANCH  10  12
HETATM   12  C   UNL     1      43.270 -15.371   5.997  1.00  0.00     0.256 C 
HETATM   13  N   UNL     1      43.837 -14.116   5.950  1.00  0.00    -0.323 N 
HETATM   14  H   UNL     1      43.713 -13.561   5.114  1.00  0.00     0.169 HD
HETATM   15  O   UNL     1      43.385 -16.180   6.912  1.00  0.00    -0.267 OA
BRANCH  13  16
HETATM   16  C   UNL     1      44.586 -13.480   6.965  1.00  0.00     0.035 A 
HETATM   17  C   UNL     1      44.040 -12.991   8.154  1.00  0.00     0.029 A 
HETATM   18  C   UNL     1      44.852 -12.353   9.099  1.00  0.00     0.002 A 
HETATM   19  C   UNL     1      46.213 -12.190   8.859  1.00  0.00     0.000 A 
HETATM   20  C   UNL     1      46.768 -12.674   7.677  1.00  0.00     0.002 A 
HETATM   21  C   UNL     1      45.960 -13.321   6.739  1.00  0.00     0.029 A 
ENDBRANCH  13  16
ENDBRANCH  10  12
BRANCH   9  22
HETATM   22  C   UNL     1      43.482 -17.474   3.363  1.00  0.00    -0.028 A 
HETATM   23  C   UNL     1      43.312 -18.142   2.135  1.00  0.00     0.012 A 
HETATM   24  C   UNL     1      43.709 -19.474   1.986  1.00  0.00     0.037 A 
HETATM   25  C   UNL     1      44.273 -20.147   3.064  1.00  0.00     0.065 A 
HETATM   26  C   UNL     1      44.439 -19.514   4.288  1.00  0.00     0.037 A 
HETATM   27  C   UNL     1      44.037 -18.187   4.442  1.00  0.00     0.012 A 
BRANCH  25  28
HETATM   28  O   UNL     1      44.672 -21.446   2.963  1.00  0.00    -0.361 OA
HETATM   29  H   UNL     1      44.578 -21.734   2.041  1.00  0.00     0.217 HD
ENDBRANCH  25  28
ENDBRANCH   9  22
BRANCH   7  30
HETATM   30  C   UNL     1      41.289 -14.844  -0.894  1.00  0.00     0.036 A 
HETATM   31  C   UNL     1      41.643 -13.591  -1.418  1.00  0.00     0.048 A 
HETATM   32 CL   UNL     1      42.280 -12.302  -0.454  1.00  0.00    -0.083 Cl
HETATM   33  C   UNL     1      41.537 -13.348  -2.795  1.00  0.00     0.025 A 
HETATM   34  C   UNL     1      41.085 -14.346  -3.659  1.00  0.00     0.002 A 
HETATM   35  C   UNL     1      40.740 -15.595  -3.153  1.00  0.00     0.001 A 
HETATM   36  C   UNL     1      40.844 -15.842  -1.782  1.00  0.00     0.017 A 
ENDBRANCH   7  30
TORSDOF 5
ENDMDL
MODEL 3
REMARK VINA RESULT:      -9.3      1.202      1.543
REMARK  5 active torsions:
REMARK  status: ('A' for Active; 'I' for Inactive)
REMARK    1  A    between atoms: C_7  and  C_8 
REMARK    2  A    between atoms: C_16  and  C_17 
REMARK    3  A    between atoms: C_20  and  O_21 
REMARK    4  A    between atoms: C_24  and  C_25 
REMARK       I    between atoms: C_25  and  N_26 
REMARK    5  A    between atoms: N_26  and  C_27 
ROOT
HETATM    1  C   UNL     1      39.145 -14.235  -0.147  1.00  0.00     0.070 C 
HETATM    2  C   UNL     1      40.035 -14.510   1.041  1.00  0.00     0.037 C 
HETATM    3  N   UNL     1      39.998 -15.817   1.532  1.00  0.00    -0.192 N 
HETATM    4  C   UNL     1      40.940 -16.293   2.372  1.00  0.00     0.726 A 
HETATM    5  N   UNL     1      41.777 -15.414   2.992  1.00  0.00    -0.083 N 
HETATM    6  N   UNL     1      42.734 -16.046   3.697  1.00  0.00    -0.135 NA
HETATM    7  C   UNL     1      42.409 -17.336   3.476  1.00  0.00     0.200 A 
HETATM    8  N   UNL     1      41.282 -17.511   2.694  1.00  0.00    -0.041 NA
HETATM    9  C   UNL     1      41.688 -13.962   2.842  1.00  0.00     0.202 C 
HETATM   10  C   UNL     1      40.850 -13.589   1.621  1.00  0.00     0.062 C 
HETATM   11  H   UNL     1      39.490 -16.498   0.969  1.00  0.00     0.184 HD
ENDROOT
BRANCH  10  12
HETATM   12  C   UNL     1      41.134 -12.281   0.952  1.00  0.00     0.256 C 
HETATM   13  N   UNL     1      42.135 -12.321   0.004  1.00  0.00    -0.323 N 
HETATM   14  H   UNL     1      42.672 -13.171  -0.095  1.00  0.00     0.169 HD
HETATM   15  O   UNL     1      40.442 -11.307   1.229  1.00  0.00    -0.267 OA
BRANCH  13  16
HETATM   16  C   UNL     1      42.506 -11.290  -0.887  1.00  0.00     0.035 A 
HETATM   17  C   UNL     1      43.234 -10.156  -0.518  1.00  0.00     0.029 A 
HETATM   18  C   UNL     1      43.541  -9.171  -1.462  1.00  0.00     0.002 A 
HETATM   19  C   UNL     1      43.115  -9.304  -2.781  1.00  0.00     0.000 A 
HETATM   20  C   UNL     1      42.389 -10.431  -3.160  1.00  0.00     0.002 A 
HETATM   21  C   UNL     1      42.093 -11.420  -2.220  1.00  0.00     0.029 A 
ENDBRANCH  13  16
ENDBRANCH  10  12
BRANCH   9  22
HETATM   22  C   UNL     1      41.163 -13.364   4.150  1.00  0.00    -0.028 A 
HETATM   23  C   UNL     1      41.983 -12.497   4.897  1.00  0.00     0.012 A 
HETATM   24  C   UNL     1      41.528 -11.940   6.096  1.00  0.00     0.037 A 
HETATM   25  C   UNL     1      40.254 -12.249   6.556  1.00  0.00     0.065 A 
HETATM   26  C   UNL     1      39.432 -13.112   5.844  1.00  0.00     0.037 A 
HETATM   27  C   UNL     1      39.886 -13.676   4.651  1.00  0.00     0.012 A 
BRANCH  25  28
HETATM   28  O   UNL     1      39.771 -11.731   7.720  1.00  0.00    -0.361 OA
HETATM   29  H   UNL     1      39.694 -10.767   7.628  1.00  0.00     0.217 HD
ENDBRANCH  25  28
ENDBRANCH   9  22
BRANCH   7  30
HETATM   30  C   UNL     1      43.166 -18.446   4.042  1.00  0.00     0.036 A 
HETATM   31  C   UNL     1      43.845 -19.389   3.255  1.00  0.00     0.048 A 
HETATM   32 CL   UNL     1      43.909 -19.318   1.526  1.00  0.00    -0.083 Cl
HETATM   33  C   UNL     1      44.563 -20.428   3.864  1.00  0.00     0.025 A 
HETATM   34  C   UNL     1      44.616 -20.535   5.254  1.00  0.00     0.002 A 
HETATM   35  C   UNL     1      43.954 -19.601   6.045  1.00  0.00     0.001 A 
HETATM   36  C   UNL     1      43.237 -18.564   5.443  1.00  0.00     0.017 A 
ENDBRANCH   7  30
TORSDOF 5
ENDMDL
MODEL 4
REMARK VINA RESULT:      -9.1      2.677      4.985
REMARK  5 active torsions:
REMARK  status: ('A' for Active; 'I' for Inactive)
REMARK    1  A    between atoms: C_7  and  C_8 
REMARK    2  A    between atoms: C_16  and  C_17 
REMARK    3  A    between atoms: C_20  and  O_21 
REMARK    4  A    between atoms: C_24  and  C_25 
REMARK       I    between atoms: C_25  and  N_26 
REMARK    5  A    between atoms: N_26  and  C_27 
ROOT
HETATM    1  C   UNL     1      42.151 -12.435   4.382  1.00  0.00     0.070 C 
HETATM    2  C   UNL     1      42.056 -13.680   3.534  1.00  0.00     0.037 C 
HETATM    3  N   UNL     1      43.155 -14.540   3.600  1.00  0.00    -0.192 N 
HETATM    4  C   UNL     1      43.096 -15.812   3.154  1.00  0.00     0.726 A 
HETATM    5  N   UNL     1      42.054 -16.185   2.358  1.00  0.00    -0.083 N 
HETATM    6  N   UNL     1      42.070 -17.506   2.098  1.00  0.00    -0.135 NA
HETATM    7  C   UNL     1      43.179 -17.888   2.764  1.00  0.00     0.200 A 
HETATM    8  N   UNL     1      43.849 -16.851   3.390  1.00  0.00    -0.041 NA
HETATM    9  C   UNL     1      41.006 -15.270   1.908  1.00  0.00     0.202 C 
HETATM   10  C   UNL     1      40.989 -14.000   2.755  1.00  0.00     0.062 C 
HETATM   11  H   UNL     1      43.853 -14.329   4.311  1.00  0.00     0.184 HD
ENDROOT
BRANCH  10  12
HETATM   12  C   UNL     1      39.692 -13.264   2.884  1.00  0.00     0.256 C 
HETATM   13  N   UNL     1      39.404 -12.411   1.841  1.00  0.00    -0.323 N 
HETATM   14  H   UNL     1      40.111 -12.254   1.136  1.00  0.00     0.169 HD
HETATM   15  O   UNL     1      38.963 -13.505   3.841  1.00  0.00    -0.267 OA
BRANCH  13  16
HETATM   16  C   UNL     1      38.195 -11.714   1.618  1.00  0.00     0.035 A 
HETATM   17  C   UNL     1      37.831 -10.540   2.281  1.00  0.00     0.029 A 
HETATM   18  C   UNL     1      36.602  -9.926   2.015  1.00  0.00     0.002 A 
HETATM   19  C   UNL     1      35.723 -10.485   1.092  1.00  0.00     0.000 A 
HETATM   20  C   UNL     1      36.075 -11.656   0.425  1.00  0.00     0.002 A 
HETATM   21  C   UNL     1      37.308 -12.262   0.682  1.00  0.00     0.029 A 
ENDBRANCH  13  16
ENDBRANCH  10  12
BRANCH   9  22
HETATM   22  C   UNL     1      41.193 -15.006   0.412  1.00  0.00    -0.028 A 
HETATM   23  C   UNL     1      40.817 -15.991  -0.522  1.00  0.00     0.012 A 
HETATM   24  C   UNL     1      40.980 -15.775  -1.893  1.00  0.00     0.037 A 
HETATM   25  C   UNL     1      41.524 -14.575  -2.339  1.00  0.00     0.065 A 
HETATM   26  C   UNL     1      41.913 -13.594  -1.437  1.00  0.00     0.037 A 
HETATM   27  C   UNL     1      41.759 -13.810  -0.068  1.00  0.00     0.012 A 
BRANCH  25  28
HETATM   28  O   UNL     1      41.702 -14.323  -3.666  1.00  0.00    -0.361 OA
HETATM   29  H   UNL     1      41.330 -13.451  -3.874  1.00  0.00     0.217 HD
ENDBRANCH  25  28
ENDBRANCH   9  22
BRANCH   7  30
HETATM   30  C   UNL     1      43.643 -19.269   2.793  1.00  0.00     0.036 A 
HETATM   31  C   UNL     1      44.392 -19.803   3.853  1.00  0.00     0.048 A 
HETATM   32 CL   UNL     1      44.808 -18.904   5.273  1.00  0.00    -0.083 Cl
HETATM   33  C   UNL     1      44.800 -21.144   3.821  1.00  0.00     0.025 A 
HETATM   34  C   UNL     1      44.465 -21.963   2.743  1.00  0.00     0.002 A 
HETATM   35  C   UNL     1      43.715 -21.447   1.691  1.00  0.00     0.001 A 
HETATM   36  C   UNL     1      43.307 -20.112   1.717  1.00  0.00     0.017 A 
ENDBRANCH   7  30
TORSDOF 5
ENDMDL
MODEL 5
REMARK VINA RESULT:      -9.0      1.652      2.088
REMARK  5 active torsions:
REMARK  status: ('A' for Active; 'I' for Inactive)
REMARK    1  A    between atoms: C_7  and  C_8 
REMARK    2  A    between atoms: C_16  and  C_17 
REMARK    3  A    between atoms: C_20  and  O_21 
REMARK    4  A    between atoms: C_24  and  C_25 
REMARK       I    between atoms: C_25  and  N_26 
REMARK    5  A    between atoms: N_26  and  C_27 
ROOT
HETATM    1  C   UNL     1      37.524 -14.021   0.498  1.00  0.00     0.070 C 
HETATM    2  C   UNL     1      38.753 -14.284   1.334  1.00  0.00     0.037 C 
HETATM    3  N   UNL     1      38.905 -15.597   1.786  1.00  0.00    -0.192 N 
HETATM    4  C   UNL     1      40.077 -16.055   2.272  1.00  0.00     0.726 A 
HETATM    5  N   UNL     1      41.049 -15.160   2.608  1.00  0.00    -0.083 N 
HETATM    6  N   UNL     1      42.196 -15.772   2.957  1.00  0.00    -0.135 NA
HETATM    7  C   UNL     1      41.847 -17.069   2.828  1.00  0.00     0.200 A 
HETATM    8  N   UNL     1      40.533 -17.266   2.444  1.00  0.00    -0.041 NA
HETATM    9  C   UNL     1      40.883 -13.710   2.521  1.00  0.00     0.202 C 
HETATM   10  C   UNL     1      39.690 -13.347   1.640  1.00  0.00     0.062 C 
HETATM   11  H   UNL     1      38.260 -16.285   1.402  1.00  0.00     0.184 HD
ENDROOT
BRANCH  10  12
HETATM   12  C   UNL     1      39.714 -12.025   0.939  1.00  0.00     0.256 C 
HETATM   13  N   UNL     1      40.392 -12.018  -0.260  1.00  0.00    -0.323 N 
HETATM   14  H   UNL     1      40.909 -12.844  -0.528  1.00  0.00     0.169 HD
HETATM   15  O   UNL     1      39.098 -11.082   1.425  1.00  0.00    -0.267 OA
BRANCH  13  16
HETATM   16  C   UNL     1      40.446 -10.967  -1.203  1.00  0.00     0.035 A 
HETATM   17  C   UNL     1      39.502 -10.768  -2.213  1.00  0.00     0.029 A 
HETATM   18  C   UNL     1      39.644  -9.713  -3.120  1.00  0.00     0.002 A 
HETATM   19  C   UNL     1      40.734  -8.852  -3.032  1.00  0.00     0.000 A 
HETATM   20  C   UNL     1      41.682  -9.041  -2.029  1.00  0.00     0.002 A 
HETATM   21  C   UNL     1      41.534 -10.088  -1.116  1.00  0.00     0.029 A 
ENDBRANCH  13  16
ENDBRANCH  10  12
BRANCH   9  22
HETATM   22  C   UNL     1      40.791 -13.140   3.939  1.00  0.00    -0.028 A 
HETATM   23  C   UNL     1      39.839 -13.659   4.838  1.00  0.00     0.012 A 
HETATM   24  C   UNL     1      39.734 -13.155   6.137  1.00  0.00     0.037 A 
HETATM   25  C   UNL     1      40.576 -12.126   6.545  1.00  0.00     0.065 A 
HETATM   26  C   UNL     1      41.514 -11.590   5.673  1.00  0.00     0.037 A 
HETATM   27  C   UNL     1      41.616 -12.086   4.373  1.00  0.00     0.012 A 
BRANCH  25  28
HETATM   28  O   UNL     1      40.507 -11.604   7.801  1.00  0.00    -0.361 OA
HETATM   29  H   UNL     1      40.045 -10.751   7.763  1.00  0.00     0.217 HD
ENDBRANCH  25  28
ENDBRANCH   9  22
BRANCH   7  30
HETATM   30  C   UNL     1      42.770 -18.162   3.100  1.00  0.00     0.036 A 
HETATM   31  C   UNL     1      43.305 -18.414   4.374  1.00  0.00     0.048 A 
HETATM   32 CL   UNL     1      42.892 -17.491   5.779  1.00  0.00    -0.083 Cl
HETATM   33  C   UNL     1      44.183 -19.490   4.568  1.00  0.00     0.025 A 
HETATM   34  C   UNL     1      44.531 -20.324   3.506  1.00  0.00     0.002 A 
HETATM   35  C   UNL     1      44.001 -20.090   2.241  1.00  0.00     0.001 A 
HETATM   36  C   UNL     1      43.126 -19.019   2.042  1.00  0.00     0.017 A 
ENDBRANCH   7  30
TORSDOF 5
ENDMDL
MODEL 6
REMARK VINA RESULT:      -9.0      1.824      2.209
REMARK  5 active torsions:
REMARK  status: ('A' for Active; 'I' for Inactive)
REMARK    1  A    between atoms: C_7  and  C_8 
REMARK    2  A    between atoms: C_16  and  C_17 
REMARK    3  A    between atoms: C_20  and  O_21 
REMARK    4  A    between atoms: C_24  and  C_25 
REMARK       I    between atoms: C_25  and  N_26 
REMARK    5  A    between atoms: N_26  and  C_27 
ROOT
HETATM    1  C   UNL     1      40.730 -15.205  -2.614  1.00  0.00     0.070 C 
HETATM    2  C   UNL     1      41.121 -15.163  -1.156  1.00  0.00     0.037 C 
HETATM    3  N   UNL     1      40.956 -16.360  -0.454  1.00  0.00    -0.192 N 
HETATM    4  C   UNL     1      41.533 -16.569   0.747  1.00  0.00     0.726 A 
HETATM    5  N   UNL     1      42.040 -15.505   1.432  1.00  0.00    -0.083 N 
HETATM    6  N   UNL     1      42.688 -15.890   2.548  1.00  0.00    -0.135 NA
HETATM    7  C   UNL     1      42.523 -17.227   2.495  1.00  0.00     0.200 A 
HETATM    8  N   UNL     1      41.780 -17.665   1.413  1.00  0.00    -0.041 NA
HETATM    9  C   UNL     1      41.954 -14.122   0.965  1.00  0.00     0.202 C 
HETATM   10  C   UNL     1      41.620 -14.068  -0.524  1.00  0.00     0.062 C 
HETATM   11  H   UNL     1      40.725 -17.182  -1.009  1.00  0.00     0.184 HD
ENDROOT
BRANCH  10  12
HETATM   12  C   UNL     1      42.080 -12.874  -1.301  1.00  0.00     0.256 C 
HETATM   13  N   UNL     1      41.761 -11.658  -0.736  1.00  0.00    -0.323 N 
HETATM   14  H   UNL     1      41.159 -11.646   0.076  1.00  0.00     0.169 HD
HETATM   15  O   UNL     1      42.745 -13.045  -2.318  1.00  0.00    -0.267 OA
BRANCH  13  16
HETATM   16  C   UNL     1      42.196 -10.382  -1.158  1.00  0.00     0.035 A 
HETATM   17  C   UNL     1      43.476  -9.872  -0.928  1.00  0.00     0.029 A 
HETATM   18  C   UNL     1      43.817  -8.587  -1.361  1.00  0.00     0.002 A 
HETATM   19  C   UNL     1      42.880  -7.796  -2.019  1.00  0.00     0.000 A 
HETATM   20  C   UNL     1      41.600  -8.293  -2.254  1.00  0.00     0.002 A 
HETATM   21  C   UNL     1      41.263  -9.582  -1.831  1.00  0.00     0.029 A 
ENDBRANCH  13  16
ENDBRANCH  10  12
BRANCH   9  22
HETATM   22  C   UNL     1      40.953 -13.368   1.844  1.00  0.00    -0.028 A 
HETATM   23  C   UNL     1      39.575 -13.462   1.569  1.00  0.00     0.012 A 
HETATM   24  C   UNL     1      38.642 -12.781   2.355  1.00  0.00     0.037 A 
HETATM   25  C   UNL     1      39.080 -11.999   3.418  1.00  0.00     0.065 A 
HETATM   26  C   UNL     1      40.434 -11.881   3.701  1.00  0.00     0.037 A 
HETATM   27  C   UNL     1      41.368 -12.553   2.913  1.00  0.00     0.012 A 
BRANCH  25  28
HETATM   28  O   UNL     1      38.206 -11.317   4.209  1.00  0.00    -0.361 OA
HETATM   29  H   UNL     1      37.299 -11.533   3.936  1.00  0.00     0.217 HD
ENDBRANCH  25  28
ENDBRANCH   9  22
BRANCH   7  30
HETATM   30  C   UNL     1      43.058 -18.126   3.510  1.00  0.00     0.036 A 
HETATM   31  C   UNL     1      42.595 -18.147   4.835  1.00  0.00     0.048 A 
HETATM   32 CL   UNL     1      41.302 -17.149   5.407  1.00  0.00    -0.083 Cl
HETATM   33  C   UNL     1      43.148 -19.045   5.759  1.00  0.00     0.025 A 
HETATM   34  C   UNL     1      44.158 -19.928   5.376  1.00  0.00     0.002 A 
HETATM   35  C   UNL     1      44.619 -19.922   4.063  1.00  0.00     0.001 A 
HETATM   36  C   UNL     1      44.071 -19.030   3.138  1.00  0.00     0.017 A 
ENDBRANCH   7  30
TORSDOF 5
ENDMDL
MODEL 7
REMARK VINA RESULT:      -8.7      3.511      8.680
REMARK  5 active torsions:
REMARK  status: ('A' for Active; 'I' for Inactive)
REMARK    1  A    between atoms: C_7  and  C_8 
REMARK    2  A    between atoms: C_16  and  C_17 
REMARK    3  A    between atoms: C_20  and  O_21 
REMARK    4  A    between atoms: C_24  and  C_25 
REMARK       I    between atoms: C_25  and  N_26 
REMARK    5  A    between atoms: N_26  and  C_27 
ROOT
HETATM    1  C   UNL     1      40.474 -17.185   6.650  1.00  0.00     0.070 C 
HETATM    2  C   UNL     1      40.774 -15.937   5.855  1.00  0.00     0.037 C 
HETATM    3  N   UNL     1      40.029 -14.807   6.203  1.00  0.00    -0.192 N 
HETATM    4  C   UNL     1      40.384 -13.567   5.808  1.00  0.00     0.726 A 
HETATM    5  N   UNL     1      41.307 -13.429   4.814  1.00  0.00    -0.083 N 
HETATM    6  N   UNL     1      41.645 -12.140   4.620  1.00  0.00    -0.135 NA
HETATM    7  C   UNL     1      40.866 -11.527   5.535  1.00  0.00     0.200 A 
HETATM    8  N   UNL     1      40.051 -12.386   6.252  1.00  0.00    -0.041 NA
HETATM    9  C   UNL     1      41.909 -14.554   4.102  1.00  0.00     0.202 C 
HETATM   10  C   UNL     1      41.706 -15.859   4.869  1.00  0.00     0.062 C 
HETATM   11  H   UNL     1      39.459 -14.882   7.044  1.00  0.00     0.184 HD
ENDROOT
BRANCH  10  12
HETATM   12  C   UNL     1      42.712 -16.949   4.672  1.00  0.00     0.256 C 
HETATM   13  N   UNL     1      42.296 -17.980   3.857  1.00  0.00    -0.323 N 
HETATM   14  H   UNL     1      41.335 -17.992   3.546  1.00  0.00     0.169 HD
HETATM   15  O   UNL     1      43.825 -16.832   5.176  1.00  0.00    -0.267 OA
BRANCH  13  16
HETATM   16  C   UNL     1      43.079 -19.052   3.372  1.00  0.00     0.035 A 
HETATM   17  C   UNL     1      42.990 -19.566   2.077  1.00  0.00     0.029 A 
HETATM   18  C   UNL     1      43.789 -20.646   1.685  1.00  0.00     0.002 A 
HETATM   19  C   UNL     1      44.675 -21.228   2.587  1.00  0.00     0.000 A 
HETATM   20  C   UNL     1      44.773 -20.723   3.881  1.00  0.00     0.002 A 
HETATM   21  C   UNL     1      43.983 -19.637   4.269  1.00  0.00     0.029 A 
ENDBRANCH  13  16
ENDBRANCH  10  12
BRANCH   9  22
HETATM   22  C   UNL     1      41.351 -14.590   2.677  1.00  0.00    -0.028 A 
HETATM   23  C   UNL     1      39.959 -14.537   2.473  1.00  0.00     0.012 A 
HETATM   24  C   UNL     1      39.424 -14.570   1.182  1.00  0.00     0.037 A 
HETATM   25  C   UNL     1      40.278 -14.660   0.087  1.00  0.00     0.065 A 
HETATM   26  C   UNL     1      41.653 -14.725   0.264  1.00  0.00     0.037 A 
HETATM   27  C   UNL     1      42.189 -14.701   1.552  1.00  0.00     0.012 A 
BRANCH  25  28
HETATM   28  O   UNL     1      39.800 -14.697  -1.188  1.00  0.00    -0.361 OA
HETATM   29  H   UNL     1      38.837 -14.812  -1.160  1.00  0.00     0.217 HD
ENDBRANCH  25  28
ENDBRANCH   9  22
BRANCH   7  30
HETATM   30  C   UNL     1      40.864 -10.083   5.726  1.00  0.00     0.036 A 
HETATM   31  C   UNL     1      41.379  -9.461   6.874  1.00  0.00     0.048 A 
HETATM   32 CL   UNL     1      42.123 -10.329   8.174  1.00  0.00    -0.083 Cl
HETATM   33  C   UNL     1      41.354  -8.064   6.989  1.00  0.00     0.025 A 
HETATM   34  C   UNL     1      40.824  -7.276   5.967  1.00  0.00     0.002 A 
HETATM   35  C   UNL     1      40.319  -7.880   4.821  1.00  0.00     0.001 A 
HETATM   36  C   UNL     1      40.341  -9.272   4.701  1.00  0.00     0.017 A 
ENDBRANCH   7  30
TORSDOF 5
ENDMDL
MODEL 8
REMARK VINA RESULT:      -8.6      3.933      8.418
REMARK  5 active torsions:
REMARK  status: ('A' for Active; 'I' for Inactive)
REMARK    1  A    between atoms: C_7  and  C_8 
REMARK    2  A    between atoms: C_16  and  C_17 
REMARK    3  A    between atoms: C_20  and  O_21 
REMARK    4  A    between atoms: C_24  and  C_25 
REMARK       I    between atoms: C_25  and  N_26 
REMARK    5  A    between atoms: N_26  and  C_27 
ROOT
HETATM    1  C   UNL     1      43.694 -17.559   1.001  1.00  0.00     0.070 C 
HETATM    2  C   UNL     1      42.969 -16.618   1.932  1.00  0.00     0.037 C 
HETATM    3  N   UNL     1      42.631 -15.375   1.390  1.00  0.00    -0.192 N 
HETATM    4  C   UNL     1      41.732 -14.559   1.978  1.00  0.00     0.726 A 
HETATM    5  N   UNL     1      41.363 -14.802   3.268  1.00  0.00    -0.083 N 
HETATM    6  N   UNL     1      40.374 -13.981   3.669  1.00  0.00    -0.135 NA
HETATM    7  C   UNL     1      40.193 -13.233   2.561  1.00  0.00     0.200 A 
HETATM    8  N   UNL     1      41.047 -13.547   1.519  1.00  0.00    -0.041 NA
HETATM    9  C   UNL     1      41.922 -15.878   4.085  1.00  0.00     0.202 C 
HETATM   10  C   UNL     1      42.628 -16.915   3.214  1.00  0.00     0.062 C 
HETATM   11  H   UNL     1      42.774 -15.265   0.388  1.00  0.00     0.184 HD
ENDROOT
BRANCH  10  12
HETATM   12  C   UNL     1      42.708 -18.319   3.727  1.00  0.00     0.256 C 
HETATM   13  N   UNL     1      43.774 -19.050   3.247  1.00  0.00    -0.323 N 
HETATM   14  H   UNL     1      44.347 -18.647   2.519  1.00  0.00     0.169 HD
HETATM   15  O   UNL     1      41.891 -18.697   4.560  1.00  0.00    -0.267 OA
BRANCH  13  16
HETATM   16  C   UNL     1      44.187 -20.333   3.671  1.00  0.00     0.035 A 
HETATM   17  C   UNL     1      44.599 -20.636   4.971  1.00  0.00     0.029 A 
HETATM   18  C   UNL     1      45.015 -21.931   5.300  1.00  0.00     0.002 A 
HETATM   19  C   UNL     1      45.032 -22.931   4.333  1.00  0.00     0.000 A 
HETATM   20  C   UNL     1      44.623 -22.640   3.033  1.00  0.00     0.002 A 
HETATM   21  C   UNL     1      44.197 -21.350   2.707  1.00  0.00     0.029 A 
ENDBRANCH  13  16
ENDBRANCH  10  12
BRANCH   9  22
HETATM   22  C   UNL     1      42.826 -15.262   5.156  1.00  0.00    -0.028 A 
HETATM   23  C   UNL     1      42.959 -15.899   6.405  1.00  0.00     0.012 A 
HETATM   24  C   UNL     1      43.777 -15.356   7.400  1.00  0.00     0.037 A 
HETATM   25  C   UNL     1      44.461 -14.170   7.155  1.00  0.00     0.065 A 
HETATM   26  C   UNL     1      44.336 -13.518   5.936  1.00  0.00     0.037 A 
HETATM   27  C   UNL     1      43.515 -14.053   4.944  1.00  0.00     0.012 A 
BRANCH  25  28
HETATM   28  O   UNL     1      45.267 -13.605   8.097  1.00  0.00    -0.361 OA
HETATM   29  H   UNL     1      46.073 -13.277   7.667  1.00  0.00     0.217 HD
ENDBRANCH  25  28
ENDBRANCH   9  22
BRANCH   7  30
HETATM   30  C   UNL     1      39.201 -12.168   2.485  1.00  0.00     0.036 A 
HETATM   31  C   UNL     1      38.080 -12.224   1.643  1.00  0.00     0.048 A 
HETATM   32 CL   UNL     1      37.712 -13.584   0.637  1.00  0.00    -0.083 Cl
HETATM   33  C   UNL     1      37.159 -11.167   1.625  1.00  0.00     0.025 A 
HETATM   34  C   UNL     1      37.342 -10.052   2.443  1.00  0.00     0.002 A 
HETATM   35  C   UNL     1      38.445  -9.989   3.289  1.00  0.00     0.001 A 
HETATM   36  C   UNL     1      39.365 -11.039   3.310  1.00  0.00     0.017 A 
ENDBRANCH   7  30
TORSDOF 5
ENDMDL
MODEL 9
REMARK VINA RESULT:      -8.4      3.498      7.985
REMARK  5 active torsions:
REMARK  status: ('A' for Active; 'I' for Inactive)
REMARK    1  A    between atoms: C_7  and  C_8 
REMARK    2  A    between atoms: C_16  and  C_17 
REMARK    3  A    between atoms: C_20  and  O_21 
REMARK    4  A    between atoms: C_24  and  C_25 
REMARK       I    between atoms: C_25  and  N_26 
REMARK    5  A    between atoms: N_26  and  C_27 
ROOT
HETATM    1  C   UNL     1      43.550 -17.251   1.009  1.00  0.00     0.070 C 
HETATM    2  C   UNL     1      42.377 -16.302   0.939  1.00  0.00     0.037 C 
HETATM    3  N   UNL     1      42.145 -15.722  -0.310  1.00  0.00    -0.192 N 
HETATM    4  C   UNL     1      40.982 -15.108  -0.608  1.00  0.00     0.726 A 
HETATM    5  N   UNL     1      40.129 -14.780   0.404  1.00  0.00    -0.083 N 
HETATM    6  N   UNL     1      38.965 -14.289  -0.061  1.00  0.00    -0.135 NA
HETATM    7  C   UNL     1      39.181 -14.327  -1.392  1.00  0.00     0.200 A 
HETATM    8  N   UNL     1      40.434 -14.792  -1.750  1.00  0.00    -0.041 NA
HETATM    9  C   UNL     1      40.419 -15.011   1.818  1.00  0.00     0.202 C 
HETATM   10  C   UNL     1      41.561 -16.011   1.986  1.00  0.00     0.062 C 
HETATM   11  H   UNL     1      42.689 -16.091  -1.088  1.00  0.00     0.184 HD
ENDROOT
BRANCH  10  12
HETATM   12  C   UNL     1      41.598 -16.825   3.242  1.00  0.00     0.256 C 
HETATM   13  N   UNL     1      42.754 -16.696   3.981  1.00  0.00    -0.323 N 
HETATM   14  H   UNL     1      43.522 -16.170   3.588  1.00  0.00     0.169 HD
HETATM   15  O   UNL     1      40.609 -17.479   3.557  1.00  0.00    -0.267 OA
BRANCH  13  16
HETATM   16  C   UNL     1      43.003 -17.214   5.272  1.00  0.00     0.035 A 
HETATM   17  C   UNL     1      42.581 -16.608   6.457  1.00  0.00     0.029 A 
HETATM   18  C   UNL     1      42.890 -17.178   7.696  1.00  0.00     0.002 A 
HETATM   19  C   UNL     1      43.631 -18.354   7.763  1.00  0.00     0.000 A 
HETATM   20  C   UNL     1      44.057 -18.969   6.587  1.00  0.00     0.002 A 
HETATM   21  C   UNL     1      43.739 -18.404   5.349  1.00  0.00     0.029 A 
ENDBRANCH  13  16
ENDBRANCH  10  12
BRANCH   9  22
HETATM   22  C   UNL     1      40.684 -13.661   2.491  1.00  0.00    -0.028 A 
HETATM   23  C   UNL     1      40.409 -13.502   3.864  1.00  0.00     0.012 A 
HETATM   24  C   UNL     1      40.640 -12.280   4.501  1.00  0.00     0.037 A 
HETATM   25  C   UNL     1      41.142 -11.209   3.770  1.00  0.00     0.065 A 
HETATM   26  C   UNL     1      41.409 -11.338   2.414  1.00  0.00     0.037 A 
HETATM   27  C   UNL     1      41.172 -12.554   1.774  1.00  0.00     0.012 A 
BRANCH  25  28
HETATM   28  O   UNL     1      41.380 -10.000   4.351  1.00  0.00    -0.361 OA
HETATM   29  H   UNL     1      40.612  -9.751   4.888  1.00  0.00     0.217 HD
ENDBRANCH  25  28
ENDBRANCH   9  22
BRANCH   7  30
HETATM   30  C   UNL     1      38.188 -13.886  -2.363  1.00  0.00     0.036 A 
HETATM   31  C   UNL     1      37.777 -12.549  -2.484  1.00  0.00     0.048 A 
HETATM   32 CL   UNL     1      38.437 -11.260  -1.535  1.00  0.00    -0.083 Cl
HETATM   33  C   UNL     1      36.822 -12.191  -3.447  1.00  0.00     0.025 A 
HETATM   34  C   UNL     1      36.274 -13.152  -4.296  1.00  0.00     0.002 A 
HETATM   35  C   UNL     1      36.679 -14.479  -4.191  1.00  0.00     0.001 A 
HETATM   36  C   UNL     1      37.630 -14.841  -3.233  1.00  0.00     0.017 A 
ENDBRANCH   7  30
TORSDOF 5
ENDMDL
MODEL 10
REMARK VINA RESULT:      -8.1      3.407      8.212
REMARK  5 active torsions:
REMARK  status: ('A' for Active; 'I' for Inactive)
REMARK    1  A    between atoms: C_7  and  C_8 
REMARK    2  A    between atoms: C_16  and  C_17 
REMARK    3  A    between atoms: C_20  and  O_21 
REMARK    4  A    between atoms: C_24  and  C_25 
REMARK       I    between atoms: C_25  and  N_26 
REMARK    5  A    between atoms: N_26  and  C_27 
ROOT
HETATM    1  C   UNL     1      44.240 -17.361   1.394  1.00  0.00     0.070 C 
HETATM    2  C   UNL     1      43.004 -16.515   1.583  1.00  0.00     0.037 C 
HETATM    3  N   UNL     1      42.772 -15.557   0.593  1.00  0.00    -0.192 N 
HETATM    4  C   UNL     1      41.577 -14.945   0.455  1.00  0.00     0.726 A 
HETATM    5  N   UNL     1      40.669 -15.033   1.468  1.00  0.00    -0.083 N 
HETATM    6  N   UNL     1      39.489 -14.480   1.132  1.00  0.00    -0.135 NA
HETATM    7  C   UNL     1      39.752 -14.048  -0.119  1.00  0.00     0.200 A 
HETATM    8  N   UNL     1      41.047 -14.290  -0.541  1.00  0.00    -0.041 NA
HETATM    9  C   UNL     1      40.928 -15.716   2.735  1.00  0.00     0.202 C 
HETATM   10  C   UNL     1      42.133 -16.646   2.618  1.00  0.00     0.062 C 
HETATM   11  H   UNL     1      43.368 -15.605  -0.232  1.00  0.00     0.184 HD
ENDROOT
BRANCH  10  12
HETATM   12  C   UNL     1      42.188 -17.836   3.524  1.00  0.00     0.256 C 
HETATM   13  N   UNL     1      43.428 -18.428   3.629  1.00  0.00    -0.323 N 
HETATM   14  H   UNL     1      44.170 -18.105   3.023  1.00  0.00     0.169 HD
HETATM   15  O   UNL     1      41.180 -18.160   4.144  1.00  0.00    -0.267 OA
BRANCH  13  16
HETATM   16  C   UNL     1      43.809 -19.457   4.519  1.00  0.00     0.035 A 
HETATM   17  C   UNL     1      44.525 -20.596   4.144  1.00  0.00     0.029 A 
HETATM   18  C   UNL     1      44.843 -21.578   5.088  1.00  0.00     0.002 A 
HETATM   19  C   UNL     1      44.440 -21.436   6.412  1.00  0.00     0.000 A 
HETATM   20  C   UNL     1      43.726 -20.304   6.798  1.00  0.00     0.002 A 
HETATM   21  C   UNL     1      43.419 -19.317   5.858  1.00  0.00     0.029 A 
ENDBRANCH  13  16
ENDBRANCH  10  12
BRANCH   9  22
HETATM   22  C   UNL     1      41.070 -14.666   3.839  1.00  0.00    -0.028 A 
HETATM   23  C   UNL     1      40.021 -14.478   4.760  1.00  0.00     0.012 A 
HETATM   24  C   UNL     1      40.126 -13.523   5.776  1.00  0.00     0.037 A 
HETATM   25  C   UNL     1      41.276 -12.749   5.875  1.00  0.00     0.065 A 
HETATM   26  C   UNL     1      42.318 -12.907   4.971  1.00  0.00     0.037 A 
HETATM   27  C   UNL     1      42.213 -13.853   3.951  1.00  0.00     0.012 A 
BRANCH  25  28
HETATM   28  O   UNL     1      41.419 -11.806   6.848  1.00  0.00    -0.361 OA
HETATM   29  H   UNL     1      41.816 -12.220   7.632  1.00  0.00     0.217 HD
ENDBRANCH  25  28
ENDBRANCH   9  22
BRANCH   7  30
HETATM   30  C   UNL     1      38.762 -13.360  -0.937  1.00  0.00     0.036 A 
HETATM   31  C   UNL     1      38.485 -13.716  -2.266  1.00  0.00     0.048 A 
HETATM   32 CL   UNL     1      39.246 -15.046  -3.073  1.00  0.00    -0.083 Cl
HETATM   33  C   UNL     1      37.513 -13.017  -2.995  1.00  0.00     0.025 A 
HETATM   34  C   UNL     1      36.808 -11.965  -2.411  1.00  0.00     0.002 A 
HETATM   35  C   UNL     1      37.067 -11.608  -1.092  1.00  0.00     0.001 A 
HETATM   36  C   UNL     1      38.034 -12.301  -0.361  1.00  0.00     0.017 A 
ENDBRANCH   7  30
TORSDOF 5
ENDMDL
