MODEL 1
REMARK VINA RESULT:      -8.3      0.000      0.000
REMARK  8 active torsions:
REMARK  status: ('A' for Active; 'I' for Inactive)
REMARK    1  A    between atoms: C_2  and  C_3 
REMARK    2  A    between atoms: C_3  and  C_4 
REMARK    3  A    between atoms: C_7  and  C_8 
REMARK    4  A    between atoms: C_8  and  N_9 
REMARK    5  A    between atoms: C_8  and  C_26 
REMARK    6  A    between atoms: N_9  and  C_12 
REMARK    7  A    between atoms: C_12  and  C_13 
REMARK       I    between atoms: C_13  and  N_14 
REMARK    8  A    between atoms: N_14  and  C_15 
ROOT
HETATM    1  N   UNL     1      41.860 -13.788   1.376  1.00  0.00    -0.054 N 
HETATM    2  H   UNL     1      42.813 -13.964   1.720  1.00  0.00     0.278 HD
HETATM    3  H   UNL     1      41.975 -12.990   0.736  1.00  0.00     0.278 HD
ENDROOT
BRANCH   1   4
HETATM    4  C   UNL     1      41.405 -14.985   0.604  1.00  0.00     0.259 C 
BRANCH   4   5
HETATM    5  C   UNL     1      42.140 -16.236   1.064  1.00  0.00    -0.023 A 
HETATM    6  C   UNL     1      41.404 -17.401   1.347  1.00  0.00     0.010 A 
HETATM    7  C   UNL     1      42.036 -18.552   1.819  1.00  0.00     0.007 A 
HETATM    8  C   UNL     1      43.418 -18.569   2.030  1.00  0.00    -0.058 A 
HETATM    9  C   UNL     1      44.161 -17.418   1.748  1.00  0.00     0.007 A 
HETATM   10  C   UNL     1      43.530 -16.264   1.276  1.00  0.00     0.010 A 
BRANCH   8  11
HETATM   11  C   UNL     1      44.103 -19.824   2.518  1.00  0.00     0.038 C 
BRANCH  11  12
HETATM   12  C   UNL     1      43.573 -21.070   1.806  1.00  0.00     0.000 C 
HETATM   13  C   UNL     1      44.452 -22.280   2.079  1.00  0.00     0.005 C 
ENDBRANCH  11  12
ENDBRANCH   8  11
ENDBRANCH   4   5
BRANCH   4  14
HETATM   14  C   UNL     1      41.338 -14.752  -0.895  1.00  0.00     0.017 A 
HETATM   15  S   UNL     1      41.699 -13.182  -1.524  1.00  0.00    -0.104 SA
HETATM   16  C   UNL     1      41.391 -13.669  -3.129  1.00  0.00     0.050 A 
HETATM   17  C   UNL     1      40.982 -14.980  -3.200  1.00  0.00     0.008 A 
HETATM   18  C   UNL     1      40.929 -15.596  -1.915  1.00  0.00     0.017 A 
ENDBRANCH   4  14
ENDBRANCH   1   4
BRANCH   1  19
HETATM   19  C   UNL     1      41.040 -13.312   2.545  1.00  0.00     0.336 C 
BRANCH  19  20
HETATM   20  C   UNL     1      41.140 -14.329   3.684  1.00  0.00     0.248 C 
HETATM   21  N   UNL     1      42.422 -14.533   4.154  1.00  0.00    -0.326 N 
HETATM   22  H   UNL     1      43.172 -13.960   3.783  1.00  0.00     0.169 HD
HETATM   23  O   UNL     1      40.102 -14.860   4.076  1.00  0.00    -0.271 OA
BRANCH  21  24
HETATM   24  C   UNL     1      42.824 -15.463   5.143  1.00  0.00     0.037 A 
HETATM   25  C   UNL     1      42.611 -16.845   5.041  1.00  0.00     0.061 A 
HETATM   26  C   UNL     1      43.081 -17.629   6.071  1.00  0.00     0.065 A 
HETATM   27  C   UNL     1      43.736 -17.098   7.179  1.00  0.00     0.063 A 
HETATM   28  N   UNL     1      43.025 -19.009   6.230  1.00  0.00    -0.306 N 
HETATM   29  N   UNL     1      44.082 -18.148   8.019  1.00  0.00    -0.307 N 
HETATM   30  C   UNL     1      43.958 -15.752   7.315  1.00  0.00     0.034 A 
HETATM   31  C   UNL     1      43.646 -19.350   7.441  1.00  0.00     0.325 A 
HETATM   32  H   UNL     1      44.568 -18.101   8.900  1.00  0.00     0.170 HD
HETATM   33  O   UNL     1      43.783 -20.469   7.897  1.00  0.00    -0.247 OA
HETATM   34  C   UNL     1      43.495 -14.930   6.278  1.00  0.00     0.032 A 
HETATM   35  H   UNL     1      42.621 -19.688   5.606  1.00  0.00     0.170 HD
ENDBRANCH  21  24
ENDBRANCH  19  20
ENDBRANCH   1  19
TORSDOF 8
ENDMDL
MODEL 2
REMARK VINA RESULT:      -7.9      2.992      6.985
REMARK  8 active torsions:
REMARK  status: ('A' for Active; 'I' for Inactive)
REMARK    1  A    between atoms: C_2  and  C_3 
REMARK    2  A    between atoms: C_3  and  C_4 
REMARK    3  A    between atoms: C_7  and  C_8 
REMARK    4  A    between atoms: C_8  and  N_9 
REMARK    5  A    between atoms: C_8  and  C_26 
REMARK    6  A    between atoms: N_9  and  C_12 
REMARK    7  A    between atoms: C_12  and  C_13 
REMARK       I    between atoms: C_13  and  N_14 
REMARK    8  A    between atoms: N_14  and  C_15 
ROOT
HETATM    1  N   UNL     1      40.869 -15.451   5.652  1.00  0.00    -0.054 N 
HETATM    2  H   UNL     1      40.584 -16.374   5.296  1.00  0.00     0.278 HD
HETATM    3  H   UNL     1      40.968 -15.601   6.665  1.00  0.00     0.278 HD
ENDROOT
BRANCH   1   4
HETATM    4  C   UNL     1      42.200 -15.106   5.066  1.00  0.00     0.259 C 
BRANCH   4   5
HETATM    5  C   UNL     1      42.759 -16.276   4.268  1.00  0.00    -0.023 A 
HETATM    6  C   UNL     1      43.390 -16.027   3.035  1.00  0.00     0.010 A 
HETATM    7  C   UNL     1      43.870 -17.077   2.250  1.00  0.00     0.007 A 
HETATM    8  C   UNL     1      43.725 -18.402   2.670  1.00  0.00    -0.058 A 
HETATM    9  C   UNL     1      43.103 -18.661   3.896  1.00  0.00     0.007 A 
HETATM   10  C   UNL     1      42.621 -17.612   4.682  1.00  0.00     0.010 A 
BRANCH   8  11
HETATM   11  C   UNL     1      44.267 -19.535   1.831  1.00  0.00     0.038 C 
BRANCH  11  12
HETATM   12  C   UNL     1      43.395 -20.787   1.940  1.00  0.00     0.000 C 
HETATM   13  C   UNL     1      44.182 -22.043   1.602  1.00  0.00     0.005 C 
ENDBRANCH  11  12
ENDBRANCH   8  11
ENDBRANCH   4   5
BRANCH   4  14
HETATM   14  C   UNL     1      43.146 -14.447   6.054  1.00  0.00     0.017 A 
HETATM   15  S   UNL     1      42.847 -12.820   6.556  1.00  0.00    -0.104 SA
HETATM   16  C   UNL     1      44.240 -12.786   7.541  1.00  0.00     0.050 A 
HETATM   17  C   UNL     1      44.949 -13.962   7.469  1.00  0.00     0.008 A 
HETATM   18  C   UNL     1      44.335 -14.907   6.597  1.00  0.00     0.017 A 
ENDBRANCH   4  14
ENDBRANCH   1   4
BRANCH   1  19
HETATM   19  C   UNL     1      39.710 -14.512   5.449  1.00  0.00     0.336 C 
BRANCH  19  20
HETATM   20  C   UNL     1      39.751 -13.956   4.024  1.00  0.00     0.248 C 
HETATM   21  N   UNL     1      39.481 -14.885   3.041  1.00  0.00    -0.326 N 
HETATM   22  H   UNL     1      39.205 -15.821   3.319  1.00  0.00     0.169 HD
HETATM   23  O   UNL     1      40.010 -12.762   3.879  1.00  0.00    -0.271 OA
BRANCH  21  24
HETATM   24  C   UNL     1      39.521 -14.676   1.641  1.00  0.00     0.037 A 
HETATM   25  C   UNL     1      40.626 -14.996   0.840  1.00  0.00     0.061 A 
HETATM   26  C   UNL     1      40.511 -14.759  -0.511  1.00  0.00     0.065 A 
HETATM   27  C   UNL     1      39.361 -14.221  -1.083  1.00  0.00     0.063 A 
HETATM   28  N   UNL     1      41.426 -14.988  -1.533  1.00  0.00    -0.306 N 
HETATM   29  N   UNL     1      39.568 -14.117  -2.452  1.00  0.00    -0.307 N 
HETATM   30  C   UNL     1      38.263 -13.891  -0.331  1.00  0.00     0.034 A 
HETATM   31  C   UNL     1      40.853 -14.594  -2.750  1.00  0.00     0.325 A 
HETATM   32  H   UNL     1      38.929 -13.769  -3.149  1.00  0.00     0.170 HD
HETATM   33  O   UNL     1      41.369 -14.657  -3.850  1.00  0.00    -0.247 OA
HETATM   34  C   UNL     1      38.351 -14.127   1.048  1.00  0.00     0.032 A 
HETATM   35  H   UNL     1      42.353 -15.375  -1.458  1.00  0.00     0.170 HD
ENDBRANCH  21  24
ENDBRANCH  19  20
ENDBRANCH   1  19
TORSDOF 8
ENDMDL
MODEL 3
REMARK VINA RESULT:      -7.8      5.406      7.269
REMARK  8 active torsions:
REMARK  status: ('A' for Active; 'I' for Inactive)
REMARK    1  A    between atoms: C_2  and  C_3 
REMARK    2  A    between atoms: C_3  and  C_4 
REMARK    3  A    between atoms: C_7  and  C_8 
REMARK    4  A    between atoms: C_8  and  N_9 
REMARK    5  A    between atoms: C_8  and  C_26 
REMARK    6  A    between atoms: N_9  and  C_12 
REMARK    7  A    between atoms: C_12  and  C_13 
REMARK       I    between atoms: C_13  and  N_14 
REMARK    8  A    between atoms: N_14  and  C_15 
ROOT
HETATM    1  N   UNL     1      44.202 -14.937   7.350  1.00  0.00    -0.054 N 
HETATM    2  H   UNL     1      43.789 -14.957   8.292  1.00  0.00     0.278 HD
HETATM    3  H   UNL     1      44.967 -15.622   7.404  1.00  0.00     0.278 HD
ENDROOT
BRANCH   1   4
HETATM    4  C   UNL     1      43.174 -15.410   6.373  1.00  0.00     0.259 C 
BRANCH   4   5
HETATM    5  C   UNL     1      43.565 -16.761   5.789  1.00  0.00    -0.023 A 
HETATM    6  C   UNL     1      44.658 -17.455   6.338  1.00  0.00     0.010 A 
HETATM    7  C   UNL     1      45.079 -18.672   5.798  1.00  0.00     0.007 A 
HETATM    8  C   UNL     1      44.427 -19.223   4.692  1.00  0.00    -0.058 A 
HETATM    9  C   UNL     1      43.336 -18.543   4.140  1.00  0.00     0.007 A 
HETATM   10  C   UNL     1      42.914 -17.325   4.678  1.00  0.00     0.010 A 
BRANCH   8  11
HETATM   11  C   UNL     1      44.869 -20.551   4.125  1.00  0.00     0.038 C 
BRANCH  11  12
HETATM   12  C   UNL     1      44.767 -20.576   2.599  1.00  0.00     0.000 C 
HETATM   13  C   UNL     1      43.996 -21.794   2.114  1.00  0.00     0.005 C 
ENDBRANCH  11  12
ENDBRANCH   8  11
ENDBRANCH   4   5
BRANCH   4  14
HETATM   14  C   UNL     1      42.743 -14.344   5.381  1.00  0.00     0.017 A 
HETATM   15  S   UNL     1      41.260 -13.495   5.643  1.00  0.00    -0.104 SA
HETATM   16  C   UNL     1      41.438 -12.584   4.212  1.00  0.00     0.050 A 
HETATM   17  C   UNL     1      42.573 -12.933   3.518  1.00  0.00     0.008 A 
HETATM   18  C   UNL     1      43.310 -13.960   4.176  1.00  0.00     0.017 A 
ENDBRANCH   4  14
ENDBRANCH   1   4
BRANCH   1  19
HETATM   19  C   UNL     1      44.826 -13.580   7.160  1.00  0.00     0.336 C 
BRANCH  19  20
HETATM   20  C   UNL     1      44.731 -12.790   8.467  1.00  0.00     0.248 C 
HETATM   21  N   UNL     1      43.591 -12.021   8.587  1.00  0.00    -0.326 N 
HETATM   22  H   UNL     1      42.881 -12.089   7.866  1.00  0.00     0.169 HD
HETATM   23  O   UNL     1      45.649 -12.904   9.278  1.00  0.00    -0.271 OA
BRANCH  21  24
HETATM   24  C   UNL     1      43.273 -11.135   9.645  1.00  0.00     0.037 A 
HETATM   25  C   UNL     1      42.123 -10.334   9.667  1.00  0.00     0.061 A 
HETATM   26  C   UNL     1      41.934  -9.539  10.775  1.00  0.00     0.065 A 
HETATM   27  C   UNL     1      42.832  -9.508  11.838  1.00  0.00     0.063 A 
HETATM   28  N   UNL     1      40.892  -8.666  11.071  1.00  0.00    -0.306 N 
HETATM   29  N   UNL     1      42.347  -8.618  12.786  1.00  0.00    -0.307 N 
HETATM   30  C   UNL     1      43.969 -10.274  11.850  1.00  0.00     0.034 A 
HETATM   31  C   UNL     1      41.134  -8.084  12.324  1.00  0.00     0.325 A 
HETATM   32  H   UNL     1      42.759  -8.372  13.672  1.00  0.00     0.170 HD
HETATM   33  O   UNL     1      40.429  -7.276  12.898  1.00  0.00    -0.247 OA
HETATM   34  C   UNL     1      44.184 -11.097  10.735  1.00  0.00     0.032 A 
HETATM   35  H   UNL     1      40.081  -8.459  10.513  1.00  0.00     0.170 HD
ENDBRANCH  21  24
ENDBRANCH  19  20
ENDBRANCH   1  19
TORSDOF 8
ENDMDL
MODEL 4
REMARK VINA RESULT:      -7.7      2.933      6.736
REMARK  8 active torsions:
REMARK  status: ('A' for Active; 'I' for Inactive)
REMARK    1  A    between atoms: C_2  and  C_3 
REMARK    2  A    between atoms: C_3  and  C_4 
REMARK    3  A    between atoms: C_7  and  C_8 
REMARK    4  A    between atoms: C_8  and  N_9 
REMARK    5  A    between atoms: C_8  and  C_26 
REMARK    6  A    between atoms: N_9  and  C_12 
REMARK    7  A    between atoms: C_12  and  C_13 
REMARK       I    between atoms: C_13  and  N_14 
REMARK    8  A    between atoms: N_14  and  C_15 
ROOT
HETATM    1  N   UNL     1      43.357 -18.560   5.425  1.00  0.00    -0.054 N 
HETATM    2  H   UNL     1      42.404 -18.219   5.239  1.00  0.00     0.278 HD
HETATM    3  H   UNL     1      43.205 -19.438   5.940  1.00  0.00     0.278 HD
ENDROOT
BRANCH   1   4
HETATM    4  C   UNL     1      44.017 -18.857   4.117  1.00  0.00     0.259 C 
BRANCH   4   5
HETATM    5  C   UNL     1      43.341 -18.097   2.985  1.00  0.00    -0.023 A 
HETATM    6  C   UNL     1      41.944 -18.186   2.837  1.00  0.00     0.010 A 
HETATM    7  C   UNL     1      41.292 -17.545   1.782  1.00  0.00     0.007 A 
HETATM    8  C   UNL     1      42.017 -16.807   0.841  1.00  0.00    -0.058 A 
HETATM    9  C   UNL     1      43.405 -16.709   0.981  1.00  0.00     0.007 A 
HETATM   10  C   UNL     1      44.060 -17.350   2.036  1.00  0.00     0.010 A 
BRANCH   8  11
HETATM   11  C   UNL     1      41.307 -16.095  -0.285  1.00  0.00     0.038 C 
BRANCH  11  12
HETATM   12  C   UNL     1      41.553 -14.586  -0.244  1.00  0.00     0.000 C 
HETATM   13  C   UNL     1      40.245 -13.811  -0.246  1.00  0.00     0.005 C 
ENDBRANCH  11  12
ENDBRANCH   8  11
ENDBRANCH   4   5
BRANCH   4  14
HETATM   14  C   UNL     1      44.266 -20.337   3.885  1.00  0.00     0.017 A 
HETATM   15  S   UNL     1      44.602 -21.361   5.236  1.00  0.00    -0.104 SA
HETATM   16  C   UNL     1      44.792 -22.737   4.246  1.00  0.00     0.050 A 
HETATM   17  C   UNL     1      44.647 -22.434   2.912  1.00  0.00     0.008 A 
HETATM   18  C   UNL     1      44.369 -21.052   2.702  1.00  0.00     0.017 A 
ENDBRANCH   4  14
ENDBRANCH   1   4
BRANCH   1  19
HETATM   19  C   UNL     1      44.007 -17.589   6.373  1.00  0.00     0.336 C 
BRANCH  19  20
HETATM   20  C   UNL     1      43.525 -16.171   6.059  1.00  0.00     0.248 C 
HETATM   21  N   UNL     1      42.283 -16.110   5.462  1.00  0.00    -0.326 N 
HETATM   22  H   UNL     1      41.755 -16.970   5.349  1.00  0.00     0.169 HD
HETATM   23  O   UNL     1      44.262 -15.233   6.357  1.00  0.00    -0.271 OA
BRANCH  21  24
HETATM   24  C   UNL     1      41.622 -14.949   4.994  1.00  0.00     0.037 A 
HETATM   25  C   UNL     1      40.571 -14.325   5.679  1.00  0.00     0.061 A 
HETATM   26  C   UNL     1      40.041 -13.187   5.113  1.00  0.00     0.065 A 
HETATM   27  C   UNL     1      40.508 -12.660   3.911  1.00  0.00     0.063 A 
HETATM   28  N   UNL     1      39.017 -12.364   5.569  1.00  0.00    -0.306 N 
HETATM   29  N   UNL     1      39.772 -11.517   3.627  1.00  0.00    -0.307 N 
HETATM   30  C   UNL     1      41.531 -13.246   3.211  1.00  0.00     0.034 A 
HETATM   31  C   UNL     1      38.837 -11.317   4.654  1.00  0.00     0.325 A 
HETATM   32  H   UNL     1      39.864 -10.904   2.834  1.00  0.00     0.170 HD
HETATM   33  O   UNL     1      38.030 -10.410   4.737  1.00  0.00    -0.247 OA
HETATM   34  C   UNL     1      42.091 -14.404   3.767  1.00  0.00     0.032 A 
HETATM   35  H   UNL     1      38.473 -12.462   6.410  1.00  0.00     0.170 HD
ENDBRANCH  21  24
ENDBRANCH  19  20
ENDBRANCH   1  19
TORSDOF 8
ENDMDL
MODEL 5
REMARK VINA RESULT:      -7.6      2.732      5.242
REMARK  8 active torsions:
REMARK  status: ('A' for Active; 'I' for Inactive)
REMARK    1  A    between atoms: C_2  and  C_3 
REMARK    2  A    between atoms: C_3  and  C_4 
REMARK    3  A    between atoms: C_7  and  C_8 
REMARK    4  A    between atoms: C_8  and  N_9 
REMARK    5  A    between atoms: C_8  and  C_26 
REMARK    6  A    between atoms: N_9  and  C_12 
REMARK    7  A    between atoms: C_12  and  C_13 
REMARK       I    between atoms: C_13  and  N_14 
REMARK    8  A    between atoms: N_14  and  C_15 
ROOT
HETATM    1  N   UNL     1      39.702 -14.018   2.102  1.00  0.00    -0.054 N 
HETATM    2  H   UNL     1      39.306 -14.622   2.836  1.00  0.00     0.278 HD
HETATM    3  H   UNL     1      38.875 -13.590   1.665  1.00  0.00     0.278 HD
ENDROOT
BRANCH   1   4
HETATM    4  C   UNL     1      40.527 -12.956   2.757  1.00  0.00     0.259 C 
BRANCH   4   5
HETATM    5  C   UNL     1      41.463 -13.561   3.794  1.00  0.00    -0.023 A 
HETATM    6  C   UNL     1      40.919 -14.284   4.871  1.00  0.00     0.010 A 
HETATM    7  C   UNL     1      41.741 -14.811   5.870  1.00  0.00     0.007 A 
HETATM    8  C   UNL     1      43.125 -14.621   5.824  1.00  0.00    -0.058 A 
HETATM    9  C   UNL     1      43.677 -13.907   4.755  1.00  0.00     0.007 A 
HETATM   10  C   UNL     1      42.856 -13.379   3.756  1.00  0.00     0.010 A 
BRANCH   8  11
HETATM   11  C   UNL     1      44.014 -15.212   6.892  1.00  0.00     0.038 C 
BRANCH  11  12
HETATM   12  C   UNL     1      43.823 -16.725   7.013  1.00  0.00     0.000 C 
HETATM   13  C   UNL     1      43.425 -17.124   8.425  1.00  0.00     0.005 C 
ENDBRANCH  11  12
ENDBRANCH   8  11
ENDBRANCH   4   5
BRANCH   4  14
HETATM   14  C   UNL     1      39.720 -11.747   3.198  1.00  0.00     0.017 A 
HETATM   15  S   UNL     1      40.424 -10.617   4.300  1.00  0.00    -0.104 SA
HETATM   16  C   UNL     1      39.014  -9.657   4.338  1.00  0.00     0.050 A 
HETATM   17  C   UNL     1      38.008 -10.191   3.568  1.00  0.00     0.008 A 
HETATM   18  C   UNL     1      38.404 -11.404   2.932  1.00  0.00     0.017 A 
ENDBRANCH   4  14
ENDBRANCH   1   4
BRANCH   1  19
HETATM   19  C   UNL     1      40.340 -14.915   1.076  1.00  0.00     0.336 C 
BRANCH  19  20
HETATM   20  C   UNL     1      40.738 -16.238   1.734  1.00  0.00     0.248 C 
HETATM   21  N   UNL     1      42.099 -16.446   1.818  1.00  0.00    -0.326 N 
HETATM   22  H   UNL     1      42.723 -15.703   1.524  1.00  0.00     0.169 HD
HETATM   23  O   UNL     1      39.838 -16.982   2.122  1.00  0.00    -0.271 OA
BRANCH  21  24
HETATM   24  C   UNL     1      42.752 -17.604   2.305  1.00  0.00     0.037 A 
HETATM   25  C   UNL     1      42.744 -18.837   1.639  1.00  0.00     0.061 A 
HETATM   26  C   UNL     1      43.444 -19.870   2.223  1.00  0.00     0.065 A 
HETATM   27  C   UNL     1      44.134 -19.723   3.423  1.00  0.00     0.063 A 
HETATM   28  N   UNL     1      43.621 -21.179   1.787  1.00  0.00    -0.306 N 
HETATM   29  N   UNL     1      44.732 -20.939   3.727  1.00  0.00    -0.307 N 
HETATM   30  C   UNL     1      44.160 -18.534   4.105  1.00  0.00     0.034 A 
HETATM   31  C   UNL     1      44.423 -21.859   2.714  1.00  0.00     0.325 A 
HETATM   32  H   UNL     1      45.304 -21.165   4.525  1.00  0.00     0.170 HD
HETATM   33  O   UNL     1      44.782 -23.019   2.650  1.00  0.00    -0.247 OA
HETATM   34  C   UNL     1      43.459 -17.465   3.531  1.00  0.00     0.032 A 
HETATM   35  H   UNL     1      43.257 -21.607   0.952  1.00  0.00     0.170 HD
ENDBRANCH  21  24
ENDBRANCH  19  20
ENDBRANCH   1  19
TORSDOF 8
ENDMDL
MODEL 6
REMARK VINA RESULT:      -7.6      3.066      6.703
REMARK  8 active torsions:
REMARK  status: ('A' for Active; 'I' for Inactive)
REMARK    1  A    between atoms: C_2  and  C_3 
REMARK    2  A    between atoms: C_3  and  C_4 
REMARK    3  A    between atoms: C_7  and  C_8 
REMARK    4  A    between atoms: C_8  and  N_9 
REMARK    5  A    between atoms: C_8  and  C_26 
REMARK    6  A    between atoms: N_9  and  C_12 
REMARK    7  A    between atoms: C_12  and  C_13 
REMARK       I    between atoms: C_13  and  N_14 
REMARK    8  A    between atoms: N_14  and  C_15 
ROOT
HETATM    1  N   UNL     1      43.402 -18.191   5.132  1.00  0.00    -0.054 N 
HETATM    2  H   UNL     1      42.438 -17.858   5.273  1.00  0.00     0.278 HD
HETATM    3  H   UNL     1      43.393 -19.138   5.534  1.00  0.00     0.278 HD
ENDROOT
BRANCH   1   4
HETATM    4  C   UNL     1      43.665 -18.273   3.663  1.00  0.00     0.259 C 
BRANCH   4   5
HETATM    5  C   UNL     1      42.692 -17.395   2.889  1.00  0.00    -0.023 A 
HETATM    6  C   UNL     1      43.196 -16.359   2.081  1.00  0.00     0.010 A 
HETATM    7  C   UNL     1      42.334 -15.500   1.396  1.00  0.00     0.007 A 
HETATM    8  C   UNL     1      40.948 -15.647   1.506  1.00  0.00    -0.058 A 
HETATM    9  C   UNL     1      40.437 -16.676   2.303  1.00  0.00     0.007 A 
HETATM   10  C   UNL     1      41.297 -17.536   2.990  1.00  0.00     0.010 A 
BRANCH   8  11
HETATM   11  C   UNL     1      40.019 -14.732   0.744  1.00  0.00     0.038 C 
BRANCH  11  12
HETATM   12  C   UNL     1      38.682 -14.556   1.467  1.00  0.00     0.000 C 
HETATM   13  C   UNL     1      37.615 -14.006   0.534  1.00  0.00     0.005 C 
ENDBRANCH  11  12
ENDBRANCH   8  11
ENDBRANCH   4   5
BRANCH   4  14
HETATM   14  C   UNL     1      43.843 -19.694   3.157  1.00  0.00     0.017 A 
HETATM   15  S   UNL     1      44.764 -20.817   4.096  1.00  0.00    -0.104 SA
HETATM   16  C   UNL     1      44.559 -22.063   2.948  1.00  0.00     0.050 A 
HETATM   17  C   UNL     1      43.845 -21.640   1.852  1.00  0.00     0.008 A 
HETATM   18  C   UNL     1      43.454 -20.273   1.960  1.00  0.00     0.017 A 
ENDBRANCH   4  14
ENDBRANCH   1   4
BRANCH   1  19
HETATM   19  C   UNL     1      44.300 -17.345   5.994  1.00  0.00     0.336 C 
BRANCH  19  20
HETATM   20  C   UNL     1      43.725 -15.930   6.094  1.00  0.00     0.248 C 
HETATM   21  N   UNL     1      42.509 -15.764   5.464  1.00  0.00    -0.326 N 
HETATM   22  H   UNL     1      42.054 -16.577   5.062  1.00  0.00     0.169 HD
HETATM   23  O   UNL     1      44.374 -15.086   6.710  1.00  0.00    -0.271 OA
BRANCH  21  24
HETATM   24  C   UNL     1      41.781 -14.556   5.329  1.00  0.00     0.037 A 
HETATM   25  C   UNL     1      42.294 -13.406   4.714  1.00  0.00     0.061 A 
HETATM   26  C   UNL     1      41.461 -12.313   4.634  1.00  0.00     0.065 A 
HETATM   27  C   UNL     1      40.163 -12.321   5.138  1.00  0.00     0.063 A 
HETATM   28  N   UNL     1      41.693 -11.061   4.074  1.00  0.00    -0.306 N 
HETATM   29  N   UNL     1      39.597 -11.077   4.891  1.00  0.00    -0.307 N 
HETATM   30  C   UNL     1      39.629 -13.426   5.750  1.00  0.00     0.034 A 
HETATM   31  C   UNL     1      40.539 -10.278   4.225  1.00  0.00     0.325 A 
HETATM   32  H   UNL     1      38.670 -10.762   5.127  1.00  0.00     0.170 HD
HETATM   33  O   UNL     1      40.385  -9.132   3.849  1.00  0.00    -0.247 OA
HETATM   34  C   UNL     1      40.455 -14.555   5.841  1.00  0.00     0.032 A 
HETATM   35  H   UNL     1      42.529 -10.731   3.623  1.00  0.00     0.170 HD
ENDBRANCH  21  24
ENDBRANCH  19  20
ENDBRANCH   1  19
TORSDOF 8
ENDMDL
MODEL 7
REMARK VINA RESULT:      -7.5      2.578      4.658
REMARK  8 active torsions:
REMARK  status: ('A' for Active; 'I' for Inactive)
REMARK    1  A    between atoms: C_2  and  C_3 
REMARK    2  A    between atoms: C_3  and  C_4 
REMARK    3  A    between atoms: C_7  and  C_8 
REMARK    4  A    between atoms: C_8  and  N_9 
REMARK    5  A    between atoms: C_8  and  C_26 
REMARK    6  A    between atoms: N_9  and  C_12 
REMARK    7  A    between atoms: C_12  and  C_13 
REMARK       I    between atoms: C_13  and  N_14 
REMARK    8  A    between atoms: N_14  and  C_15 
ROOT
HETATM    1  N   UNL     1      40.085 -15.098   0.266  1.00  0.00    -0.054 N 
HETATM    2  H   UNL     1      39.512 -15.676   0.896  1.00  0.00     0.278 HD
HETATM    3  H   UNL     1      39.559 -15.106  -0.619  1.00  0.00     0.278 HD
ENDROOT
BRANCH   1   4
HETATM    4  C   UNL     1      40.128 -13.706   0.808  1.00  0.00     0.259 C 
BRANCH   4   5
HETATM    5  C   UNL     1      40.779 -13.681   2.184  1.00  0.00    -0.023 A 
HETATM    6  C   UNL     1      42.040 -13.077   2.337  1.00  0.00     0.010 A 
HETATM    7  C   UNL     1      42.692 -13.079   3.571  1.00  0.00     0.007 A 
HETATM    8  C   UNL     1      42.107 -13.692   4.683  1.00  0.00    -0.058 A 
HETATM    9  C   UNL     1      40.852 -14.293   4.544  1.00  0.00     0.007 A 
HETATM   10  C   UNL     1      40.198 -14.293   3.309  1.00  0.00     0.010 A 
BRANCH   8  11
HETATM   11  C   UNL     1      42.804 -13.672   6.023  1.00  0.00     0.038 C 
BRANCH  11  12
HETATM   12  C   UNL     1      44.152 -14.394   5.970  1.00  0.00     0.000 C 
HETATM   13  C   UNL     1      44.342 -15.301   7.175  1.00  0.00     0.005 C 
ENDBRANCH  11  12
ENDBRANCH   8  11
ENDBRANCH   4   5
BRANCH   4  14
HETATM   14  C   UNL     1      38.814 -12.959   0.668  1.00  0.00     0.017 A 
HETATM   15  S   UNL     1      38.689 -11.345   1.275  1.00  0.00    -0.104 SA
HETATM   16  C   UNL     1      37.049 -11.219   0.823  1.00  0.00     0.050 A 
HETATM   17  C   UNL     1      36.579 -12.382   0.260  1.00  0.00     0.008 A 
HETATM   18  C   UNL     1      37.586 -13.390   0.193  1.00  0.00     0.017 A 
ENDBRANCH   4  14
ENDBRANCH   1   4
BRANCH   1  19
HETATM   19  C   UNL     1      41.376 -15.834   0.028  1.00  0.00     0.336 C 
BRANCH  19  20
HETATM   20  C   UNL     1      41.525 -16.948   1.066  1.00  0.00     0.248 C 
HETATM   21  N   UNL     1      42.684 -16.881   1.812  1.00  0.00    -0.326 N 
HETATM   22  H   UNL     1      43.299 -16.085   1.684  1.00  0.00     0.169 HD
HETATM   23  O   UNL     1      40.626 -17.783   1.149  1.00  0.00    -0.271 OA
BRANCH  21  24
HETATM   24  C   UNL     1      43.122 -17.812   2.785  1.00  0.00     0.037 A 
HETATM   25  C   UNL     1      43.739 -19.030   2.471  1.00  0.00     0.061 A 
HETATM   26  C   UNL     1      44.134 -19.823   3.526  1.00  0.00     0.065 A 
HETATM   27  C   UNL     1      43.937 -19.457   4.854  1.00  0.00     0.063 A 
HETATM   28  N   UNL     1      44.773 -21.058   3.515  1.00  0.00    -0.306 N 
HETATM   29  N   UNL     1      44.451 -20.464   5.660  1.00  0.00    -0.307 N 
HETATM   30  C   UNL     1      43.333 -18.275   5.199  1.00  0.00     0.034 A 
HETATM   31  C   UNL     1      44.979 -21.472   4.839  1.00  0.00     0.325 A 
HETATM   32  H   UNL     1      44.468 -20.503   6.666  1.00  0.00     0.170 HD
HETATM   33  O   UNL     1      45.514 -22.502   5.203  1.00  0.00    -0.247 OA
HETATM   34  C   UNL     1      42.925 -17.446   4.145  1.00  0.00     0.032 A 
HETATM   35  H   UNL     1      45.062 -21.598   2.716  1.00  0.00     0.170 HD
ENDBRANCH  21  24
ENDBRANCH  19  20
ENDBRANCH   1  19
TORSDOF 8
ENDMDL
MODEL 8
REMARK VINA RESULT:      -7.4      3.555      7.873
REMARK  8 active torsions:
REMARK  status: ('A' for Active; 'I' for Inactive)
REMARK    1  A    between atoms: C_2  and  C_3 
REMARK    2  A    between atoms: C_3  and  C_4 
REMARK    3  A    between atoms: C_7  and  C_8 
REMARK    4  A    between atoms: C_8  and  N_9 
REMARK    5  A    between atoms: C_8  and  C_26 
REMARK    6  A    between atoms: N_9  and  C_12 
REMARK    7  A    between atoms: C_12  and  C_13 
REMARK       I    between atoms: C_13  and  N_14 
REMARK    8  A    between atoms: N_14  and  C_15 
ROOT
HETATM    1  N   UNL     1      39.848 -16.242   1.964  1.00  0.00    -0.054 N 
HETATM    2  H   UNL     1      40.031 -16.689   1.055  1.00  0.00     0.278 HD
HETATM    3  H   UNL     1      39.377 -16.977   2.507  1.00  0.00     0.278 HD
ENDROOT
BRANCH   1   4
HETATM    4  C   UNL     1      41.159 -15.910   2.601  1.00  0.00     0.259 C 
BRANCH   4   5
HETATM    5  C   UNL     1      42.019 -17.157   2.749  1.00  0.00    -0.023 A 
HETATM    6  C   UNL     1      42.740 -17.356   3.941  1.00  0.00     0.010 A 
HETATM    7  C   UNL     1      43.579 -18.461   4.096  1.00  0.00     0.007 A 
HETATM    8  C   UNL     1      43.729 -19.390   3.063  1.00  0.00    -0.058 A 
HETATM    9  C   UNL     1      43.014 -19.204   1.875  1.00  0.00     0.007 A 
HETATM   10  C   UNL     1      42.174 -18.099   1.718  1.00  0.00     0.010 A 
BRANCH   8  11
HETATM   11  C   UNL     1      44.619 -20.597   3.241  1.00  0.00     0.038 C 
BRANCH  11  12
HETATM   12  C   UNL     1      45.026 -20.788   4.704  1.00  0.00     0.000 C 
HETATM   13  C   UNL     1      44.969 -22.252   5.109  1.00  0.00     0.005 C 
ENDBRANCH  11  12
ENDBRANCH   8  11
ENDBRANCH   4   5
BRANCH   4  14
HETATM   14  C   UNL     1      41.030 -15.027   3.830  1.00  0.00     0.017 A 
HETATM   15  S   UNL     1      42.020 -13.617   3.967  1.00  0.00    -0.104 SA
HETATM   16  C   UNL     1      41.380 -13.221   5.498  1.00  0.00     0.050 A 
HETATM   17  C   UNL     1      40.462 -14.150   5.928  1.00  0.00     0.008 A 
HETATM   18  C   UNL     1      40.279 -15.201   4.982  1.00  0.00     0.017 A 
ENDBRANCH   4  14
ENDBRANCH   1   4
BRANCH   1  19
HETATM   19  C   UNL     1      38.845 -15.144   1.731  1.00  0.00     0.336 C 
BRANCH  19  20
HETATM   20  C   UNL     1      39.459 -14.079   0.819  1.00  0.00     0.248 C 
HETATM   21  N   UNL     1      39.772 -14.526  -0.448  1.00  0.00    -0.326 N 
HETATM   22  H   UNL     1      39.511 -15.471  -0.708  1.00  0.00     0.169 HD
HETATM   23  O   UNL     1      39.614 -12.948   1.277  1.00  0.00    -0.271 OA
BRANCH  21  24
HETATM   24  C   UNL     1      40.415 -13.789  -1.473  1.00  0.00     0.037 A 
HETATM   25  C   UNL     1      39.727 -13.067  -2.457  1.00  0.00     0.061 A 
HETATM   26  C   UNL     1      40.488 -12.378  -3.375  1.00  0.00     0.065 A 
HETATM   27  C   UNL     1      41.880 -12.386  -3.353  1.00  0.00     0.063 A 
HETATM   28  N   UNL     1      40.083 -11.578  -4.438  1.00  0.00    -0.306 N 
HETATM   29  N   UNL     1      42.332 -11.594  -4.400  1.00  0.00    -0.307 N 
HETATM   30  C   UNL     1      42.586 -13.084  -2.408  1.00  0.00     0.034 A 
HETATM   31  C   UNL     1      41.223 -11.080  -5.088  1.00  0.00     0.325 A 
HETATM   32  H   UNL     1      43.285 -11.391  -4.655  1.00  0.00     0.170 HD
HETATM   33  O   UNL     1      41.243 -10.343  -6.055  1.00  0.00    -0.247 OA
HETATM   34  C   UNL     1      41.837 -13.791  -1.458  1.00  0.00     0.032 A 
HETATM   35  H   UNL     1      39.144 -11.361  -4.727  1.00  0.00     0.170 HD
ENDBRANCH  21  24
ENDBRANCH  19  20
ENDBRANCH   1  19
TORSDOF 8
ENDMDL
MODEL 9
REMARK VINA RESULT:      -7.4      2.596      5.255
REMARK  8 active torsions:
REMARK  status: ('A' for Active; 'I' for Inactive)
REMARK    1  A    between atoms: C_2  and  C_3 
REMARK    2  A    between atoms: C_3  and  C_4 
REMARK    3  A    between atoms: C_7  and  C_8 
REMARK    4  A    between atoms: C_8  and  N_9 
REMARK    5  A    between atoms: C_8  and  C_26 
REMARK    6  A    between atoms: N_9  and  C_12 
REMARK    7  A    between atoms: C_12  and  C_13 
REMARK       I    between atoms: C_13  and  N_14 
REMARK    8  A    between atoms: N_14  and  C_15 
ROOT
HETATM    1  N   UNL     1      42.925 -13.647   2.976  1.00  0.00    -0.054 N 
HETATM    2  H   UNL     1      43.325 -12.854   2.455  1.00  0.00     0.278 HD
HETATM    3  H   UNL     1      43.718 -14.295   3.079  1.00  0.00     0.278 HD
ENDROOT
BRANCH   1   4
HETATM    4  C   UNL     1      42.498 -13.161   4.324  1.00  0.00     0.259 C 
BRANCH   4   5
HETATM    5  C   UNL     1      42.701 -14.241   5.377  1.00  0.00    -0.023 A 
HETATM    6  C   UNL     1      43.910 -14.280   6.096  1.00  0.00     0.010 A 
HETATM    7  C   UNL     1      44.155 -15.285   7.034  1.00  0.00     0.007 A 
HETATM    8  C   UNL     1      43.205 -16.282   7.272  1.00  0.00    -0.058 A 
HETATM    9  C   UNL     1      41.998 -16.250   6.566  1.00  0.00     0.007 A 
HETATM   10  C   UNL     1      41.751 -15.246   5.627  1.00  0.00     0.010 A 
BRANCH   8  11
HETATM   11  C   UNL     1      43.462 -17.354   8.304  1.00  0.00     0.038 C 
BRANCH  11  12
HETATM   12  C   UNL     1      44.385 -18.448   7.765  1.00  0.00     0.000 C 
HETATM   13  C   UNL     1      43.825 -19.833   8.045  1.00  0.00     0.005 C 
ENDBRANCH  11  12
ENDBRANCH   8  11
ENDBRANCH   4   5
BRANCH   4  14
HETATM   14  C   UNL     1      41.148 -12.466   4.319  1.00  0.00     0.017 A 
HETATM   15  S   UNL     1      40.999 -10.911   3.578  1.00  0.00    -0.104 SA
HETATM   16  C   UNL     1      39.346 -10.790   3.984  1.00  0.00     0.050 A 
HETATM   17  C   UNL     1      38.912 -11.880   4.702  1.00  0.00     0.008 A 
HETATM   18  C   UNL     1      39.951 -12.831   4.915  1.00  0.00     0.017 A 
ENDBRANCH   4  14
ENDBRANCH   1   4
BRANCH   1  19
HETATM   19  C   UNL     1      41.915 -14.311   2.080  1.00  0.00     0.336 C 
BRANCH  19  20
HETATM   20  C   UNL     1      41.958 -15.825   2.299  1.00  0.00     0.248 C 
HETATM   21  N   UNL     1      43.218 -16.328   2.555  1.00  0.00    -0.326 N 
HETATM   22  H   UNL     1      43.989 -15.677   2.657  1.00  0.00     0.169 HD
HETATM   23  O   UNL     1      40.899 -16.447   2.234  1.00  0.00    -0.271 OA
BRANCH  21  24
HETATM   24  C   UNL     1      43.570 -17.689   2.721  1.00  0.00     0.037 A 
HETATM   25  C   UNL     1      44.064 -18.222   3.919  1.00  0.00     0.061 A 
HETATM   26  C   UNL     1      44.340 -19.571   3.939  1.00  0.00     0.065 A 
HETATM   27  C   UNL     1      44.151 -20.391   2.830  1.00  0.00     0.063 A 
HETATM   28  N   UNL     1      44.820 -20.362   4.977  1.00  0.00    -0.306 N 
HETATM   29  N   UNL     1      44.515 -21.684   3.183  1.00  0.00    -0.307 N 
HETATM   30  C   UNL     1      43.674 -19.905   1.640  1.00  0.00     0.034 A 
HETATM   31  C   UNL     1      44.933 -21.684   4.522  1.00  0.00     0.325 A 
HETATM   32  H   UNL     1      44.492 -22.511   2.610  1.00  0.00     0.170 HD
HETATM   33  O   UNL     1      45.317 -22.642   5.165  1.00  0.00    -0.247 OA
HETATM   34  C   UNL     1      43.380 -18.535   1.594  1.00  0.00     0.032 A 
HETATM   35  H   UNL     1      45.054 -20.078   5.914  1.00  0.00     0.170 HD
ENDBRANCH  21  24
ENDBRANCH  19  20
ENDBRANCH   1  19
TORSDOF 8
ENDMDL
MODEL 10
REMARK VINA RESULT:      -7.3      3.819      8.248
REMARK  8 active torsions:
REMARK  status: ('A' for Active; 'I' for Inactive)
REMARK    1  A    between atoms: C_2  and  C_3 
REMARK    2  A    between atoms: C_3  and  C_4 
REMARK    3  A    between atoms: C_7  and  C_8 
REMARK    4  A    between atoms: C_8  and  N_9 
REMARK    5  A    between atoms: C_8  and  C_26 
REMARK    6  A    between atoms: N_9  and  C_12 
REMARK    7  A    between atoms: C_12  and  C_13 
REMARK       I    between atoms: C_13  and  N_14 
REMARK    8  A    between atoms: N_14  and  C_15 
ROOT
HETATM    1  N   UNL     1      40.868 -15.872   1.031  1.00  0.00    -0.054 N 
HETATM    2  H   UNL     1      40.417 -16.747   1.331  1.00  0.00     0.278 HD
HETATM    3  H   UNL     1      40.138 -15.161   1.169  1.00  0.00     0.278 HD
ENDROOT
BRANCH   1   4
HETATM    4  C   UNL     1      42.017 -15.593   1.946  1.00  0.00     0.259 C 
BRANCH   4   5
HETATM    5  C   UNL     1      42.719 -16.884   2.341  1.00  0.00    -0.023 A 
HETATM    6  C   UNL     1      43.501 -17.561   1.386  1.00  0.00     0.010 A 
HETATM    7  C   UNL     1      44.120 -18.774   1.695  1.00  0.00     0.007 A 
HETATM    8  C   UNL     1      43.967 -19.348   2.960  1.00  0.00    -0.058 A 
HETATM    9  C   UNL     1      43.196 -18.682   3.918  1.00  0.00     0.007 A 
HETATM   10  C   UNL     1      42.576 -17.469   3.612  1.00  0.00     0.010 A 
BRANCH   8  11
HETATM   11  C   UNL     1      44.657 -20.648   3.299  1.00  0.00     0.038 C 
BRANCH  11  12
HETATM   12  C   UNL     1      44.895 -20.787   4.804  1.00  0.00     0.000 C 
HETATM   13  C   UNL     1      45.031 -22.245   5.212  1.00  0.00     0.005 C 
ENDBRANCH  11  12
ENDBRANCH   8  11
ENDBRANCH   4   5
BRANCH   4  14
HETATM   14  C   UNL     1      41.675 -14.637   3.075  1.00  0.00     0.017 A 
HETATM   15  S   UNL     1      42.908 -13.607   3.715  1.00  0.00    -0.104 SA
HETATM   16  C   UNL     1      41.851 -12.929   4.869  1.00  0.00     0.050 A 
HETATM   17  C   UNL     1      40.597 -13.489   4.810  1.00  0.00     0.008 A 
HETATM   18  C   UNL     1      40.502 -14.487   3.797  1.00  0.00     0.017 A 
ENDBRANCH   4  14
ENDBRANCH   1   4
BRANCH   1  19
HETATM   19  C   UNL     1      41.118 -15.979  -0.450  1.00  0.00     0.336 C 
BRANCH  19  20
HETATM   20  C   UNL     1      40.956 -14.599  -1.093  1.00  0.00     0.248 C 
HETATM   21  N   UNL     1      42.109 -14.096  -1.659  1.00  0.00    -0.326 N 
HETATM   22  H   UNL     1      42.936 -14.684  -1.682  1.00  0.00     0.169 HD
HETATM   23  O   UNL     1      39.845 -14.073  -1.055  1.00  0.00    -0.271 OA
BRANCH  21  24
HETATM   24  C   UNL     1      42.276 -12.822  -2.253  1.00  0.00     0.037 A 
HETATM   25  C   UNL     1      42.149 -12.584  -3.629  1.00  0.00     0.061 A 
HETATM   26  C   UNL     1      42.315 -11.287  -4.059  1.00  0.00     0.065 A 
HETATM   27  C   UNL     1      42.602 -10.239  -3.189  1.00  0.00     0.063 A 
HETATM   28  N   UNL     1      42.233 -10.763  -5.345  1.00  0.00    -0.306 N 
HETATM   29  N   UNL     1      42.699  -9.073  -3.936  1.00  0.00    -0.307 N 
HETATM   30  C   UNL     1      42.738 -10.434  -1.839  1.00  0.00     0.034 A 
HETATM   31  C   UNL     1      42.469  -9.382  -5.285  1.00  0.00     0.325 A 
HETATM   32  H   UNL     1      42.893  -8.141  -3.606  1.00  0.00     0.170 HD
HETATM   33  O   UNL     1      42.471  -8.604  -6.221  1.00  0.00    -0.247 OA
HETATM   34  C   UNL     1      42.570 -11.745  -1.372  1.00  0.00     0.032 A 
HETATM   35  H   UNL     1      42.036 -11.253  -6.201  1.00  0.00     0.170 HD
ENDBRANCH  21  24
ENDBRANCH  19  20
ENDBRANCH   1  19
TORSDOF 8
ENDMDL
