MODEL 1
REMARK VINA RESULT:      -9.0      0.000      0.000
REMARK  3 active torsions:
REMARK  status: ('A' for Active; 'I' for Inactive)
REMARK    1  A    between atoms: C_3  and  C_4 
REMARK       I    between atoms: C_4  and  N_5 
REMARK    2  A    between atoms: N_5  and  C_6 
REMARK    3  A    between atoms: C_13  and  C_14 
REMARK       I    between atoms: C_14  and  N_15 
ROOT
HETATM    1  C   UNL     1      44.899 -13.804   7.281  1.00  0.00     0.035 A 
HETATM    2  C   UNL     1      44.136 -13.257   8.324  1.00  0.00     0.046 A 
HETATM    3  C   UNL     1      44.658 -12.194   9.088  1.00  0.00     0.030 A 
HETATM    4  C   UNL     1      45.937 -11.734   8.809  1.00  0.00     0.063 A 
HETATM    5  N   UNL     1      46.164 -10.729   9.706  1.00  0.00    -0.277 N 
HETATM    6  H   UNL     1      47.004 -10.168   9.799  1.00  0.00     0.189 HD
HETATM    7  N   UNL     1      45.132 -10.474  10.530  1.00  0.00    -0.168 NA
HETATM    8  C   UNL     1      44.193 -11.372  10.158  1.00  0.00     0.156 A 
HETATM    9  C   UNL     1      46.731 -12.269   7.793  1.00  0.00     0.034 A 
HETATM   10  C   UNL     1      46.180 -13.308   7.027  1.00  0.00     0.032 A 
ENDROOT
BRANCH   1  11
HETATM   11  N   UNL     1      44.305 -14.843   6.541  1.00  0.00    -0.325 N 
HETATM   12  C   UNL     1      43.723 -16.006   7.017  1.00  0.00     0.252 C 
HETATM   13  O   UNL     1      43.643 -16.354   8.192  1.00  0.00    -0.270 OA
HETATM   14  H   UNL     1      44.323 -14.752   5.529  1.00  0.00     0.169 HD
BRANCH  12  15
HETATM   15  C   UNL     1      43.245 -16.931   5.893  1.00  0.00     0.229 C 
HETATM   16  C   UNL     1      44.001 -18.277   5.831  1.00  0.00     0.056 C 
HETATM   17  C   UNL     1      45.471 -18.243   6.244  1.00  0.00     0.018 C 
HETATM   18  C   UNL     1      43.873 -18.517   4.366  1.00  0.00    -0.018 A 
HETATM   19  C   UNL     1      43.518 -17.334   3.734  1.00  0.00     0.076 A 
HETATM   20  C   UNL     1      44.098 -19.669   3.632  1.00  0.00     0.010 A 
HETATM   21  O   UNL     1      43.352 -16.283   4.598  1.00  0.00    -0.335 OA
HETATM   22  C   UNL     1      43.380 -17.244   2.366  1.00  0.00     0.037 A 
HETATM   23  C   UNL     1      43.595 -18.400   1.613  1.00  0.00     0.003 A 
HETATM   24  C   UNL     1      43.952 -19.605   2.243  1.00  0.00     0.001 A 
ENDBRANCH  12  15
ENDBRANCH   1  11
BRANCH   8  25
HETATM   25  C   UNL     1      42.876 -11.421  10.807  1.00  0.00     0.270 C 
HETATM   26  N   UNL     1      42.866 -12.081  12.004  1.00  0.00    -0.365 N 
HETATM   27  H   UNL     1      43.737 -12.462  12.354  1.00  0.00     0.159 HD
HETATM   28  H   UNL     1      42.013 -12.139  12.538  1.00  0.00     0.159 HD
HETATM   29  O   UNL     1      41.857 -10.914  10.347  1.00  0.00    -0.266 OA
ENDBRANCH   8  25
TORSDOF 3
ENDMDL
MODEL 2
REMARK VINA RESULT:      -8.6      2.215      3.384
REMARK  3 active torsions:
REMARK  status: ('A' for Active; 'I' for Inactive)
REMARK    1  A    between atoms: C_3  and  C_4 
REMARK       I    between atoms: C_4  and  N_5 
REMARK    2  A    between atoms: N_5  and  C_6 
REMARK    3  A    between atoms: C_13  and  C_14 
REMARK       I    between atoms: C_14  and  N_15 
ROOT
HETATM    1  C   UNL     1      43.201 -14.641   5.666  1.00  0.00     0.035 A 
HETATM    2  C   UNL     1      44.056 -14.073   6.623  1.00  0.00     0.046 A 
HETATM    3  C   UNL     1      43.661 -12.906   7.308  1.00  0.00     0.030 A 
HETATM    4  C   UNL     1      42.441 -12.325   6.990  1.00  0.00     0.063 A 
HETATM    5  N   UNL     1      42.344 -11.224   7.794  1.00  0.00    -0.277 N 
HETATM    6  H   UNL     1      41.584 -10.554   7.828  1.00  0.00     0.189 HD
HETATM    7  N   UNL     1      43.384 -11.052   8.630  1.00  0.00    -0.168 NA
HETATM    8  C   UNL     1      44.205 -12.086   8.340  1.00  0.00     0.156 A 
HETATM    9  C   UNL     1      41.577 -12.852   6.029  1.00  0.00     0.034 A 
HETATM   10  C   UNL     1      41.979 -14.029   5.380  1.00  0.00     0.032 A 
ENDROOT
BRANCH   1  11
HETATM   11  N   UNL     1      43.647 -15.822   5.043  1.00  0.00    -0.325 N 
HETATM   12  C   UNL     1      43.533 -17.124   5.501  1.00  0.00     0.252 C 
HETATM   13  O   UNL     1      43.033 -17.483   6.565  1.00  0.00    -0.270 OA
HETATM   14  H   UNL     1      44.139 -15.716   4.160  1.00  0.00     0.169 HD
BRANCH  12  15
HETATM   15  C   UNL     1      44.206 -18.138   4.571  1.00  0.00     0.229 C 
HETATM   16  C   UNL     1      43.488 -18.312   3.214  1.00  0.00     0.056 C 
HETATM   17  C   UNL     1      41.968 -18.157   3.232  1.00  0.00     0.018 C 
HETATM   18  C   UNL     1      43.867 -19.730   2.961  1.00  0.00    -0.018 A 
HETATM   19  C   UNL     1      44.312 -20.306   4.142  1.00  0.00     0.076 A 
HETATM   20  C   UNL     1      43.784 -20.477   1.798  1.00  0.00     0.010 A 
HETATM   21  O   UNL     1      44.315 -19.441   5.204  1.00  0.00    -0.335 OA
HETATM   22  C   UNL     1      44.680 -21.632   4.219  1.00  0.00     0.037 A 
HETATM   23  C   UNL     1      44.610 -22.396   3.053  1.00  0.00     0.003 A 
HETATM   24  C   UNL     1      44.165 -21.821   1.849  1.00  0.00     0.001 A 
ENDBRANCH  12  15
ENDBRANCH   1  11
BRANCH   8  25
HETATM   25  C   UNL     1      45.473 -12.285   9.056  1.00  0.00     0.270 C 
HETATM   26  N   UNL     1      46.587 -12.073   8.292  1.00  0.00    -0.365 N 
HETATM   27  H   UNL     1      46.465 -11.789   7.327  1.00  0.00     0.159 HD
HETATM   28  H   UNL     1      47.502 -12.156   8.706  1.00  0.00     0.159 HD
HETATM   29  O   UNL     1      45.559 -12.602  10.238  1.00  0.00    -0.266 OA
ENDBRANCH   8  25
TORSDOF 3
ENDMDL
MODEL 3
REMARK VINA RESULT:      -8.6      6.296      8.758
REMARK  3 active torsions:
REMARK  status: ('A' for Active; 'I' for Inactive)
REMARK    1  A    between atoms: C_3  and  C_4 
REMARK       I    between atoms: C_4  and  N_5 
REMARK    2  A    between atoms: N_5  and  C_6 
REMARK    3  A    between atoms: C_13  and  C_14 
REMARK       I    between atoms: C_14  and  N_15 
ROOT
HETATM    1  C   UNL     1      41.201 -16.030   1.877  1.00  0.00     0.035 A 
HETATM    2  C   UNL     1      41.429 -15.814   0.509  1.00  0.00     0.046 A 
HETATM    3  C   UNL     1      40.518 -15.039  -0.237  1.00  0.00     0.030 A 
HETATM    4  C   UNL     1      39.394 -14.532   0.399  1.00  0.00     0.063 A 
HETATM    5  N   UNL     1      38.709 -13.848  -0.565  1.00  0.00    -0.277 N 
HETATM    6  H   UNL     1      37.831 -13.352  -0.460  1.00  0.00     0.189 HD
HETATM    7  N   UNL     1      39.305 -13.841  -1.772  1.00  0.00    -0.168 NA
HETATM    8  C   UNL     1      40.425 -14.573  -1.582  1.00  0.00     0.156 A 
HETATM    9  C   UNL     1      39.126 -14.745   1.753  1.00  0.00     0.034 A 
HETATM   10  C   UNL     1      40.061 -15.497   2.481  1.00  0.00     0.032 A 
ENDROOT
BRANCH   1  11
HETATM   11  N   UNL     1      42.166 -16.788   2.565  1.00  0.00    -0.325 N 
HETATM   12  C   UNL     1      43.401 -17.218   2.107  1.00  0.00     0.252 C 
HETATM   13  O   UNL     1      43.870 -17.030   0.987  1.00  0.00    -0.270 OA
HETATM   14  H   UNL     1      41.928 -17.086   3.507  1.00  0.00     0.169 HD
BRANCH  12  15
HETATM   15  C   UNL     1      44.141 -18.086   3.130  1.00  0.00     0.229 C 
HETATM   16  C   UNL     1      44.341 -19.549   2.676  1.00  0.00     0.056 C 
HETATM   17  C   UNL     1      43.236 -20.141   1.804  1.00  0.00     0.018 C 
HETATM   18  C   UNL     1      44.342 -20.184   4.024  1.00  0.00    -0.018 A 
HETATM   19  C   UNL     1      43.810 -19.299   4.950  1.00  0.00     0.076 A 
HETATM   20  C   UNL     1      44.732 -21.456   4.405  1.00  0.00     0.010 A 
HETATM   21  O   UNL     1      43.456 -18.091   4.410  1.00  0.00    -0.335 OA
HETATM   22  C   UNL     1      43.638 -19.638   6.275  1.00  0.00     0.037 A 
HETATM   23  C   UNL     1      44.035 -20.915   6.677  1.00  0.00     0.003 A 
HETATM   24  C   UNL     1      44.579 -21.818   5.747  1.00  0.00     0.001 A 
ENDBRANCH  12  15
ENDBRANCH   1  11
BRANCH   8  25
HETATM   25  C   UNL     1      41.388 -14.798  -2.668  1.00  0.00     0.270 C 
HETATM   26  N   UNL     1      42.439 -13.923  -2.675  1.00  0.00    -0.365 N 
HETATM   27  H   UNL     1      42.486 -13.217  -1.950  1.00  0.00     0.159 HD
HETATM   28  H   UNL     1      43.167 -14.018  -3.365  1.00  0.00     0.159 HD
HETATM   29  O   UNL     1      41.294 -15.691  -3.504  1.00  0.00    -0.266 OA
ENDBRANCH   8  25
TORSDOF 3
ENDMDL
MODEL 4
REMARK VINA RESULT:      -8.6      5.969      9.371
REMARK  3 active torsions:
REMARK  status: ('A' for Active; 'I' for Inactive)
REMARK    1  A    between atoms: C_3  and  C_4 
REMARK       I    between atoms: C_4  and  N_5 
REMARK    2  A    between atoms: N_5  and  C_6 
REMARK    3  A    between atoms: C_13  and  C_14 
REMARK       I    between atoms: C_14  and  N_15 
ROOT
HETATM    1  C   UNL     1      41.419 -15.075   0.203  1.00  0.00     0.035 A 
HETATM    2  C   UNL     1      40.577 -15.365  -0.882  1.00  0.00     0.046 A 
HETATM    3  C   UNL     1      40.328 -14.379  -1.857  1.00  0.00     0.030 A 
HETATM    4  C   UNL     1      40.901 -13.124  -1.700  1.00  0.00     0.063 A 
HETATM    5  N   UNL     1      40.475 -12.395  -2.775  1.00  0.00    -0.277 N 
HETATM    6  H   UNL     1      40.693 -11.427  -2.985  1.00  0.00     0.189 HD
HETATM    7  N   UNL     1      39.696 -13.075  -3.635  1.00  0.00    -0.168 NA
HETATM    8  C   UNL     1      39.598 -14.303  -3.080  1.00  0.00     0.156 A 
HETATM    9  C   UNL     1      41.726 -12.795  -0.623  1.00  0.00     0.034 A 
HETATM   10  C   UNL     1      41.981 -13.802   0.321  1.00  0.00     0.032 A 
ENDROOT
BRANCH   1  11
HETATM   11  N   UNL     1      41.646 -16.116   1.122  1.00  0.00    -0.325 N 
HETATM   12  C   UNL     1      41.064 -16.299   2.366  1.00  0.00     0.252 C 
HETATM   13  O   UNL     1      40.248 -15.557   2.907  1.00  0.00    -0.270 OA
HETATM   14  H   UNL     1      42.341 -16.810   0.864  1.00  0.00     0.169 HD
BRANCH  12  15
HETATM   15  C   UNL     1      41.623 -17.519   3.105  1.00  0.00     0.229 C 
HETATM   16  C   UNL     1      42.513 -17.159   4.315  1.00  0.00     0.056 C 
HETATM   17  C   UNL     1      43.334 -15.877   4.190  1.00  0.00     0.018 C 
HETATM   18  C   UNL     1      43.400 -18.355   4.281  1.00  0.00    -0.018 A 
HETATM   19  C   UNL     1      43.283 -18.981   3.049  1.00  0.00     0.076 A 
HETATM   20  C   UNL     1      44.281 -18.835   5.235  1.00  0.00     0.010 A 
HETATM   21  O   UNL     1      42.385 -18.372   2.211  1.00  0.00    -0.335 OA
HETATM   22  C   UNL     1      44.030 -20.090   2.713  1.00  0.00     0.037 A 
HETATM   23  C   UNL     1      44.917 -20.590   3.668  1.00  0.00     0.003 A 
HETATM   24  C   UNL     1      45.041 -19.966   4.922  1.00  0.00     0.001 A 
ENDBRANCH  12  15
ENDBRANCH   1  11
BRANCH   8  25
HETATM   25  C   UNL     1      38.834 -15.379  -3.726  1.00  0.00     0.270 C 
HETATM   26  N   UNL     1      37.566 -15.536  -3.239  1.00  0.00    -0.365 N 
HETATM   27  H   UNL     1      37.248 -14.912  -2.507  1.00  0.00     0.159 HD
HETATM   28  H   UNL     1      36.955 -16.229  -3.642  1.00  0.00     0.159 HD
HETATM   29  O   UNL     1      39.263 -16.087  -4.632  1.00  0.00    -0.266 OA
ENDBRANCH   8  25
TORSDOF 3
ENDMDL
MODEL 5
REMARK VINA RESULT:      -8.4      4.650      7.711
REMARK  3 active torsions:
REMARK  status: ('A' for Active; 'I' for Inactive)
REMARK    1  A    between atoms: C_3  and  C_4 
REMARK       I    between atoms: C_4  and  N_5 
REMARK    2  A    between atoms: N_5  and  C_6 
REMARK    3  A    between atoms: C_13  and  C_14 
REMARK       I    between atoms: C_14  and  N_15 
ROOT
HETATM    1  C   UNL     1      43.317 -17.888   2.807  1.00  0.00     0.035 A 
HETATM    2  C   UNL     1      43.046 -17.649   4.164  1.00  0.00     0.046 A 
HETATM    3  C   UNL     1      43.471 -18.577   5.135  1.00  0.00     0.030 A 
HETATM    4  C   UNL     1      44.124 -19.729   4.718  1.00  0.00     0.063 A 
HETATM    5  N   UNL     1      44.397 -20.425   5.863  1.00  0.00    -0.277 N 
HETATM    6  H   UNL     1      44.862 -21.323   5.939  1.00  0.00     0.189 HD
HETATM    7  N   UNL     1      44.002 -19.813   6.994  1.00  0.00    -0.168 NA
HETATM    8  C   UNL     1      43.429 -18.669   6.558  1.00  0.00     0.156 A 
HETATM    9  C   UNL     1      44.392 -20.008   3.377  1.00  0.00     0.034 A 
HETATM   10  C   UNL     1      43.982 -19.056   2.430  1.00  0.00     0.032 A 
ENDROOT
BRANCH   1  11
HETATM   11  N   UNL     1      42.889 -16.905   1.896  1.00  0.00    -0.325 N 
HETATM   12  C   UNL     1      41.759 -16.918   1.094  1.00  0.00     0.252 C 
HETATM   13  O   UNL     1      40.928 -17.819   1.018  1.00  0.00    -0.270 OA
HETATM   14  H   UNL     1      43.489 -16.093   1.783  1.00  0.00     0.169 HD
BRANCH  12  15
HETATM   15  C   UNL     1      41.671 -15.693   0.177  1.00  0.00     0.229 C 
HETATM   16  C   UNL     1      40.765 -14.569   0.727  1.00  0.00     0.056 C 
HETATM   17  C   UNL     1      39.560 -15.017   1.551  1.00  0.00     0.018 C 
HETATM   18  C   UNL     1      40.327 -14.002  -0.579  1.00  0.00    -0.018 A 
HETATM   19  C   UNL     1      40.592 -14.914  -1.590  1.00  0.00     0.076 A 
HETATM   20  C   UNL     1      39.698 -12.801  -0.859  1.00  0.00     0.010 A 
HETATM   21  O   UNL     1      41.199 -16.060  -1.146  1.00  0.00    -0.335 OA
HETATM   22  C   UNL     1      40.242 -14.678  -2.902  1.00  0.00     0.037 A 
HETATM   23  C   UNL     1      39.615 -13.467  -3.201  1.00  0.00     0.003 A 
HETATM   24  C   UNL     1      39.345 -12.534  -2.185  1.00  0.00     0.001 A 
ENDBRANCH  12  15
ENDBRANCH   1  11
BRANCH   8  25
HETATM   25  C   UNL     1      42.874 -17.682   7.494  1.00  0.00     0.270 C 
HETATM   26  N   UNL     1      43.519 -17.629   8.699  1.00  0.00    -0.365 N 
HETATM   27  H   UNL     1      44.314 -18.239   8.850  1.00  0.00     0.159 HD
HETATM   28  H   UNL     1      43.229 -16.961   9.395  1.00  0.00     0.159 HD
HETATM   29  O   UNL     1      41.924 -16.947   7.245  1.00  0.00    -0.266 OA
ENDBRANCH   8  25
TORSDOF 3
ENDMDL
MODEL 6
REMARK VINA RESULT:      -8.4      6.388      8.805
REMARK  3 active torsions:
REMARK  status: ('A' for Active; 'I' for Inactive)
REMARK    1  A    between atoms: C_3  and  C_4 
REMARK       I    between atoms: C_4  and  N_5 
REMARK    2  A    between atoms: N_5  and  C_6 
REMARK    3  A    between atoms: C_13  and  C_14 
REMARK       I    between atoms: C_14  and  N_15 
ROOT
HETATM    1  C   UNL     1      41.440 -15.220  -1.020  1.00  0.00     0.035 A 
HETATM    2  C   UNL     1      41.982 -13.950  -0.765  1.00  0.00     0.046 A 
HETATM    3  C   UNL     1      41.853 -12.929  -1.727  1.00  0.00     0.030 A 
HETATM    4  C   UNL     1      41.216 -13.217  -2.927  1.00  0.00     0.063 A 
HETATM    5  N   UNL     1      41.256 -12.055  -3.646  1.00  0.00    -0.277 N 
HETATM    6  H   UNL     1      40.890 -11.898  -4.578  1.00  0.00     0.189 HD
HETATM    7  N   UNL     1      41.841 -11.025  -3.007  1.00  0.00    -0.168 NA
HETATM    8  C   UNL     1      42.213 -11.552  -1.819  1.00  0.00     0.156 A 
HETATM    9  C   UNL     1      40.684 -14.473  -3.221  1.00  0.00     0.034 A 
HETATM   10  C   UNL     1      40.800 -15.467  -2.237  1.00  0.00     0.032 A 
ENDROOT
BRANCH   1  11
HETATM   11  N   UNL     1      41.579 -16.182  -0.004  1.00  0.00    -0.325 N 
HETATM   12  C   UNL     1      40.946 -16.222   1.227  1.00  0.00     0.252 C 
HETATM   13  O   UNL     1      40.151 -15.395   1.667  1.00  0.00    -0.270 OA
HETATM   14  H   UNL     1      42.246 -16.931  -0.171  1.00  0.00     0.169 HD
BRANCH  12  15
HETATM   15  C   UNL     1      41.414 -17.395   2.095  1.00  0.00     0.229 C 
HETATM   16  C   UNL     1      42.386 -16.986   3.224  1.00  0.00     0.056 C 
HETATM   17  C   UNL     1      43.322 -15.820   2.916  1.00  0.00     0.018 C 
HETATM   18  C   UNL     1      43.149 -18.262   3.311  1.00  0.00    -0.018 A 
HETATM   19  C   UNL     1      42.918 -19.016   2.169  1.00  0.00     0.076 A 
HETATM   20  C   UNL     1      44.019 -18.712   4.289  1.00  0.00     0.010 A 
HETATM   21  O   UNL     1      42.049 -18.423   1.290  1.00  0.00    -0.335 OA
HETATM   22  C   UNL     1      43.538 -20.227   1.950  1.00  0.00     0.037 A 
HETATM   23  C   UNL     1      44.412 -20.698   2.932  1.00  0.00     0.003 A 
HETATM   24  C   UNL     1      44.650 -19.944   4.095  1.00  0.00     0.001 A 
ENDBRANCH  12  15
ENDBRANCH   1  11
BRANCH   8  25
HETATM   25  C   UNL     1      42.881 -10.739  -0.794  1.00  0.00     0.270 C 
HETATM   26  N   UNL     1      42.147 -10.560   0.345  1.00  0.00    -0.365 N 
HETATM   27  H   UNL     1      41.235 -10.998   0.407  1.00  0.00     0.159 HD
HETATM   28  H   UNL     1      42.536 -10.042   1.117  1.00  0.00     0.159 HD
HETATM   29  O   UNL     1      44.003 -10.256  -0.914  1.00  0.00    -0.266 OA
ENDBRANCH   8  25
TORSDOF 3
ENDMDL
MODEL 7
REMARK VINA RESULT:      -8.4      2.719      8.505
REMARK  3 active torsions:
REMARK  status: ('A' for Active; 'I' for Inactive)
REMARK    1  A    between atoms: C_3  and  C_4 
REMARK       I    between atoms: C_4  and  N_5 
REMARK    2  A    between atoms: N_5  and  C_6 
REMARK    3  A    between atoms: C_13  and  C_14 
REMARK       I    between atoms: C_14  and  N_15 
ROOT
HETATM    1  C   UNL     1      43.817 -14.015   6.962  1.00  0.00     0.035 A 
HETATM    2  C   UNL     1      43.380 -13.810   5.644  1.00  0.00     0.046 A 
HETATM    3  C   UNL     1      43.248 -14.909   4.772  1.00  0.00     0.030 A 
HETATM    4  C   UNL     1      43.589 -16.173   5.233  1.00  0.00     0.063 A 
HETATM    5  N   UNL     1      43.372 -17.014   4.178  1.00  0.00    -0.277 N 
HETATM    6  H   UNL     1      43.522 -18.016   4.151  1.00  0.00     0.189 HD
HETATM    7  N   UNL     1      42.891 -16.411   3.075  1.00  0.00    -0.168 NA
HETATM    8  C   UNL     1      42.809 -15.109   3.429  1.00  0.00     0.156 A 
HETATM    9  C   UNL     1      44.047 -16.410   6.530  1.00  0.00     0.034 A 
HETATM   10  C   UNL     1      44.144 -15.305   7.389  1.00  0.00     0.032 A 
ENDROOT
BRANCH   1  11
HETATM   11  N   UNL     1      43.897 -12.878   7.785  1.00  0.00    -0.325 N 
HETATM   12  C   UNL     1      44.998 -12.400   8.477  1.00  0.00     0.252 C 
HETATM   13  O   UNL     1      46.115 -12.909   8.514  1.00  0.00    -0.270 OA
HETATM   14  H   UNL     1      43.040 -12.348   7.919  1.00  0.00     0.169 HD
BRANCH  12  15
HETATM   15  C   UNL     1      44.672 -11.167   9.327  1.00  0.00     0.229 C 
HETATM   16  C   UNL     1      44.824 -11.401  10.847  1.00  0.00     0.056 C 
HETATM   17  C   UNL     1      44.495 -12.806  11.348  1.00  0.00     0.018 C 
HETATM   18  C   UNL     1      43.798 -10.425  11.309  1.00  0.00    -0.018 A 
HETATM   19  C   UNL     1      42.976 -10.083  10.245  1.00  0.00     0.076 A 
HETATM   20  C   UNL     1      43.567  -9.912  12.574  1.00  0.00     0.010 A 
HETATM   21  O   UNL     1      43.325 -10.691   9.068  1.00  0.00    -0.335 OA
HETATM   22  C   UNL     1      41.900  -9.234  10.392  1.00  0.00     0.037 A 
HETATM   23  C   UNL     1      41.660  -8.701  11.660  1.00  0.00     0.003 A 
HETATM   24  C   UNL     1      42.489  -9.038  12.744  1.00  0.00     0.001 A 
ENDBRANCH  12  15
ENDBRANCH   1  11
BRANCH   8  25
HETATM   25  C   UNL     1      42.301 -14.091   2.501  1.00  0.00     0.270 C 
HETATM   26  N   UNL     1      41.080 -14.386   1.960  1.00  0.00    -0.365 N 
HETATM   27  H   UNL     1      40.621 -15.245   2.240  1.00  0.00     0.159 HD
HETATM   28  H   UNL     1      40.636 -13.731   1.335  1.00  0.00     0.159 HD
HETATM   29  O   UNL     1      42.890 -13.052   2.221  1.00  0.00    -0.266 OA
ENDBRANCH   8  25
TORSDOF 3
ENDMDL
MODEL 8
REMARK VINA RESULT:      -8.2      5.728      8.275
REMARK  3 active torsions:
REMARK  status: ('A' for Active; 'I' for Inactive)
REMARK    1  A    between atoms: C_3  and  C_4 
REMARK       I    between atoms: C_4  and  N_5 
REMARK    2  A    between atoms: N_5  and  C_6 
REMARK    3  A    between atoms: C_13  and  C_14 
REMARK       I    between atoms: C_14  and  N_15 
ROOT
HETATM    1  C   UNL     1      41.957 -17.664   3.037  1.00  0.00     0.035 A 
HETATM    2  C   UNL     1      42.374 -17.974   4.341  1.00  0.00     0.046 A 
HETATM    3  C   UNL     1      43.399 -18.921   4.540  1.00  0.00     0.030 A 
HETATM    4  C   UNL     1      43.952 -19.551   3.434  1.00  0.00     0.063 A 
HETATM    5  N   UNL     1      44.893 -20.405   3.937  1.00  0.00    -0.277 N 
HETATM    6  H   UNL     1      45.491 -21.036   3.414  1.00  0.00     0.189 HD
HETATM    7  N   UNL     1      45.021 -20.367   5.276  1.00  0.00    -0.168 NA
HETATM    8  C   UNL     1      44.103 -19.452   5.661  1.00  0.00     0.156 A 
HETATM    9  C   UNL     1      43.548 -19.281   2.126  1.00  0.00     0.034 A 
HETATM   10  C   UNL     1      42.544 -18.316   1.950  1.00  0.00     0.032 A 
ENDROOT
BRANCH   1  11
HETATM   11  N   UNL     1      40.951 -16.689   2.911  1.00  0.00    -0.325 N 
HETATM   12  C   UNL     1      41.091 -15.311   2.914  1.00  0.00     0.252 C 
HETATM   13  O   UNL     1      42.138 -14.684   3.055  1.00  0.00    -0.270 OA
HETATM   14  H   UNL     1      39.995 -17.026   2.834  1.00  0.00     0.169 HD
BRANCH  12  15
HETATM   15  C   UNL     1      39.747 -14.580   2.824  1.00  0.00     0.229 C 
HETATM   16  C   UNL     1      39.097 -14.644   1.424  1.00  0.00     0.056 C 
HETATM   17  C   UNL     1      40.057 -14.665   0.236  1.00  0.00     0.018 C 
HETATM   18  C   UNL     1      38.361 -13.350   1.480  1.00  0.00    -0.018 A 
HETATM   19  C   UNL     1      38.874 -12.572   2.508  1.00  0.00     0.076 A 
HETATM   20  C   UNL     1      37.351 -12.867   0.666  1.00  0.00     0.010 A 
HETATM   21  O   UNL     1      39.881 -13.186   3.206  1.00  0.00    -0.335 OA
HETATM   22  C   UNL     1      38.419 -11.296   2.761  1.00  0.00     0.037 A 
HETATM   23  C   UNL     1      37.395 -10.799   1.953  1.00  0.00     0.003 A 
HETATM   24  C   UNL     1      36.864 -11.580   0.911  1.00  0.00     0.001 A 
ENDBRANCH  12  15
ENDBRANCH   1  11
BRANCH   8  25
HETATM   25  C   UNL     1      43.928 -19.089   7.074  1.00  0.00     0.270 C 
HETATM   26  N   UNL     1      43.601 -20.139   7.886  1.00  0.00    -0.365 N 
HETATM   27  H   UNL     1      43.522 -21.062   7.475  1.00  0.00     0.159 HD
HETATM   28  H   UNL     1      43.490 -19.993   8.877  1.00  0.00     0.159 HD
HETATM   29  O   UNL     1      44.065 -17.954   7.520  1.00  0.00    -0.266 OA
ENDBRANCH   8  25
TORSDOF 3
ENDMDL
MODEL 9
REMARK VINA RESULT:      -8.2      4.036      5.086
REMARK  3 active torsions:
REMARK  status: ('A' for Active; 'I' for Inactive)
REMARK    1  A    between atoms: C_3  and  C_4 
REMARK       I    between atoms: C_4  and  N_5 
REMARK    2  A    between atoms: N_5  and  C_6 
REMARK    3  A    between atoms: C_13  and  C_14 
REMARK       I    between atoms: C_14  and  N_15 
ROOT
HETATM    1  C   UNL     1      40.231 -14.404   4.235  1.00  0.00     0.035 A 
HETATM    2  C   UNL     1      40.258 -13.643   5.415  1.00  0.00     0.046 A 
HETATM    3  C   UNL     1      39.696 -12.351   5.425  1.00  0.00     0.030 A 
HETATM    4  C   UNL     1      39.155 -11.847   4.251  1.00  0.00     0.063 A 
HETATM    5  N   UNL     1      38.708 -10.595   4.566  1.00  0.00    -0.277 N 
HETATM    6  H   UNL     1      38.260  -9.929   3.946  1.00  0.00     0.189 HD
HETATM    7  N   UNL     1      38.886 -10.248   5.854  1.00  0.00    -0.168 NA
HETATM    8  C   UNL     1      39.495 -11.325   6.396  1.00  0.00     0.156 A 
HETATM    9  C   UNL     1      39.130 -12.568   3.056  1.00  0.00     0.034 A 
HETATM   10  C   UNL     1      39.671 -13.863   3.076  1.00  0.00     0.032 A 
ENDROOT
BRANCH   1  11
HETATM   11  N   UNL     1      40.784 -15.696   4.305  1.00  0.00    -0.325 N 
HETATM   12  C   UNL     1      42.013 -16.126   3.834  1.00  0.00     0.252 C 
HETATM   13  O   UNL     1      42.845 -15.445   3.238  1.00  0.00    -0.270 OA
HETATM   14  H   UNL     1      40.207 -16.418   4.727  1.00  0.00     0.169 HD
BRANCH  12  15
HETATM   15  C   UNL     1      42.230 -17.629   4.034  1.00  0.00     0.229 C 
HETATM   16  C   UNL     1      42.825 -17.994   5.412  1.00  0.00     0.056 C 
HETATM   17  C   UNL     1      43.790 -16.977   6.020  1.00  0.00     0.018 C 
HETATM   18  C   UNL     1      43.554 -19.227   5.002  1.00  0.00    -0.018 A 
HETATM   19  C   UNL     1      43.678 -19.250   3.620  1.00  0.00     0.076 A 
HETATM   20  C   UNL     1      44.110 -20.229   5.778  1.00  0.00     0.010 A 
HETATM   21  O   UNL     1      43.091 -18.178   3.001  1.00  0.00    -0.335 OA
HETATM   22  C   UNL     1      44.357 -20.252   2.961  1.00  0.00     0.037 A 
HETATM   23  C   UNL     1      44.916 -21.275   3.729  1.00  0.00     0.003 A 
HETATM   24  C   UNL     1      44.793 -21.263   5.130  1.00  0.00     0.001 A 
ENDBRANCH  12  15
ENDBRANCH   1  11
BRANCH   8  25
HETATM   25  C   UNL     1      39.854 -11.368   7.820  1.00  0.00     0.270 C 
HETATM   26  N   UNL     1      41.174 -11.116   8.073  1.00  0.00    -0.365 N 
HETATM   27  H   UNL     1      41.785 -10.909   7.292  1.00  0.00     0.159 HD
HETATM   28  H   UNL     1      41.508 -11.094   9.023  1.00  0.00     0.159 HD
HETATM   29  O   UNL     1      39.061 -11.597   8.729  1.00  0.00    -0.266 OA
ENDBRANCH   8  25
TORSDOF 3
ENDMDL
MODEL 10
REMARK VINA RESULT:      -8.2      5.228      6.981
REMARK  3 active torsions:
REMARK  status: ('A' for Active; 'I' for Inactive)
REMARK    1  A    between atoms: C_3  and  C_4 
REMARK       I    between atoms: C_4  and  N_5 
REMARK    2  A    between atoms: N_5  and  C_6 
REMARK    3  A    between atoms: C_13  and  C_14 
REMARK       I    between atoms: C_14  and  N_15 
ROOT
HETATM    1  C   UNL     1      39.285 -14.586   2.250  1.00  0.00     0.035 A 
HETATM    2  C   UNL     1      39.634 -13.416   2.942  1.00  0.00     0.046 A 
HETATM    3  C   UNL     1      38.947 -12.215   2.674  1.00  0.00     0.030 A 
HETATM    4  C   UNL     1      37.958 -12.213   1.700  1.00  0.00     0.063 A 
HETATM    5  N   UNL     1      37.492 -10.929   1.659  1.00  0.00    -0.277 N 
HETATM    6  H   UNL     1      36.767 -10.558   1.056  1.00  0.00     0.189 HD
HETATM    7  N   UNL     1      38.074 -10.097   2.543  1.00  0.00    -0.168 NA
HETATM    8  C   UNL     1      38.975 -10.880   3.177  1.00  0.00     0.156 A 
HETATM    9  C   UNL     1      37.600 -13.354   0.979  1.00  0.00     0.034 A 
HETATM   10  C   UNL     1      38.279 -14.544   1.282  1.00  0.00     0.032 A 
ENDROOT
BRANCH   1  11
HETATM   11  N   UNL     1      39.992 -15.755   2.589  1.00  0.00    -0.325 N 
HETATM   12  C   UNL     1      41.075 -16.318   1.935  1.00  0.00     0.252 C 
HETATM   13  O   UNL     1      41.605 -15.901   0.907  1.00  0.00    -0.270 OA
HETATM   14  H   UNL     1      39.658 -16.273   3.397  1.00  0.00     0.169 HD
BRANCH  12  15
HETATM   15  C   UNL     1      41.528 -17.637   2.569  1.00  0.00     0.229 C 
HETATM   16  C   UNL     1      42.448 -17.452   3.797  1.00  0.00     0.056 C 
HETATM   17  C   UNL     1      43.375 -16.239   3.768  1.00  0.00     0.018 C 
HETATM   18  C   UNL     1      43.229 -18.713   3.660  1.00  0.00    -0.018 A 
HETATM   19  C   UNL     1      43.056 -19.225   2.382  1.00  0.00     0.076 A 
HETATM   20  C   UNL     1      44.067 -19.342   4.565  1.00  0.00     0.010 A 
HETATM   21  O   UNL     1      42.213 -18.477   1.603  1.00  0.00    -0.335 OA
HETATM   22  C   UNL     1      43.706 -20.363   1.953  1.00  0.00     0.037 A 
HETATM   23  C   UNL     1      44.548 -21.012   2.857  1.00  0.00     0.003 A 
HETATM   24  C   UNL     1      44.727 -20.504   4.156  1.00  0.00     0.001 A 
ENDBRANCH  12  15
ENDBRANCH   1  11
BRANCH   8  25
HETATM   25  C   UNL     1      39.825 -10.355   4.254  1.00  0.00     0.270 C 
HETATM   26  N   UNL     1      41.140 -10.207   3.907  1.00  0.00    -0.365 N 
HETATM   27  H   UNL     1      41.422 -10.445   2.963  1.00  0.00     0.159 HD
HETATM   28  H   UNL     1      41.794  -9.824   4.571  1.00  0.00     0.159 HD
HETATM   29  O   UNL     1      39.422 -10.056   5.373  1.00  0.00    -0.266 OA
ENDBRANCH   8  25
TORSDOF 3
ENDMDL
