MODEL 1
REMARK VINA RESULT:      -8.6      0.000      0.000
REMARK  5 active torsions:
REMARK  status: ('A' for Active; 'I' for Inactive)
REMARK    1  A    between atoms: O_2  and  C_3 
REMARK    2  A    between atoms: C_6  and  C_7 
REMARK       I    between atoms: C_7  and  N_8 
REMARK    3  A    between atoms: N_8  and  C_9 
REMARK    4  A    between atoms: C_9  and  C_10 
REMARK       I    between atoms: C_10  and  N_11 
REMARK    5  A    between atoms: N_11  and  N_12 
ROOT
HETATM    1  C   UNL     1      45.000 -13.355   7.689  1.00  0.00     0.255 C 
HETATM    2  N   UNL     1      43.971 -14.277   7.754  1.00  0.00    -0.245 N 
HETATM    3  O   UNL     1      46.088 -13.555   7.148  1.00  0.00    -0.270 OA
HETATM    4  H   UNL     1      43.067 -13.999   8.143  1.00  0.00     0.192 HD
ENDROOT
BRANCH   1   5
HETATM    5  C   UNL     1      44.665 -11.988   8.284  1.00  0.00     0.227 C 
BRANCH   5   6
HETATM    6  N   UNL     1      43.965 -11.974   9.562  1.00  0.00    -0.348 N 
HETATM    7  C   UNL     1      43.087 -10.961   9.883  1.00  0.00     0.252 C 
HETATM    8  O   UNL     1      42.651 -10.190   9.034  1.00  0.00    -0.268 OA
HETATM    9  H   UNL     1      44.206 -12.687  10.235  1.00  0.00     0.163 HD
BRANCH   7  10
HETATM   10  C   UNL     1      42.688 -10.810  11.315  1.00  0.00     0.032 A 
HETATM   11  C   UNL     1      43.513 -10.216  12.277  1.00  0.00     0.020 A 
HETATM   12  C   UNL     1      43.042 -10.019  13.580  1.00  0.00     0.038 A 
HETATM   13  C   UNL     1      41.741 -10.387  13.933  1.00  0.00     0.068 A 
HETATM   14  C   UNL     1      40.923 -10.997  12.984  1.00  0.00     0.038 A 
HETATM   15  C   UNL     1      41.394 -11.205  11.683  1.00  0.00     0.020 A 
BRANCH  13  16
HETATM   16  O   UNL     1      41.393 -10.103  15.224  1.00  0.00    -0.356 OA
HETATM   17  C   UNL     1      42.096  -9.030  15.843  1.00  0.00     0.210 C 
ENDBRANCH  13  16
ENDBRANCH   7  10
ENDBRANCH   5   6
ENDBRANCH   1   5
BRANCH   2  18
HETATM   18  N   UNL     1      44.119 -15.501   7.171  1.00  0.00    -0.166 NA
HETATM   19  C   UNL     1      43.477 -15.710   6.069  1.00  0.00     0.157 A 
HETATM   20  C   UNL     1      42.507 -14.785   5.328  1.00  0.00     0.277 A 
HETATM   21  C   UNL     1      43.541 -16.937   5.283  1.00  0.00     0.028 A 
HETATM   22  O   UNL     1      42.189 -13.672   5.691  1.00  0.00    -0.266 OA
HETATM   23  N   UNL     1      42.095 -15.496   4.220  1.00  0.00    -0.321 N 
HETATM   24  C   UNL     1      42.695 -16.752   4.190  1.00  0.00     0.048 A 
HETATM   25  H   UNL     1      41.444 -15.133   3.540  1.00  0.00     0.169 HD
HETATM   26  C   UNL     1      42.533 -17.739   3.241  1.00  0.00     0.032 A 
HETATM   27  C   UNL     1      43.251 -18.928   3.420  1.00  0.00     0.021 A 
HETATM   28  C   UNL     1      44.106 -19.098   4.530  1.00  0.00     0.012 A 
HETATM   29 BR   UNL     1      45.060 -20.720   4.723  1.00  0.00    -0.051 Br
HETATM   30  C   UNL     1      44.262 -18.095   5.485  1.00  0.00     0.035 A 
ENDBRANCH   2  18
TORSDOF 5
ENDMDL
MODEL 2
REMARK VINA RESULT:      -8.4      2.193      2.721
REMARK  5 active torsions:
REMARK  status: ('A' for Active; 'I' for Inactive)
REMARK    1  A    between atoms: O_2  and  C_3 
REMARK    2  A    between atoms: C_6  and  C_7 
REMARK       I    between atoms: C_7  and  N_8 
REMARK    3  A    between atoms: N_8  and  C_9 
REMARK    4  A    between atoms: C_9  and  C_10 
REMARK       I    between atoms: C_10  and  N_11 
REMARK    5  A    between atoms: N_11  and  N_12 
ROOT
HETATM    1  C   UNL     1      44.822 -13.770   7.059  1.00  0.00     0.255 C 
HETATM    2  N   UNL     1      43.689 -14.540   6.875  1.00  0.00    -0.245 N 
HETATM    3  O   UNL     1      45.575 -13.402   6.157  1.00  0.00    -0.270 OA
HETATM    4  H   UNL     1      43.069 -14.726   7.667  1.00  0.00     0.192 HD
ENDROOT
BRANCH   1   5
HETATM    5  C   UNL     1      45.052 -13.314   8.499  1.00  0.00     0.227 C 
BRANCH   5   6
HETATM    6  N   UNL     1      44.089 -12.373   9.059  1.00  0.00    -0.348 N 
HETATM    7  C   UNL     1      44.491 -11.147   9.543  1.00  0.00     0.252 C 
HETATM    8  O   UNL     1      45.597 -10.682   9.289  1.00  0.00    -0.268 OA
HETATM    9  H   UNL     1      43.133 -12.682   9.153  1.00  0.00     0.163 HD
BRANCH   7  10
HETATM   10  C   UNL     1      43.538 -10.395  10.415  1.00  0.00     0.032 A 
HETATM   11  C   UNL     1      42.280  -9.967   9.975  1.00  0.00     0.020 A 
HETATM   12  C   UNL     1      41.396  -9.353  10.870  1.00  0.00     0.038 A 
HETATM   13  C   UNL     1      41.743  -9.179  12.212  1.00  0.00     0.068 A 
HETATM   14  C   UNL     1      43.003  -9.585  12.650  1.00  0.00     0.038 A 
HETATM   15  C   UNL     1      43.893 -10.191  11.756  1.00  0.00     0.020 A 
BRANCH  13  16
HETATM   16  O   UNL     1      40.775  -8.603  12.987  1.00  0.00    -0.356 OA
HETATM   17  C   UNL     1      41.118  -8.371  14.349  1.00  0.00     0.210 C 
ENDBRANCH  13  16
ENDBRANCH   7  10
ENDBRANCH   5   6
ENDBRANCH   1   5
BRANCH   2  18
HETATM   18  N   UNL     1      43.327 -14.926   5.618  1.00  0.00    -0.166 NA
HETATM   19  C   UNL     1      43.483 -16.172   5.316  1.00  0.00     0.157 A 
HETATM   20  C   UNL     1      44.078 -17.302   6.161  1.00  0.00     0.277 A 
HETATM   21  C   UNL     1      43.118 -16.777   4.040  1.00  0.00     0.028 A 
HETATM   22  O   UNL     1      44.510 -17.177   7.288  1.00  0.00    -0.266 OA
HETATM   23  N   UNL     1      44.022 -18.427   5.365  1.00  0.00    -0.321 N 
HETATM   24  C   UNL     1      43.463 -18.125   4.126  1.00  0.00     0.048 A 
HETATM   25  H   UNL     1      44.350 -19.333   5.663  1.00  0.00     0.169 HD
HETATM   26  C   UNL     1      43.241 -18.985   3.072  1.00  0.00     0.032 A 
HETATM   27  C   UNL     1      42.655 -18.451   1.917  1.00  0.00     0.021 A 
HETATM   28  C   UNL     1      42.309 -17.084   1.846  1.00  0.00     0.012 A 
HETATM   29 BR   UNL     1      41.514 -16.412   0.267  1.00  0.00    -0.051 Br
HETATM   30  C   UNL     1      42.539 -16.221   2.918  1.00  0.00     0.035 A 
ENDBRANCH   2  18
TORSDOF 5
ENDMDL
MODEL 3
REMARK VINA RESULT:      -8.3      6.946     10.200
REMARK  5 active torsions:
REMARK  status: ('A' for Active; 'I' for Inactive)
REMARK    1  A    between atoms: O_2  and  C_3 
REMARK    2  A    between atoms: C_6  and  C_7 
REMARK       I    between atoms: C_7  and  N_8 
REMARK    3  A    between atoms: N_8  and  C_9 
REMARK    4  A    between atoms: C_9  and  C_10 
REMARK       I    between atoms: C_10  and  N_11 
REMARK    5  A    between atoms: N_11  and  N_12 
ROOT
HETATM    1  C   UNL     1      39.869 -14.393   3.672  1.00  0.00     0.255 C 
HETATM    2  N   UNL     1      39.614 -15.203   2.581  1.00  0.00    -0.245 N 
HETATM    3  O   UNL     1      39.728 -13.170   3.687  1.00  0.00    -0.270 OA
HETATM    4  H   UNL     1      39.670 -16.219   2.681  1.00  0.00     0.192 HD
ENDROOT
BRANCH   1   5
HETATM    5  C   UNL     1      40.276 -15.145   4.939  1.00  0.00     0.227 C 
BRANCH   5   6
HETATM    6  N   UNL     1      40.940 -16.431   4.761  1.00  0.00    -0.348 N 
HETATM    7  C   UNL     1      42.313 -16.516   4.668  1.00  0.00     0.252 C 
HETATM    8  O   UNL     1      43.043 -15.586   4.994  1.00  0.00    -0.268 OA
HETATM    9  H   UNL     1      40.358 -17.244   4.628  1.00  0.00     0.163 HD
BRANCH   7  10
HETATM   10  C   UNL     1      42.898 -17.784   4.135  1.00  0.00     0.032 A 
HETATM   11  C   UNL     1      42.634 -18.261   2.846  1.00  0.00     0.020 A 
HETATM   12  C   UNL     1      43.290 -19.404   2.374  1.00  0.00     0.038 A 
HETATM   13  C   UNL     1      44.230 -20.068   3.165  1.00  0.00     0.068 A 
HETATM   14  C   UNL     1      44.481 -19.608   4.457  1.00  0.00     0.038 A 
HETATM   15  C   UNL     1      43.820 -18.471   4.936  1.00  0.00     0.020 A 
BRANCH  13  16
HETATM   16  O   UNL     1      44.826 -21.144   2.570  1.00  0.00    -0.356 OA
HETATM   17  C   UNL     1      44.025 -21.875   1.647  1.00  0.00     0.210 C 
ENDBRANCH  13  16
ENDBRANCH   7  10
ENDBRANCH   5   6
ENDBRANCH   1   5
BRANCH   2  18
HETATM   18  N   UNL     1      39.150 -14.654   1.422  1.00  0.00    -0.166 NA
HETATM   19  C   UNL     1      39.988 -14.547   0.444  1.00  0.00     0.157 A 
HETATM   20  C   UNL     1      41.476 -14.905   0.406  1.00  0.00     0.277 A 
HETATM   21  C   UNL     1      39.668 -14.024  -0.880  1.00  0.00     0.028 A 
HETATM   22  O   UNL     1      42.109 -15.359   1.336  1.00  0.00    -0.266 OA
HETATM   23  N   UNL     1      41.900 -14.585  -0.867  1.00  0.00    -0.321 N 
HETATM   24  C   UNL     1      40.847 -14.070  -1.621  1.00  0.00     0.048 A 
HETATM   25  H   UNL     1      42.849 -14.714  -1.183  1.00  0.00     0.169 HD
HETATM   26  C   UNL     1      40.882 -13.644  -2.931  1.00  0.00     0.032 A 
HETATM   27  C   UNL     1      39.687 -13.167  -3.484  1.00  0.00     0.021 A 
HETATM   28  C   UNL     1      38.500 -13.129  -2.722  1.00  0.00     0.012 A 
HETATM   29 BR   UNL     1      36.910 -12.483  -3.517  1.00  0.00    -0.051 Br
HETATM   30  C   UNL     1      38.475 -13.562  -1.396  1.00  0.00     0.035 A 
ENDBRANCH   2  18
TORSDOF 5
ENDMDL
MODEL 4
REMARK VINA RESULT:      -8.3      7.518     10.925
REMARK  5 active torsions:
REMARK  status: ('A' for Active; 'I' for Inactive)
REMARK    1  A    between atoms: O_2  and  C_3 
REMARK    2  A    between atoms: C_6  and  C_7 
REMARK       I    between atoms: C_7  and  N_8 
REMARK    3  A    between atoms: N_8  and  C_9 
REMARK    4  A    between atoms: C_9  and  C_10 
REMARK       I    between atoms: C_10  and  N_11 
REMARK    5  A    between atoms: N_11  and  N_12 
ROOT
HETATM    1  C   UNL     1      42.728 -14.172   2.882  1.00  0.00     0.255 C 
HETATM    2  N   UNL     1      41.978 -13.693   1.824  1.00  0.00    -0.245 N 
HETATM    3  O   UNL     1      43.777 -13.667   3.284  1.00  0.00    -0.270 OA
HETATM    4  H   UNL     1      41.072 -14.119   1.613  1.00  0.00     0.192 HD
ENDROOT
BRANCH   1   5
HETATM    5  C   UNL     1      42.112 -15.369   3.607  1.00  0.00     0.227 C 
BRANCH   5   6
HETATM    6  N   UNL     1      42.899 -16.595   3.647  1.00  0.00    -0.348 N 
HETATM    7  C   UNL     1      43.131 -17.330   2.504  1.00  0.00     0.252 C 
HETATM    8  O   UNL     1      42.931 -16.867   1.386  1.00  0.00    -0.268 OA
HETATM    9  H   UNL     1      43.199 -16.929   4.551  1.00  0.00     0.163 HD
BRANCH   7  10
HETATM   10  C   UNL     1      43.622 -18.732   2.664  1.00  0.00     0.032 A 
HETATM   11  C   UNL     1      44.295 -19.178   3.807  1.00  0.00     0.020 A 
HETATM   12  C   UNL     1      44.643 -20.527   3.935  1.00  0.00     0.038 A 
HETATM   13  C   UNL     1      44.305 -21.450   2.943  1.00  0.00     0.068 A 
HETATM   14  C   UNL     1      43.652 -21.008   1.794  1.00  0.00     0.038 A 
HETATM   15  C   UNL     1      43.311 -19.657   1.658  1.00  0.00     0.020 A 
BRANCH  13  16
HETATM   16  O   UNL     1      44.667 -22.741   3.210  1.00  0.00    -0.356 OA
HETATM   17  C   UNL     1      44.896 -23.059   4.579  1.00  0.00     0.210 C 
ENDBRANCH  13  16
ENDBRANCH   7  10
ENDBRANCH   5   6
ENDBRANCH   1   5
BRANCH   2  18
HETATM   18  N   UNL     1      42.378 -12.570   1.162  1.00  0.00    -0.166 NA
HETATM   19  C   UNL     1      42.177 -12.535  -0.113  1.00  0.00     0.157 A 
HETATM   20  C   UNL     1      41.589 -13.614  -1.026  1.00  0.00     0.277 A 
HETATM   21  C   UNL     1      42.499 -11.408  -0.982  1.00  0.00     0.028 A 
HETATM   22  O   UNL     1      41.214 -14.709  -0.662  1.00  0.00    -0.266 OA
HETATM   23  N   UNL     1      41.607 -13.073  -2.296  1.00  0.00    -0.321 N 
HETATM   24  C   UNL     1      42.138 -11.785  -2.274  1.00  0.00     0.048 A 
HETATM   25  H   UNL     1      41.277 -13.565  -3.112  1.00  0.00     0.169 HD
HETATM   26  C   UNL     1      42.314 -10.931  -3.341  1.00  0.00     0.032 A 
HETATM   27  C   UNL     1      42.867  -9.672  -3.072  1.00  0.00     0.021 A 
HETATM   28  C   UNL     1      43.224  -9.303  -1.758  1.00  0.00     0.012 A 
HETATM   29 BR   UNL     1      43.960  -7.588  -1.447  1.00  0.00    -0.051 Br
HETATM   30  C   UNL     1      43.044 -10.175  -0.685  1.00  0.00     0.035 A 
ENDBRANCH   2  18
TORSDOF 5
ENDMDL
MODEL 5
REMARK VINA RESULT:      -8.3      6.991     10.106
REMARK  5 active torsions:
REMARK  status: ('A' for Active; 'I' for Inactive)
REMARK    1  A    between atoms: O_2  and  C_3 
REMARK    2  A    between atoms: C_6  and  C_7 
REMARK       I    between atoms: C_7  and  N_8 
REMARK    3  A    between atoms: N_8  and  C_9 
REMARK    4  A    between atoms: C_9  and  C_10 
REMARK       I    between atoms: C_10  and  N_11 
REMARK    5  A    between atoms: N_11  and  N_12 
ROOT
HETATM    1  C   UNL     1      40.670 -14.103   3.481  1.00  0.00     0.255 C 
HETATM    2  N   UNL     1      41.675 -14.430   2.590  1.00  0.00    -0.245 N 
HETATM    3  O   UNL     1      39.927 -13.127   3.373  1.00  0.00    -0.270 OA
HETATM    4  H   UNL     1      42.187 -15.308   2.705  1.00  0.00     0.192 HD
ENDROOT
BRANCH   1   5
HETATM    5  C   UNL     1      40.474 -15.109   4.615  1.00  0.00     0.227 C 
BRANCH   5   6
HETATM    6  N   UNL     1      41.042 -16.439   4.425  1.00  0.00    -0.348 N 
HETATM    7  C   UNL     1      42.378 -16.683   4.662  1.00  0.00     0.252 C 
HETATM    8  O   UNL     1      43.079 -15.893   5.286  1.00  0.00    -0.268 OA
HETATM    9  H   UNL     1      40.443 -17.153   4.039  1.00  0.00     0.163 HD
BRANCH   7  10
HETATM   10  C   UNL     1      42.964 -17.943   4.115  1.00  0.00     0.032 A 
HETATM   11  C   UNL     1      42.703 -18.406   2.820  1.00  0.00     0.020 A 
HETATM   12  C   UNL     1      43.360 -19.542   2.336  1.00  0.00     0.038 A 
HETATM   13  C   UNL     1      44.298 -20.216   3.122  1.00  0.00     0.068 A 
HETATM   14  C   UNL     1      44.547 -19.771   4.419  1.00  0.00     0.038 A 
HETATM   15  C   UNL     1      43.885 -18.640   4.911  1.00  0.00     0.020 A 
BRANCH  13  16
HETATM   16  O   UNL     1      44.896 -21.285   2.515  1.00  0.00    -0.356 OA
HETATM   17  C   UNL     1      44.125 -21.956   1.524  1.00  0.00     0.210 C 
ENDBRANCH  13  16
ENDBRANCH   7  10
ENDBRANCH   5   6
ENDBRANCH   1   5
BRANCH   2  18
HETATM   18  N   UNL     1      41.880 -13.658   1.484  1.00  0.00    -0.166 NA
HETATM   19  C   UNL     1      41.623 -14.192   0.336  1.00  0.00     0.157 A 
HETATM   20  C   UNL     1      41.163 -15.617   0.018  1.00  0.00     0.277 A 
HETATM   21  C   UNL     1      41.743 -13.513  -0.949  1.00  0.00     0.028 A 
HETATM   22  O   UNL     1      40.966 -16.488   0.840  1.00  0.00    -0.266 OA
HETATM   23  N   UNL     1      41.051 -15.669  -1.356  1.00  0.00    -0.321 N 
HETATM   24  C   UNL     1      41.388 -14.444  -1.924  1.00  0.00     0.048 A 
HETATM   25  H   UNL     1      40.762 -16.497  -1.857  1.00  0.00     0.169 HD
HETATM   26  C   UNL     1      41.394 -14.110  -3.262  1.00  0.00     0.032 A 
HETATM   27  C   UNL     1      41.768 -12.803  -3.597  1.00  0.00     0.021 A 
HETATM   28  C   UNL     1      42.121 -11.871  -2.598  1.00  0.00     0.012 A 
HETATM   29 BR   UNL     1      42.612 -10.115  -3.102  1.00  0.00    -0.051 Br
HETATM   30  C   UNL     1      42.114 -12.219  -1.247  1.00  0.00     0.035 A 
ENDBRANCH   2  18
TORSDOF 5
ENDMDL
MODEL 6
REMARK VINA RESULT:      -8.2      7.272     12.017
REMARK  5 active torsions:
REMARK  status: ('A' for Active; 'I' for Inactive)
REMARK    1  A    between atoms: O_2  and  C_3 
REMARK    2  A    between atoms: C_6  and  C_7 
REMARK       I    between atoms: C_7  and  N_8 
REMARK    3  A    between atoms: N_8  and  C_9 
REMARK    4  A    between atoms: C_9  and  C_10 
REMARK       I    between atoms: C_10  and  N_11 
REMARK    5  A    between atoms: N_11  and  N_12 
ROOT
HETATM    1  C   UNL     1      40.563 -15.129   0.236  1.00  0.00     0.255 C 
HETATM    2  N   UNL     1      40.260 -16.109   1.162  1.00  0.00    -0.245 N 
HETATM    3  O   UNL     1      41.567 -15.123  -0.476  1.00  0.00    -0.270 OA
HETATM    4  H   UNL     1      39.360 -16.085   1.648  1.00  0.00     0.192 HD
ENDROOT
BRANCH   1   5
HETATM    5  C   UNL     1      39.493 -14.048   0.082  1.00  0.00     0.227 C 
BRANCH   5   6
HETATM    6  N   UNL     1      38.554 -14.198  -1.023  1.00  0.00    -0.348 N 
HETATM    7  C   UNL     1      38.756 -13.550  -2.223  1.00  0.00     0.252 C 
HETATM    8  O   UNL     1      39.838 -13.050  -2.513  1.00  0.00    -0.268 OA
HETATM    9  H   UNL     1      37.711 -14.726  -0.852  1.00  0.00     0.163 HD
BRANCH   7  10
HETATM   10  C   UNL     1      37.602 -13.453  -3.166  1.00  0.00     0.032 A 
HETATM   11  C   UNL     1      37.130 -14.542  -3.907  1.00  0.00     0.020 A 
HETATM   12  C   UNL     1      35.985 -14.408  -4.700  1.00  0.00     0.038 A 
HETATM   13  C   UNL     1      35.284 -13.201  -4.746  1.00  0.00     0.068 A 
HETATM   14  C   UNL     1      35.761 -12.107  -4.025  1.00  0.00     0.038 A 
HETATM   15  C   UNL     1      36.912 -12.235  -3.239  1.00  0.00     0.020 A 
BRANCH  13  16
HETATM   16  O   UNL     1      34.161 -13.215  -5.526  1.00  0.00    -0.356 OA
HETATM   17  C   UNL     1      33.895 -12.028  -6.265  1.00  0.00     0.210 C 
ENDBRANCH  13  16
ENDBRANCH   7  10
ENDBRANCH   5   6
ENDBRANCH   1   5
BRANCH   2  18
HETATM   18  N   UNL     1      41.093 -17.177   1.318  1.00  0.00    -0.166 NA
HETATM   19  C   UNL     1      41.802 -17.219   2.398  1.00  0.00     0.157 A 
HETATM   20  C   UNL     1      41.888 -16.197   3.534  1.00  0.00     0.277 A 
HETATM   21  C   UNL     1      42.716 -18.296   2.758  1.00  0.00     0.028 A 
HETATM   22  O   UNL     1      41.275 -15.151   3.581  1.00  0.00    -0.266 OA
HETATM   23  N   UNL     1      42.797 -16.719   4.431  1.00  0.00    -0.321 N 
HETATM   24  C   UNL     1      43.283 -17.944   3.982  1.00  0.00     0.048 A 
HETATM   25  H   UNL     1      43.058 -16.255   5.288  1.00  0.00     0.169 HD
HETATM   26  C   UNL     1      44.200 -18.764   4.604  1.00  0.00     0.032 A 
HETATM   27  C   UNL     1      44.534 -19.962   3.959  1.00  0.00     0.021 A 
HETATM   28  C   UNL     1      43.949 -20.306   2.722  1.00  0.00     0.012 A 
HETATM   29 BR   UNL     1      44.429 -21.938   1.894  1.00  0.00    -0.051 Br
HETATM   30  C   UNL     1      43.024 -19.469   2.099  1.00  0.00     0.035 A 
ENDBRANCH   2  18
TORSDOF 5
ENDMDL
MODEL 7
REMARK VINA RESULT:      -8.2      1.717      2.230
REMARK  5 active torsions:
REMARK  status: ('A' for Active; 'I' for Inactive)
REMARK    1  A    between atoms: O_2  and  C_3 
REMARK    2  A    between atoms: C_6  and  C_7 
REMARK       I    between atoms: C_7  and  N_8 
REMARK    3  A    between atoms: N_8  and  C_9 
REMARK    4  A    between atoms: C_9  and  C_10 
REMARK       I    between atoms: C_10  and  N_11 
REMARK    5  A    between atoms: N_11  and  N_12 
ROOT
HETATM    1  C   UNL     1      45.064 -13.674   7.336  1.00  0.00     0.255 C 
HETATM    2  N   UNL     1      44.055 -14.613   7.436  1.00  0.00    -0.245 N 
HETATM    3  O   UNL     1      45.890 -13.627   6.424  1.00  0.00    -0.270 OA
HETATM    4  H   UNL     1      43.355 -14.527   8.178  1.00  0.00     0.192 HD
ENDROOT
BRANCH   1   5
HETATM    5  C   UNL     1      45.046 -12.604   8.427  1.00  0.00     0.227 C 
BRANCH   5   6
HETATM    6  N   UNL     1      43.741 -12.103   8.842  1.00  0.00    -0.348 N 
HETATM    7  C   UNL     1      43.631 -11.017   9.684  1.00  0.00     0.252 C 
HETATM    8  O   UNL     1      44.578 -10.269   9.903  1.00  0.00    -0.268 OA
HETATM    9  H   UNL     1      42.927 -12.627   8.558  1.00  0.00     0.163 HD
BRANCH   7  10
HETATM   10  C   UNL     1      42.314 -10.782  10.350  1.00  0.00     0.032 A 
HETATM   11  C   UNL     1      42.172 -10.659  11.737  1.00  0.00     0.020 A 
HETATM   12  C   UNL     1      40.926 -10.343  12.289  1.00  0.00     0.038 A 
HETATM   13  C   UNL     1      39.816 -10.122  11.470  1.00  0.00     0.068 A 
HETATM   14  C   UNL     1      39.947 -10.263  10.090  1.00  0.00     0.038 A 
HETATM   15  C   UNL     1      41.190 -10.588   9.534  1.00  0.00     0.020 A 
BRANCH  13  16
HETATM   16  O   UNL     1      38.670  -9.782  12.133  1.00  0.00    -0.356 OA
HETATM   17  C   UNL     1      37.725  -9.012  11.398  1.00  0.00     0.210 C 
ENDBRANCH  13  16
ENDBRANCH   7  10
ENDBRANCH   5   6
ENDBRANCH   1   5
BRANCH   2  18
HETATM   18  N   UNL     1      43.911 -15.561   6.467  1.00  0.00    -0.166 NA
HETATM   19  C   UNL     1      43.017 -15.346   5.559  1.00  0.00     0.157 A 
HETATM   20  C   UNL     1      42.031 -14.181   5.435  1.00  0.00     0.277 A 
HETATM   21  C   UNL     1      42.747 -16.222   4.425  1.00  0.00     0.028 A 
HETATM   22  O   UNL     1      41.946 -13.252   6.211  1.00  0.00    -0.266 OA
HETATM   23  N   UNL     1      41.294 -14.442   4.299  1.00  0.00    -0.321 N 
HETATM   24  C   UNL     1      41.708 -15.633   3.706  1.00  0.00     0.048 A 
HETATM   25  H   UNL     1      40.559 -13.837   3.965  1.00  0.00     0.169 HD
HETATM   26  C   UNL     1      41.213 -16.218   2.561  1.00  0.00     0.032 A 
HETATM   27  C   UNL     1      41.797 -17.423   2.150  1.00  0.00     0.021 A 
HETATM   28  C   UNL     1      42.850 -18.006   2.887  1.00  0.00     0.012 A 
HETATM   29 BR   UNL     1      43.609 -19.631   2.287  1.00  0.00    -0.051 Br
HETATM   30  C   UNL     1      43.343 -17.407   4.046  1.00  0.00     0.035 A 
ENDBRANCH   2  18
TORSDOF 5
ENDMDL
MODEL 8
REMARK VINA RESULT:      -8.1      6.266      9.965
REMARK  5 active torsions:
REMARK  status: ('A' for Active; 'I' for Inactive)
REMARK    1  A    between atoms: O_2  and  C_3 
REMARK    2  A    between atoms: C_6  and  C_7 
REMARK       I    between atoms: C_7  and  N_8 
REMARK    3  A    between atoms: N_8  and  C_9 
REMARK    4  A    between atoms: C_9  and  C_10 
REMARK       I    between atoms: C_10  and  N_11 
REMARK    5  A    between atoms: N_11  and  N_12 
ROOT
HETATM    1  C   UNL     1      40.952 -14.490   5.147  1.00  0.00     0.255 C 
HETATM    2  N   UNL     1      40.210 -15.092   4.149  1.00  0.00    -0.245 N 
HETATM    3  O   UNL     1      40.981 -13.279   5.367  1.00  0.00    -0.270 OA
HETATM    4  H   UNL     1      40.172 -16.113   4.092  1.00  0.00     0.192 HD
ENDROOT
BRANCH   1   5
HETATM    5  C   UNL     1      41.704 -15.464   6.054  1.00  0.00     0.227 C 
BRANCH   5   6
HETATM    6  N   UNL     1      42.142 -16.721   5.457  1.00  0.00    -0.348 N 
HETATM    7  C   UNL     1      43.417 -17.202   5.667  1.00  0.00     0.252 C 
HETATM    8  O   UNL     1      44.138 -16.759   6.556  1.00  0.00    -0.268 OA
HETATM    9  H   UNL     1      41.510 -17.183   4.822  1.00  0.00     0.163 HD
BRANCH   7  10
HETATM   10  C   UNL     1      43.914 -18.279   4.759  1.00  0.00     0.032 A 
HETATM   11  C   UNL     1      44.628 -19.392   5.216  1.00  0.00     0.020 A 
HETATM   12  C   UNL     1      44.981 -20.413   4.326  1.00  0.00     0.038 A 
HETATM   13  C   UNL     1      44.609 -20.350   2.982  1.00  0.00     0.068 A 
HETATM   14  C   UNL     1      43.916 -19.234   2.517  1.00  0.00     0.038 A 
HETATM   15  C   UNL     1      43.569 -18.206   3.402  1.00  0.00     0.020 A 
BRANCH  13  16
HETATM   16  O   UNL     1      44.981 -21.430   2.230  1.00  0.00    -0.356 OA
HETATM   17  C   UNL     1      43.964 -22.010   1.419  1.00  0.00     0.210 C 
ENDBRANCH  13  16
ENDBRANCH   7  10
ENDBRANCH   5   6
ENDBRANCH   1   5
BRANCH   2  18
HETATM   18  N   UNL     1      39.421 -14.332   3.337  1.00  0.00    -0.166 NA
HETATM   19  C   UNL     1      39.582 -14.467   2.063  1.00  0.00     0.157 A 
HETATM   20  C   UNL     1      40.590 -15.336   1.306  1.00  0.00     0.277 A 
HETATM   21  C   UNL     1      38.807 -13.771   1.042  1.00  0.00     0.028 A 
HETATM   22  O   UNL     1      41.420 -16.054   1.823  1.00  0.00    -0.266 OA
HETATM   23  N   UNL     1      40.347 -15.102  -0.032  1.00  0.00    -0.321 N 
HETATM   24  C   UNL     1      39.307 -14.189  -0.190  1.00  0.00     0.048 A 
HETATM   25  H   UNL     1      40.867 -15.544  -0.774  1.00  0.00     0.169 HD
HETATM   26  C   UNL     1      38.780 -13.712  -1.372  1.00  0.00     0.032 A 
HETATM   27  C   UNL     1      37.724 -12.796  -1.281  1.00  0.00     0.021 A 
HETATM   28  C   UNL     1      37.226 -12.385  -0.026  1.00  0.00     0.012 A 
HETATM   29 BR   UNL     1      35.794 -11.152   0.042  1.00  0.00    -0.051 Br
HETATM   30  C   UNL     1      37.767 -12.872   1.163  1.00  0.00     0.035 A 
ENDBRANCH   2  18
TORSDOF 5
ENDMDL
MODEL 9
REMARK VINA RESULT:      -8.0      7.728     10.691
REMARK  5 active torsions:
REMARK  status: ('A' for Active; 'I' for Inactive)
REMARK    1  A    between atoms: O_2  and  C_3 
REMARK    2  A    between atoms: C_6  and  C_7 
REMARK       I    between atoms: C_7  and  N_8 
REMARK    3  A    between atoms: N_8  and  C_9 
REMARK    4  A    between atoms: C_9  and  C_10 
REMARK       I    between atoms: C_10  and  N_11 
REMARK    5  A    between atoms: N_11  and  N_12 
ROOT
HETATM    1  C   UNL     1      42.211 -13.559   2.060  1.00  0.00     0.255 C 
HETATM    2  N   UNL     1      40.954 -14.095   1.857  1.00  0.00    -0.245 N 
HETATM    3  O   UNL     1      42.634 -12.535   1.521  1.00  0.00    -0.270 OA
HETATM    4  H   UNL     1      40.650 -14.898   2.414  1.00  0.00     0.192 HD
ENDROOT
BRANCH   1   5
HETATM    5  C   UNL     1      43.056 -14.296   3.099  1.00  0.00     0.227 C 
BRANCH   5   6
HETATM    6  N   UNL     1      43.454 -15.662   2.780  1.00  0.00    -0.348 N 
HETATM    7  C   UNL     1      42.682 -16.737   3.165  1.00  0.00     0.252 C 
HETATM    8  O   UNL     1      41.522 -16.599   3.541  1.00  0.00    -0.268 OA
HETATM    9  H   UNL     1      44.352 -15.797   2.341  1.00  0.00     0.163 HD
BRANCH   7  10
HETATM   10  C   UNL     1      43.308 -18.093   3.131  1.00  0.00     0.032 A 
HETATM   11  C   UNL     1      44.097 -18.594   4.173  1.00  0.00     0.020 A 
HETATM   12  C   UNL     1      44.574 -19.909   4.121  1.00  0.00     0.038 A 
HETATM   13  C   UNL     1      44.253 -20.745   3.049  1.00  0.00     0.068 A 
HETATM   14  C   UNL     1      43.484 -20.244   1.999  1.00  0.00     0.038 A 
HETATM   15  C   UNL     1      43.013 -18.927   2.043  1.00  0.00     0.020 A 
BRANCH  13  16
HETATM   16  O   UNL     1      44.748 -22.016   3.141  1.00  0.00    -0.356 OA
HETATM   17  C   UNL     1      44.704 -22.615   4.432  1.00  0.00     0.210 C 
ENDBRANCH  13  16
ENDBRANCH   7  10
ENDBRANCH   5   6
ENDBRANCH   1   5
BRANCH   2  18
HETATM   18  N   UNL     1      40.075 -13.467   1.025  1.00  0.00    -0.166 NA
HETATM   19  C   UNL     1      39.917 -13.971  -0.154  1.00  0.00     0.157 A 
HETATM   20  C   UNL     1      40.627 -15.168  -0.794  1.00  0.00     0.277 A 
HETATM   21  C   UNL     1      38.996 -13.465  -1.165  1.00  0.00     0.028 A 
HETATM   22  O   UNL     1      41.481 -15.842  -0.257  1.00  0.00    -0.266 OA
HETATM   23  N   UNL     1      40.100 -15.273  -2.065  1.00  0.00    -0.321 N 
HETATM   24  C   UNL     1      39.148 -14.281  -2.285  1.00  0.00     0.048 A 
HETATM   25  H   UNL     1      40.385 -15.980  -2.725  1.00  0.00     0.169 HD
HETATM   26  C   UNL     1      38.407 -14.067  -3.428  1.00  0.00     0.032 A 
HETATM   27  C   UNL     1      37.498 -13.001  -3.415  1.00  0.00     0.021 A 
HETATM   28  C   UNL     1      37.353 -12.186  -2.272  1.00  0.00     0.012 A 
HETATM   29 BR   UNL     1      36.106 -10.764  -2.302  1.00  0.00    -0.051 Br
HETATM   30  C   UNL     1      38.108 -12.410  -1.121  1.00  0.00     0.035 A 
ENDBRANCH   2  18
TORSDOF 5
ENDMDL
MODEL 10
REMARK VINA RESULT:      -8.0      3.887      9.837
REMARK  5 active torsions:
REMARK  status: ('A' for Active; 'I' for Inactive)
REMARK    1  A    between atoms: O_2  and  C_3 
REMARK    2  A    between atoms: C_6  and  C_7 
REMARK       I    between atoms: C_7  and  N_8 
REMARK    3  A    between atoms: N_8  and  C_9 
REMARK    4  A    between atoms: C_9  and  C_10 
REMARK       I    between atoms: C_10  and  N_11 
REMARK    5  A    between atoms: N_11  and  N_12 
ROOT
HETATM    1  C   UNL     1      41.265 -11.832   6.817  1.00  0.00     0.255 C 
HETATM    2  N   UNL     1      42.212 -11.387   7.720  1.00  0.00    -0.245 N 
HETATM    3  O   UNL     1      40.052 -11.654   6.927  1.00  0.00    -0.270 OA
HETATM    4  H   UNL     1      43.206 -11.498   7.507  1.00  0.00     0.192 HD
ENDROOT
BRANCH   1   5
HETATM    5  C   UNL     1      41.842 -12.517   5.579  1.00  0.00     0.227 C 
BRANCH   5   6
HETATM    6  N   UNL     1      42.102 -13.949   5.675  1.00  0.00    -0.348 N 
HETATM    7  C   UNL     1      43.344 -14.423   6.040  1.00  0.00     0.252 C 
HETATM    8  O   UNL     1      44.189 -13.697   6.553  1.00  0.00    -0.268 OA
HETATM    9  H   UNL     1      41.368 -14.578   5.387  1.00  0.00     0.163 HD
BRANCH   7  10
HETATM   10  C   UNL     1      43.646 -15.862   5.774  1.00  0.00     0.032 A 
HETATM   11  C   UNL     1      43.283 -16.510   4.587  1.00  0.00     0.020 A 
HETATM   12  C   UNL     1      43.681 -17.832   4.360  1.00  0.00     0.038 A 
HETATM   13  C   UNL     1      44.462 -18.515   5.295  1.00  0.00     0.068 A 
HETATM   14  C   UNL     1      44.809 -17.881   6.488  1.00  0.00     0.038 A 
HETATM   15  C   UNL     1      44.405 -16.562   6.722  1.00  0.00     0.020 A 
BRANCH  13  16
HETATM   16  O   UNL     1      44.815 -19.785   4.933  1.00  0.00    -0.356 OA
HETATM   17  C   UNL     1      44.554 -20.148   3.582  1.00  0.00     0.210 C 
ENDBRANCH  13  16
ENDBRANCH   7  10
ENDBRANCH   5   6
ENDBRANCH   1   5
BRANCH   2  18
HETATM   18  N   UNL     1      41.822 -10.676   8.817  1.00  0.00    -0.166 NA
HETATM   19  C   UNL     1      42.644 -10.630   9.813  1.00  0.00     0.157 A 
HETATM   20  C   UNL     1      44.003 -11.317   9.972  1.00  0.00     0.277 A 
HETATM   21  C   UNL     1      42.421  -9.891  11.050  1.00  0.00     0.028 A 
HETATM   22  O   UNL     1      44.523 -12.037   9.146  1.00  0.00    -0.266 OA
HETATM   23  N   UNL     1      44.456 -10.951  11.223  1.00  0.00    -0.321 N 
HETATM   24  C   UNL     1      43.536 -10.119  11.855  1.00  0.00     0.048 A 
HETATM   25  H   UNL     1      45.338 -11.260  11.604  1.00  0.00     0.169 HD
HETATM   26  C   UNL     1      43.638  -9.551  13.107  1.00  0.00     0.032 A 
HETATM   27  C   UNL     1      42.580  -8.737  13.532  1.00  0.00     0.021 A 
HETATM   28  C   UNL     1      41.460  -8.513  12.704  1.00  0.00     0.012 A 
HETATM   29 BR   UNL     1      40.060  -7.400  13.321  1.00  0.00    -0.051 Br
HETATM   30  C   UNL     1      41.365  -9.094  11.440  1.00  0.00     0.035 A 
ENDBRANCH   2  18
TORSDOF 5
ENDMDL
