MODEL 1
REMARK VINA RESULT:      -8.4      0.000      0.000
REMARK  7 active torsions:
REMARK  status: ('A' for Active; 'I' for Inactive)
REMARK    1  A    between atoms: C_2  and  S_3 
REMARK    2  A    between atoms: C_2  and  C_20 
REMARK    3  A    between atoms: S_3  and  C_4 
REMARK    4  A    between atoms: C_4  and  C_5 
REMARK       I    between atoms: C_5  and  N_6 
REMARK    5  A    between atoms: N_6  and  C_7 
REMARK    6  A    between atoms: C_10  and  C_11 
REMARK       I    between atoms: C_11  and  N_12 
REMARK    7  A    between atoms: N_12  and  C_13 
ROOT
HETATM    1  C   UNL     1      43.247 -13.989   4.198  1.00  0.00     0.231 C 
HETATM    2  N   UNL     1      42.123 -14.447   3.525  1.00  0.00    -0.327 N 
HETATM    3  O   UNL     1      44.302 -13.627   3.684  1.00  0.00    -0.272 OA
HETATM    4  H   UNL     1      41.385 -14.841   4.096  1.00  0.00     0.169 HD
ENDROOT
BRANCH   1   5
HETATM    5  C   UNL     1      43.054 -13.937   5.707  1.00  0.00     0.177 C 
BRANCH   5   6
HETATM    6  S   UNL     1      44.198 -15.105   6.515  1.00  0.00    -0.147 SA
BRANCH   6   7
HETATM    7  C   UNL     1      43.114 -16.585   6.645  1.00  0.00     0.113 C 
HETATM    8  C   UNL     1      43.266 -17.257   8.008  1.00  0.00     0.029 C 
BRANCH   7   9
HETATM    9  C   UNL     1      43.353 -17.535   5.510  1.00  0.00     0.118 A 
HETATM   10  N   UNL     1      42.743 -17.551   4.340  1.00  0.00    -0.232 NA
HETATM   11  C   UNL     1      43.256 -18.632   3.666  1.00  0.00     0.085 A 
HETATM   12  C   UNL     1      44.203 -19.293   4.438  1.00  0.00     0.062 A 
HETATM   13  C   UNL     1      42.950 -19.122   2.388  1.00  0.00     0.034 A 
HETATM   14  N   UNL     1      44.253 -18.572   5.603  1.00  0.00    -0.342 N 
HETATM   15  C   UNL     1      44.878 -20.438   4.011  1.00  0.00     0.032 A 
HETATM   16  H   UNL     1      44.812 -18.793   6.414  1.00  0.00     0.167 HD
HETATM   17  C   UNL     1      44.559 -20.914   2.733  1.00  0.00     0.002 A 
HETATM   18  C   UNL     1      43.612 -20.269   1.934  1.00  0.00     0.002 A 
ENDBRANCH   7   9
ENDBRANCH   6   7
ENDBRANCH   5   6
ENDBRANCH   1   5
BRANCH   2  19
HETATM   19  C   UNL     1      41.888 -14.413   2.136  1.00  0.00     0.034 A 
HETATM   20  C   UNL     1      41.777 -13.234   1.393  1.00  0.00     0.030 A 
HETATM   21  C   UNL     1      41.452 -13.274   0.032  1.00  0.00     0.019 A 
HETATM   22  C   UNL     1      41.219 -14.499  -0.600  1.00  0.00     0.032 A 
HETATM   23  C   UNL     1      41.380 -15.685   0.125  1.00  0.00     0.019 A 
HETATM   24  C   UNL     1      41.711 -15.640   1.484  1.00  0.00     0.030 A 
BRANCH  22  25
HETATM   25  C   UNL     1      40.787 -14.590  -2.024  1.00  0.00     0.251 C 
HETATM   26  N   UNL     1      39.440 -14.811  -2.234  1.00  0.00    -0.353 N 
HETATM   27  H   UNL     1      38.872 -15.054  -1.435  1.00  0.00     0.163 HD
HETATM   28  O   UNL     1      41.623 -14.521  -2.918  1.00  0.00    -0.268 OA
BRANCH  26  29
HETATM   29  C   UNL     1      38.853 -15.087  -3.540  1.00  0.00     0.076 C 
HETATM   30  C   UNL     1      39.148 -16.499  -4.042  1.00  0.00     0.032 C 
HETATM   31  C   UNL     1      37.357 -14.780  -3.563  1.00  0.00     0.032 C 
ENDBRANCH  26  29
ENDBRANCH  22  25
ENDBRANCH   2  19
TORSDOF 7
ENDMDL
MODEL 2
REMARK VINA RESULT:      -8.0      3.473      6.569
REMARK  7 active torsions:
REMARK  status: ('A' for Active; 'I' for Inactive)
REMARK    1  A    between atoms: C_2  and  S_3 
REMARK    2  A    between atoms: C_2  and  C_20 
REMARK    3  A    between atoms: S_3  and  C_4 
REMARK    4  A    between atoms: C_4  and  C_5 
REMARK       I    between atoms: C_5  and  N_6 
REMARK    5  A    between atoms: N_6  and  C_7 
REMARK    6  A    between atoms: C_10  and  C_11 
REMARK       I    between atoms: C_11  and  N_12 
REMARK    7  A    between atoms: N_12  and  C_13 
ROOT
HETATM    1  C   UNL     1      42.951 -13.727   5.858  1.00  0.00     0.231 C 
HETATM    2  N   UNL     1      42.430 -14.920   6.337  1.00  0.00    -0.327 N 
HETATM    3  O   UNL     1      44.034 -13.581   5.296  1.00  0.00    -0.272 OA
HETATM    4  H   UNL     1      41.592 -14.852   6.901  1.00  0.00     0.169 HD
ENDROOT
BRANCH   1   5
HETATM    5  C   UNL     1      42.014 -12.545   6.066  1.00  0.00     0.177 C 
BRANCH   5   6
HETATM    6  S   UNL     1      40.353 -12.957   5.432  1.00  0.00    -0.147 SA
BRANCH   6   7
HETATM    7  C   UNL     1      40.644 -12.785   3.624  1.00  0.00     0.113 C 
HETATM    8  C   UNL     1      39.406 -12.234   2.921  1.00  0.00     0.029 C 
BRANCH   7   9
HETATM    9  C   UNL     1      41.114 -14.077   3.025  1.00  0.00     0.118 A 
HETATM   10  N   UNL     1      40.375 -15.117   2.690  1.00  0.00    -0.232 NA
HETATM   11  C   UNL     1      41.255 -16.074   2.246  1.00  0.00     0.085 A 
HETATM   12  C   UNL     1      42.563 -15.610   2.309  1.00  0.00     0.062 A 
HETATM   13  C   UNL     1      41.010 -17.375   1.784  1.00  0.00     0.034 A 
HETATM   14  N   UNL     1      42.447 -14.336   2.801  1.00  0.00    -0.342 N 
HETATM   15  C   UNL     1      43.668 -16.377   1.935  1.00  0.00     0.032 A 
HETATM   16  H   UNL     1      43.211 -13.710   3.015  1.00  0.00     0.167 HD
HETATM   17  C   UNL     1      43.406 -17.674   1.477  1.00  0.00     0.002 A 
HETATM   18  C   UNL     1      42.100 -18.167   1.402  1.00  0.00     0.002 A 
ENDBRANCH   7   9
ENDBRANCH   6   7
ENDBRANCH   5   6
ENDBRANCH   1   5
BRANCH   2  19
HETATM   19  C   UNL     1      42.930 -16.219   6.114  1.00  0.00     0.034 A 
HETATM   20  C   UNL     1      44.227 -16.622   6.443  1.00  0.00     0.030 A 
HETATM   21  C   UNL     1      44.684 -17.903   6.109  1.00  0.00     0.019 A 
HETATM   22  C   UNL     1      43.849 -18.792   5.427  1.00  0.00     0.032 A 
HETATM   23  C   UNL     1      42.533 -18.413   5.142  1.00  0.00     0.019 A 
HETATM   24  C   UNL     1      42.079 -17.134   5.483  1.00  0.00     0.030 A 
BRANCH  22  25
HETATM   25  C   UNL     1      44.316 -20.133   4.974  1.00  0.00     0.251 C 
HETATM   26  N   UNL     1      44.462 -20.294   3.611  1.00  0.00    -0.353 N 
HETATM   27  H   UNL     1      44.099 -19.569   3.009  1.00  0.00     0.163 HD
HETATM   28  O   UNL     1      44.494 -21.024   5.797  1.00  0.00    -0.268 OA
BRANCH  26  29
HETATM   29  C   UNL     1      44.754 -21.570   2.966  1.00  0.00     0.076 C 
HETATM   30  C   UNL     1      44.643 -22.759   3.917  1.00  0.00     0.032 C 
HETATM   31  C   UNL     1      43.913 -21.772   1.708  1.00  0.00     0.032 C 
ENDBRANCH  26  29
ENDBRANCH  22  25
ENDBRANCH   2  19
TORSDOF 7
ENDMDL
MODEL 3
REMARK VINA RESULT:      -7.8      3.072      7.375
REMARK  7 active torsions:
REMARK  status: ('A' for Active; 'I' for Inactive)
REMARK    1  A    between atoms: C_2  and  S_3 
REMARK    2  A    between atoms: C_2  and  C_20 
REMARK    3  A    between atoms: S_3  and  C_4 
REMARK    4  A    between atoms: C_4  and  C_5 
REMARK       I    between atoms: C_5  and  N_6 
REMARK    5  A    between atoms: N_6  and  C_7 
REMARK    6  A    between atoms: C_10  and  C_11 
REMARK       I    between atoms: C_11  and  N_12 
REMARK    7  A    between atoms: N_12  and  C_13 
ROOT
HETATM    1  C   UNL     1      39.400 -14.444   0.415  1.00  0.00     0.231 C 
HETATM    2  N   UNL     1      40.494 -15.234   0.092  1.00  0.00    -0.327 N 
HETATM    3  O   UNL     1      38.700 -14.550   1.419  1.00  0.00    -0.272 OA
HETATM    4  H   UNL     1      40.879 -15.113  -0.837  1.00  0.00     0.169 HD
ENDROOT
BRANCH   1   5
HETATM    5  C   UNL     1      39.132 -13.354  -0.613  1.00  0.00     0.177 C 
BRANCH   5   6
HETATM    6  S   UNL     1      38.910 -11.752   0.231  1.00  0.00    -0.147 SA
BRANCH   6   7
HETATM    7  C   UNL     1      40.668 -11.289   0.516  1.00  0.00     0.113 C 
HETATM    8  C   UNL     1      41.468 -11.357  -0.783  1.00  0.00     0.029 C 
BRANCH   7   9
HETATM    9  C   UNL     1      41.277 -12.118   1.607  1.00  0.00     0.118 A 
HETATM   10  N   UNL     1      42.440 -12.740   1.583  1.00  0.00    -0.232 NA
HETATM   11  C   UNL     1      42.530 -13.411   2.778  1.00  0.00     0.085 A 
HETATM   12  C   UNL     1      41.398 -13.193   3.554  1.00  0.00     0.062 A 
HETATM   13  C   UNL     1      43.549 -14.240   3.267  1.00  0.00     0.034 A 
HETATM   14  N   UNL     1      40.619 -12.363   2.791  1.00  0.00    -0.342 N 
HETATM   15  C   UNL     1      41.210 -13.765   4.814  1.00  0.00     0.032 A 
HETATM   16  H   UNL     1      39.697 -12.029   3.030  1.00  0.00     0.167 HD
HETATM   17  C   UNL     1      42.236 -14.592   5.287  1.00  0.00     0.002 A 
HETATM   18  C   UNL     1      43.386 -14.827   4.529  1.00  0.00     0.002 A 
ENDBRANCH   7   9
ENDBRANCH   6   7
ENDBRANCH   5   6
ENDBRANCH   1   5
BRANCH   2  19
HETATM   19  C   UNL     1      41.140 -16.175   0.918  1.00  0.00     0.034 A 
HETATM   20  C   UNL     1      40.658 -16.576   2.167  1.00  0.00     0.030 A 
HETATM   21  C   UNL     1      41.400 -17.448   2.973  1.00  0.00     0.019 A 
HETATM   22  C   UNL     1      42.644 -17.919   2.543  1.00  0.00     0.032 A 
HETATM   23  C   UNL     1      43.107 -17.562   1.271  1.00  0.00     0.019 A 
HETATM   24  C   UNL     1      42.359 -16.696   0.467  1.00  0.00     0.030 A 
BRANCH  22  25
HETATM   25  C   UNL     1      43.509 -18.779   3.399  1.00  0.00     0.251 C 
HETATM   26  N   UNL     1      43.579 -18.427   4.733  1.00  0.00    -0.353 N 
HETATM   27  H   UNL     1      43.183 -17.540   5.008  1.00  0.00     0.163 HD
HETATM   28  O   UNL     1      44.143 -19.697   2.893  1.00  0.00    -0.268 OA
BRANCH  26  29
HETATM   29  C   UNL     1      44.489 -19.044   5.692  1.00  0.00     0.076 C 
HETATM   30  C   UNL     1      45.233 -18.023   6.550  1.00  0.00     0.032 C 
HETATM   31  C   UNL     1      43.783 -20.093   6.546  1.00  0.00     0.032 C 
ENDBRANCH  26  29
ENDBRANCH  22  25
ENDBRANCH   2  19
TORSDOF 7
ENDMDL
MODEL 4
REMARK VINA RESULT:      -7.7      4.968      8.708
REMARK  7 active torsions:
REMARK  status: ('A' for Active; 'I' for Inactive)
REMARK    1  A    between atoms: C_2  and  S_3 
REMARK    2  A    between atoms: C_2  and  C_20 
REMARK    3  A    between atoms: S_3  and  C_4 
REMARK    4  A    between atoms: C_4  and  C_5 
REMARK       I    between atoms: C_5  and  N_6 
REMARK    5  A    between atoms: N_6  and  C_7 
REMARK    6  A    between atoms: C_10  and  C_11 
REMARK       I    between atoms: C_11  and  N_12 
REMARK    7  A    between atoms: N_12  and  C_13 
ROOT
HETATM    1  C   UNL     1      40.696 -13.400   5.869  1.00  0.00     0.231 C 
HETATM    2  N   UNL     1      40.721 -14.736   6.238  1.00  0.00    -0.327 N 
HETATM    3  O   UNL     1      41.543 -12.818   5.194  1.00  0.00    -0.272 OA
HETATM    4  H   UNL     1      40.025 -15.031   6.913  1.00  0.00     0.169 HD
ENDROOT
BRANCH   1   5
HETATM    5  C   UNL     1      39.457 -12.670   6.366  1.00  0.00     0.177 C 
BRANCH   5   6
HETATM    6  S   UNL     1      39.797 -10.880   6.473  1.00  0.00    -0.147 SA
BRANCH   6   7
HETATM    7  C   UNL     1      39.479 -10.596   8.262  1.00  0.00     0.113 C 
HETATM    8  C   UNL     1      38.748  -9.274   8.484  1.00  0.00     0.029 C 
BRANCH   7   9
HETATM    9  C   UNL     1      40.745 -10.691   9.060  1.00  0.00     0.118 A 
HETATM   10  N   UNL     1      40.911 -10.389  10.333  1.00  0.00    -0.232 NA
HETATM   11  C   UNL     1      42.247 -10.579  10.591  1.00  0.00     0.085 A 
HETATM   12  C   UNL     1      42.915 -11.009   9.451  1.00  0.00     0.062 A 
HETATM   13  C   UNL     1      42.968 -10.391  11.778  1.00  0.00     0.034 A 
HETATM   14  N   UNL     1      41.937 -11.079   8.492  1.00  0.00    -0.342 N 
HETATM   15  C   UNL     1      44.286 -11.267   9.416  1.00  0.00     0.032 A 
HETATM   16  H   UNL     1      42.074 -11.322   7.522  1.00  0.00     0.167 HD
HETATM   17  C   UNL     1      44.991 -11.073  10.610  1.00  0.00     0.002 A 
HETATM   18  C   UNL     1      44.346 -10.642  11.772  1.00  0.00     0.002 A 
ENDBRANCH   7   9
ENDBRANCH   6   7
ENDBRANCH   5   6
ENDBRANCH   1   5
BRANCH   2  19
HETATM   19  C   UNL     1      41.597 -15.735   5.769  1.00  0.00     0.034 A 
HETATM   20  C   UNL     1      41.214 -16.764   4.904  1.00  0.00     0.030 A 
HETATM   21  C   UNL     1      42.116 -17.775   4.551  1.00  0.00     0.019 A 
HETATM   22  C   UNL     1      43.413 -17.775   5.072  1.00  0.00     0.032 A 
HETATM   23  C   UNL     1      43.818 -16.719   5.896  1.00  0.00     0.019 A 
HETATM   24  C   UNL     1      42.915 -15.708   6.242  1.00  0.00     0.030 A 
BRANCH  22  25
HETATM   25  C   UNL     1      44.382 -18.873   4.795  1.00  0.00     0.251 C 
HETATM   26  N   UNL     1      44.005 -19.780   3.825  1.00  0.00    -0.353 N 
HETATM   27  H   UNL     1      43.054 -19.742   3.488  1.00  0.00     0.163 HD
HETATM   28  O   UNL     1      45.412 -18.954   5.454  1.00  0.00    -0.268 OA
BRANCH  26  29
HETATM   29  C   UNL     1      44.739 -21.005   3.525  1.00  0.00     0.076 C 
HETATM   30  C   UNL     1      44.690 -22.024   4.661  1.00  0.00     0.032 C 
HETATM   31  C   UNL     1      44.299 -21.616   2.197  1.00  0.00     0.032 C 
ENDBRANCH  26  29
ENDBRANCH  22  25
ENDBRANCH   2  19
TORSDOF 7
ENDMDL
MODEL 5
REMARK VINA RESULT:      -7.5      3.470      6.756
REMARK  7 active torsions:
REMARK  status: ('A' for Active; 'I' for Inactive)
REMARK    1  A    between atoms: C_2  and  S_3 
REMARK    2  A    between atoms: C_2  and  C_20 
REMARK    3  A    between atoms: S_3  and  C_4 
REMARK    4  A    between atoms: C_4  and  C_5 
REMARK       I    between atoms: C_5  and  N_6 
REMARK    5  A    between atoms: N_6  and  C_7 
REMARK    6  A    between atoms: C_10  and  C_11 
REMARK       I    between atoms: C_11  and  N_12 
REMARK    7  A    between atoms: N_12  and  C_13 
ROOT
HETATM    1  C   UNL     1      41.108 -13.036   5.976  1.00  0.00     0.231 C 
HETATM    2  N   UNL     1      40.842 -14.397   5.947  1.00  0.00    -0.327 N 
HETATM    3  O   UNL     1      42.210 -12.516   6.131  1.00  0.00    -0.272 OA
HETATM    4  H   UNL     1      39.865 -14.666   5.953  1.00  0.00     0.169 HD
ENDROOT
BRANCH   1   5
HETATM    5  C   UNL     1      39.865 -12.184   5.759  1.00  0.00     0.177 C 
BRANCH   5   6
HETATM    6  S   UNL     1      39.176 -12.510   4.102  1.00  0.00    -0.147 SA
BRANCH   6   7
HETATM    7  C   UNL     1      40.675 -12.250   3.069  1.00  0.00     0.113 C 
HETATM    8  C   UNL     1      40.351 -11.410   1.836  1.00  0.00     0.029 C 
BRANCH   7   9
HETATM    9  C   UNL     1      41.325 -13.555   2.718  1.00  0.00     0.118 A 
HETATM   10  N   UNL     1      42.593 -13.883   2.874  1.00  0.00    -0.232 NA
HETATM   11  C   UNL     1      42.718 -15.148   2.353  1.00  0.00     0.085 A 
HETATM   12  C   UNL     1      41.500 -15.607   1.869  1.00  0.00     0.062 A 
HETATM   13  C   UNL     1      43.851 -15.967   2.247  1.00  0.00     0.034 A 
HETATM   14  N   UNL     1      40.628 -14.579   2.118  1.00  0.00    -0.342 N 
HETATM   15  C   UNL     1      41.334 -16.857   1.270  1.00  0.00     0.032 A 
HETATM   16  H   UNL     1      39.652 -14.553   1.859  1.00  0.00     0.167 HD
HETATM   17  C   UNL     1      42.475 -17.662   1.170  1.00  0.00     0.002 A 
HETATM   18  C   UNL     1      43.714 -17.227   1.649  1.00  0.00     0.002 A 
ENDBRANCH   7   9
ENDBRANCH   6   7
ENDBRANCH   5   6
ENDBRANCH   1   5
BRANCH   2  19
HETATM   19  C   UNL     1      41.778 -15.449   5.895  1.00  0.00     0.034 A 
HETATM   20  C   UNL     1      43.098 -15.339   6.340  1.00  0.00     0.030 A 
HETATM   21  C   UNL     1      43.999 -16.398   6.173  1.00  0.00     0.019 A 
HETATM   22  C   UNL     1      43.591 -17.577   5.544  1.00  0.00     0.032 A 
HETATM   23  C   UNL     1      42.257 -17.712   5.144  1.00  0.00     0.019 A 
HETATM   24  C   UNL     1      41.359 -16.654   5.317  1.00  0.00     0.030 A 
BRANCH  22  25
HETATM   25  C   UNL     1      44.534 -18.698   5.266  1.00  0.00     0.251 C 
HETATM   26  N   UNL     1      44.132 -19.600   4.301  1.00  0.00    -0.353 N 
HETATM   27  H   UNL     1      43.181 -19.541   3.967  1.00  0.00     0.163 HD
HETATM   28  O   UNL     1      45.564 -18.801   5.921  1.00  0.00    -0.268 OA
BRANCH  26  29
HETATM   29  C   UNL     1      44.836 -20.843   4.002  1.00  0.00     0.076 C 
HETATM   30  C   UNL     1      44.711 -21.882   5.114  1.00  0.00     0.032 C 
HETATM   31  C   UNL     1      44.425 -21.412   2.646  1.00  0.00     0.032 C 
ENDBRANCH  26  29
ENDBRANCH  22  25
ENDBRANCH   2  19
TORSDOF 7
ENDMDL
MODEL 6
REMARK VINA RESULT:      -7.3      1.895      2.464
REMARK  7 active torsions:
REMARK  status: ('A' for Active; 'I' for Inactive)
REMARK    1  A    between atoms: C_2  and  S_3 
REMARK    2  A    between atoms: C_2  and  C_20 
REMARK    3  A    between atoms: S_3  and  C_4 
REMARK    4  A    between atoms: C_4  and  C_5 
REMARK       I    between atoms: C_5  and  N_6 
REMARK    5  A    between atoms: N_6  and  C_7 
REMARK    6  A    between atoms: C_10  and  C_11 
REMARK       I    between atoms: C_11  and  N_12 
REMARK    7  A    between atoms: N_12  and  C_13 
ROOT
HETATM    1  C   UNL     1      41.743 -16.107   5.114  1.00  0.00     0.231 C 
HETATM    2  N   UNL     1      41.296 -14.911   4.572  1.00  0.00    -0.327 N 
HETATM    3  O   UNL     1      41.672 -17.215   4.587  1.00  0.00    -0.272 OA
HETATM    4  H   UNL     1      41.298 -14.108   5.188  1.00  0.00     0.169 HD
ENDROOT
BRANCH   1   5
HETATM    5  C   UNL     1      42.393 -15.933   6.479  1.00  0.00     0.177 C 
BRANCH   5   6
HETATM    6  S   UNL     1      42.499 -17.547   7.322  1.00  0.00    -0.147 SA
BRANCH   6   7
HETATM    7  C   UNL     1      44.233 -18.012   6.917  1.00  0.00     0.113 C 
HETATM    8  C   UNL     1      45.047 -16.786   6.512  1.00  0.00     0.029 C 
BRANCH   7   9
HETATM    9  C   UNL     1      44.275 -19.095   5.881  1.00  0.00     0.118 A 
HETATM   10  N   UNL     1      44.465 -20.385   6.082  1.00  0.00    -0.232 NA
HETATM   11  C   UNL     1      44.483 -20.959   4.834  1.00  0.00     0.085 A 
HETATM   12  C   UNL     1      44.299 -20.000   3.846  1.00  0.00     0.062 A 
HETATM   13  C   UNL     1      44.667 -22.299   4.464  1.00  0.00     0.034 A 
HETATM   14  N   UNL     1      44.162 -18.824   4.536  1.00  0.00    -0.342 N 
HETATM   15  C   UNL     1      44.288 -20.296   2.482  1.00  0.00     0.032 A 
HETATM   16  H   UNL     1      44.051 -17.906   4.130  1.00  0.00     0.167 HD
HETATM   17  C   UNL     1      44.475 -21.639   2.130  1.00  0.00     0.002 A 
HETATM   18  C   UNL     1      44.661 -22.625   3.102  1.00  0.00     0.002 A 
ENDBRANCH   7   9
ENDBRANCH   6   7
ENDBRANCH   5   6
ENDBRANCH   1   5
BRANCH   2  19
HETATM   19  C   UNL     1      40.854 -14.686   3.253  1.00  0.00     0.034 A 
HETATM   20  C   UNL     1      39.516 -14.759   2.856  1.00  0.00     0.030 A 
HETATM   21  C   UNL     1      39.160 -14.612   1.510  1.00  0.00     0.019 A 
HETATM   22  C   UNL     1      40.144 -14.404   0.540  1.00  0.00     0.032 A 
HETATM   23  C   UNL     1      41.480 -14.278   0.938  1.00  0.00     0.019 A 
HETATM   24  C   UNL     1      41.830 -14.419   2.285  1.00  0.00     0.030 A 
BRANCH  22  25
HETATM   25  C   UNL     1      39.825 -14.327  -0.914  1.00  0.00     0.251 C 
HETATM   26  N   UNL     1      40.515 -15.201  -1.731  1.00  0.00    -0.353 N 
HETATM   27  H   UNL     1      41.289 -15.711  -1.329  1.00  0.00     0.163 HD
HETATM   28  O   UNL     1      39.032 -13.485  -1.318  1.00  0.00    -0.268 OA
BRANCH  26  29
HETATM   29  C   UNL     1      40.460 -15.171  -3.188  1.00  0.00     0.076 C 
HETATM   30  C   UNL     1      39.108 -15.611  -3.744  1.00  0.00     0.032 C 
HETATM   31  C   UNL     1      40.884 -13.812  -3.741  1.00  0.00     0.032 C 
ENDBRANCH  26  29
ENDBRANCH  22  25
ENDBRANCH   2  19
TORSDOF 7
ENDMDL
MODEL 7
REMARK VINA RESULT:      -7.3      3.199      7.314
REMARK  7 active torsions:
REMARK  status: ('A' for Active; 'I' for Inactive)
REMARK    1  A    between atoms: C_2  and  S_3 
REMARK    2  A    between atoms: C_2  and  C_20 
REMARK    3  A    between atoms: S_3  and  C_4 
REMARK    4  A    between atoms: C_4  and  C_5 
REMARK       I    between atoms: C_5  and  N_6 
REMARK    5  A    between atoms: N_6  and  C_7 
REMARK    6  A    between atoms: C_10  and  C_11 
REMARK       I    between atoms: C_11  and  N_12 
REMARK    7  A    between atoms: N_12  and  C_13 
ROOT
HETATM    1  C   UNL     1      40.437 -12.763   4.123  1.00  0.00     0.231 C 
HETATM    2  N   UNL     1      40.102 -13.858   4.906  1.00  0.00    -0.327 N 
HETATM    3  O   UNL     1      41.568 -12.319   3.942  1.00  0.00    -0.272 OA
HETATM    4  H   UNL     1      39.114 -14.011   5.068  1.00  0.00     0.169 HD
ENDROOT
BRANCH   1   5
HETATM    5  C   UNL     1      39.231 -12.130   3.442  1.00  0.00     0.177 C 
BRANCH   5   6
HETATM    6  S   UNL     1      39.671 -11.643   1.740  1.00  0.00    -0.147 SA
BRANCH   6   7
HETATM    7  C   UNL     1      39.275 -13.200   0.844  1.00  0.00     0.113 C 
HETATM    8  C   UNL     1      37.788 -13.529   0.950  1.00  0.00     0.029 C 
BRANCH   7   9
HETATM    9  C   UNL     1      40.145 -14.329   1.309  1.00  0.00     0.118 A 
HETATM   10  N   UNL     1      39.754 -15.474   1.836  1.00  0.00    -0.232 NA
HETATM   11  C   UNL     1      40.906 -16.150   2.156  1.00  0.00     0.085 A 
HETATM   12  C   UNL     1      42.028 -15.406   1.816  1.00  0.00     0.062 A 
HETATM   13  C   UNL     1      41.072 -17.407   2.755  1.00  0.00     0.034 A 
HETATM   14  N   UNL     1      41.519 -14.255   1.273  1.00  0.00    -0.342 N 
HETATM   15  C   UNL     1      43.335 -15.841   2.043  1.00  0.00     0.032 A 
HETATM   16  H   UNL     1      42.056 -13.463   0.950  1.00  0.00     0.167 HD
HETATM   17  C   UNL     1      43.483 -17.097   2.643  1.00  0.00     0.002 A 
HETATM   18  C   UNL     1      42.373 -17.869   2.994  1.00  0.00     0.002 A 
ENDBRANCH   7   9
ENDBRANCH   6   7
ENDBRANCH   5   6
ENDBRANCH   1   5
BRANCH   2  19
HETATM   19  C   UNL     1      40.982 -14.791   5.488  1.00  0.00     0.034 A 
HETATM   20  C   UNL     1      42.372 -14.647   5.504  1.00  0.00     0.030 A 
HETATM   21  C   UNL     1      43.190 -15.659   6.020  1.00  0.00     0.019 A 
HETATM   22  C   UNL     1      42.625 -16.838   6.515  1.00  0.00     0.032 A 
HETATM   23  C   UNL     1      41.232 -16.965   6.550  1.00  0.00     0.019 A 
HETATM   24  C   UNL     1      40.418 -15.949   6.039  1.00  0.00     0.030 A 
BRANCH  22  25
HETATM   25  C   UNL     1      43.456 -17.978   6.996  1.00  0.00     0.251 C 
HETATM   26  N   UNL     1      43.651 -19.006   6.095  1.00  0.00    -0.353 N 
HETATM   27  H   UNL     1      43.101 -19.001   5.248  1.00  0.00     0.163 HD
HETATM   28  O   UNL     1      43.873 -17.982   8.148  1.00  0.00    -0.268 OA
BRANCH  26  29
HETATM   29  C   UNL     1      44.296 -20.271   6.428  1.00  0.00     0.076 C 
HETATM   30  C   UNL     1      43.456 -21.143   7.359  1.00  0.00     0.032 C 
HETATM   31  C   UNL     1      44.727 -21.032   5.176  1.00  0.00     0.032 C 
ENDBRANCH  26  29
ENDBRANCH  22  25
ENDBRANCH   2  19
TORSDOF 7
ENDMDL
MODEL 8
REMARK VINA RESULT:      -7.2      3.212      6.852
REMARK  7 active torsions:
REMARK  status: ('A' for Active; 'I' for Inactive)
REMARK    1  A    between atoms: C_2  and  S_3 
REMARK    2  A    between atoms: C_2  and  C_20 
REMARK    3  A    between atoms: S_3  and  C_4 
REMARK    4  A    between atoms: C_4  and  C_5 
REMARK       I    between atoms: C_5  and  N_6 
REMARK    5  A    between atoms: N_6  and  C_7 
REMARK    6  A    between atoms: C_10  and  C_11 
REMARK       I    between atoms: C_11  and  N_12 
REMARK    7  A    between atoms: N_12  and  C_13 
ROOT
HETATM    1  C   UNL     1      38.850 -13.585   0.279  1.00  0.00     0.231 C 
HETATM    2  N   UNL     1      40.066 -14.214   0.055  1.00  0.00    -0.327 N 
HETATM    3  O   UNL     1      37.942 -13.998   0.996  1.00  0.00    -0.272 OA
HETATM    4  H   UNL     1      40.652 -13.818  -0.671  1.00  0.00     0.169 HD
ENDROOT
BRANCH   1   5
HETATM    5  C   UNL     1      38.729 -12.253  -0.447  1.00  0.00     0.177 C 
BRANCH   5   6
HETATM    6  S   UNL     1      40.299 -11.333  -0.314  1.00  0.00    -0.147 SA
BRANCH   6   7
HETATM    7  C   UNL     1      40.238 -10.841   1.458  1.00  0.00     0.113 C 
HETATM    8  C   UNL     1      40.894  -9.479   1.670  1.00  0.00     0.029 C 
BRANCH   7   9
HETATM    9  C   UNL     1      40.829 -11.904   2.336  1.00  0.00     0.118 A 
HETATM   10  N   UNL     1      40.251 -12.508   3.357  1.00  0.00    -0.232 NA
HETATM   11  C   UNL     1      41.203 -13.350   3.879  1.00  0.00     0.085 A 
HETATM   12  C   UNL     1      42.389 -13.262   3.162  1.00  0.00     0.062 A 
HETATM   13  C   UNL     1      41.128 -14.216   4.980  1.00  0.00     0.034 A 
HETATM   14  N   UNL     1      42.125 -12.341   2.182  1.00  0.00    -0.342 N 
HETATM   15  C   UNL     1      43.534 -13.995   3.480  1.00  0.00     0.032 A 
HETATM   16  H   UNL     1      42.782 -11.999   1.496  1.00  0.00     0.167 HD
HETATM   17  C   UNL     1      43.443 -14.854   4.582  1.00  0.00     0.002 A 
HETATM   18  C   UNL     1      42.263 -14.964   5.321  1.00  0.00     0.002 A 
ENDBRANCH   7   9
ENDBRANCH   6   7
ENDBRANCH   5   6
ENDBRANCH   1   5
BRANCH   2  19
HETATM   19  C   UNL     1      40.586 -15.334   0.734  1.00  0.00     0.034 A 
HETATM   20  C   UNL     1      39.963 -15.939   1.829  1.00  0.00     0.030 A 
HETATM   21  C   UNL     1      40.582 -16.993   2.512  1.00  0.00     0.019 A 
HETATM   22  C   UNL     1      41.843 -17.445   2.113  1.00  0.00     0.032 A 
HETATM   23  C   UNL     1      42.447 -16.879   0.985  1.00  0.00     0.019 A 
HETATM   24  C   UNL     1      41.822 -15.830   0.303  1.00  0.00     0.030 A 
BRANCH  22  25
HETATM   25  C   UNL     1      42.581 -18.505   2.858  1.00  0.00     0.251 C 
HETATM   26  N   UNL     1      43.197 -19.469   2.086  1.00  0.00    -0.353 N 
HETATM   27  H   UNL     1      42.981 -19.492   1.100  1.00  0.00     0.163 HD
HETATM   28  O   UNL     1      42.566 -18.508   4.084  1.00  0.00    -0.268 OA
BRANCH  26  29
HETATM   29  C   UNL     1      43.828 -20.668   2.628  1.00  0.00     0.076 C 
HETATM   30  C   UNL     1      43.967 -21.787   1.598  1.00  0.00     0.032 C 
HETATM   31  C   UNL     1      45.161 -20.349   3.300  1.00  0.00     0.032 C 
ENDBRANCH  26  29
ENDBRANCH  22  25
ENDBRANCH   2  19
TORSDOF 7
ENDMDL
MODEL 9
REMARK VINA RESULT:      -7.2      5.084      8.886
REMARK  7 active torsions:
REMARK  status: ('A' for Active; 'I' for Inactive)
REMARK    1  A    between atoms: C_2  and  S_3 
REMARK    2  A    between atoms: C_2  and  C_20 
REMARK    3  A    between atoms: S_3  and  C_4 
REMARK    4  A    between atoms: C_4  and  C_5 
REMARK       I    between atoms: C_5  and  N_6 
REMARK    5  A    between atoms: N_6  and  C_7 
REMARK    6  A    between atoms: C_10  and  C_11 
REMARK       I    between atoms: C_11  and  N_12 
REMARK    7  A    between atoms: N_12  and  C_13 
ROOT
HETATM    1  C   UNL     1      41.252 -13.240   5.826  1.00  0.00     0.231 C 
HETATM    2  N   UNL     1      40.703 -14.449   5.423  1.00  0.00    -0.327 N 
HETATM    3  O   UNL     1      42.450 -12.985   5.925  1.00  0.00    -0.272 OA
HETATM    4  H   UNL     1      39.701 -14.547   5.530  1.00  0.00     0.169 HD
ENDROOT
BRANCH   1   5
HETATM    5  C   UNL     1      40.200 -12.183   6.129  1.00  0.00     0.177 C 
BRANCH   5   6
HETATM    6  S   UNL     1      40.968 -10.785   7.015  1.00  0.00    -0.147 SA
BRANCH   6   7
HETATM    7  C   UNL     1      39.841 -10.660   8.464  1.00  0.00     0.113 C 
HETATM    8  C   UNL     1      38.872  -9.492   8.303  1.00  0.00     0.029 C 
BRANCH   7   9
HETATM    9  C   UNL     1      40.613 -10.591   9.747  1.00  0.00     0.118 A 
HETATM   10  N   UNL     1      40.313 -11.173  10.892  1.00  0.00    -0.232 NA
HETATM   11  C   UNL     1      41.278 -10.768  11.782  1.00  0.00     0.085 A 
HETATM   12  C   UNL     1      42.192  -9.921  11.169  1.00  0.00     0.062 A 
HETATM   13  C   UNL     1      41.431 -11.075  13.141  1.00  0.00     0.034 A 
HETATM   14  N   UNL     1      41.752  -9.829   9.874  1.00  0.00    -0.342 N 
HETATM   15  C   UNL     1      43.272  -9.343  11.838  1.00  0.00     0.032 A 
HETATM   16  H   UNL     1      42.160  -9.258   9.147  1.00  0.00     0.167 HD
HETATM   17  C   UNL     1      43.410  -9.659  13.196  1.00  0.00     0.002 A 
HETATM   18  C   UNL     1      42.506 -10.509  13.839  1.00  0.00     0.002 A 
ENDBRANCH   7   9
ENDBRANCH   6   7
ENDBRANCH   5   6
ENDBRANCH   1   5
BRANCH   2  19
HETATM   19  C   UNL     1      41.383 -15.551   4.867  1.00  0.00     0.034 A 
HETATM   20  C   UNL     1      42.191 -16.421   5.603  1.00  0.00     0.030 A 
HETATM   21  C   UNL     1      42.908 -17.441   4.967  1.00  0.00     0.019 A 
HETATM   22  C   UNL     1      42.836 -17.593   3.579  1.00  0.00     0.032 A 
HETATM   23  C   UNL     1      41.988 -16.758   2.844  1.00  0.00     0.019 A 
HETATM   24  C   UNL     1      41.268 -15.744   3.484  1.00  0.00     0.030 A 
BRANCH  22  25
HETATM   25  C   UNL     1      43.646 -18.608   2.847  1.00  0.00     0.251 C 
HETATM   26  N   UNL     1      43.608 -19.892   3.354  1.00  0.00    -0.353 N 
HETATM   27  H   UNL     1      43.178 -20.029   4.257  1.00  0.00     0.163 HD
HETATM   28  O   UNL     1      44.330 -18.263   1.891  1.00  0.00    -0.268 OA
BRANCH  26  29
HETATM   29  C   UNL     1      44.451 -20.983   2.876  1.00  0.00     0.076 C 
HETATM   30  C   UNL     1      44.832 -21.968   3.978  1.00  0.00     0.032 C 
HETATM   31  C   UNL     1      43.831 -21.690   1.674  1.00  0.00     0.032 C 
ENDBRANCH  26  29
ENDBRANCH  22  25
ENDBRANCH   2  19
TORSDOF 7
ENDMDL
MODEL 10
REMARK VINA RESULT:      -7.1      2.139      4.207
REMARK  7 active torsions:
REMARK  status: ('A' for Active; 'I' for Inactive)
REMARK    1  A    between atoms: C_2  and  S_3 
REMARK    2  A    between atoms: C_2  and  C_20 
REMARK    3  A    between atoms: S_3  and  C_4 
REMARK    4  A    between atoms: C_4  and  C_5 
REMARK       I    between atoms: C_5  and  N_6 
REMARK    5  A    between atoms: N_6  and  C_7 
REMARK    6  A    between atoms: C_10  and  C_11 
REMARK       I    between atoms: C_11  and  N_12 
REMARK    7  A    between atoms: N_12  and  C_13 
ROOT
HETATM    1  C   UNL     1      43.313 -18.775   4.126  1.00  0.00     0.231 C 
HETATM    2  N   UNL     1      42.291 -17.837   4.108  1.00  0.00    -0.327 N 
HETATM    3  O   UNL     1      43.881 -19.248   3.145  1.00  0.00    -0.272 OA
HETATM    4  H   UNL     1      41.830 -17.654   4.991  1.00  0.00     0.169 HD
ENDROOT
BRANCH   1   5
HETATM    5  C   UNL     1      43.721 -19.178   5.536  1.00  0.00     0.177 C 
BRANCH   5   6
HETATM    6  S   UNL     1      45.109 -18.135   6.097  1.00  0.00    -0.147 SA
BRANCH   6   7
HETATM    7  C   UNL     1      44.223 -17.011   7.254  1.00  0.00     0.113 C 
HETATM    8  C   UNL     1      43.396 -17.805   8.262  1.00  0.00     0.029 C 
BRANCH   7   9
HETATM    9  C   UNL     1      43.402 -16.003   6.507  1.00  0.00     0.118 A 
HETATM   10  N   UNL     1      42.091 -15.854   6.546  1.00  0.00    -0.232 NA
HETATM   11  C   UNL     1      41.803 -14.851   5.653  1.00  0.00     0.085 A 
HETATM   12  C   UNL     1      42.961 -14.373   5.054  1.00  0.00     0.062 A 
HETATM   13  C   UNL     1      40.565 -14.301   5.290  1.00  0.00     0.034 A 
HETATM   14  N   UNL     1      43.965 -15.117   5.617  1.00  0.00    -0.342 N 
HETATM   15  C   UNL     1      42.966 -13.362   4.091  1.00  0.00     0.032 A 
HETATM   16  H   UNL     1      44.946 -15.063   5.384  1.00  0.00     0.167 HD
HETATM   17  C   UNL     1      41.722 -12.825   3.739  1.00  0.00     0.002 A 
HETATM   18  C   UNL     1      40.540 -13.285   4.326  1.00  0.00     0.002 A 
ENDBRANCH   7   9
ENDBRANCH   6   7
ENDBRANCH   5   6
ENDBRANCH   1   5
BRANCH   2  19
HETATM   19  C   UNL     1      41.831 -17.099   2.999  1.00  0.00     0.034 A 
HETATM   20  C   UNL     1      40.483 -16.838   2.741  1.00  0.00     0.030 A 
HETATM   21  C   UNL     1      40.093 -16.175   1.571  1.00  0.00     0.019 A 
HETATM   22  C   UNL     1      41.052 -15.777   0.635  1.00  0.00     0.032 A 
HETATM   23  C   UNL     1      42.407 -15.989   0.913  1.00  0.00     0.019 A 
HETATM   24  C   UNL     1      42.792 -16.646   2.086  1.00  0.00     0.030 A 
BRANCH  22  25
HETATM   25  C   UNL     1      40.683 -15.146  -0.664  1.00  0.00     0.251 C 
HETATM   26  N   UNL     1      41.372 -15.596  -1.772  1.00  0.00    -0.353 N 
HETATM   27  H   UNL     1      42.174 -16.191  -1.619  1.00  0.00     0.163 HD
HETATM   28  O   UNL     1      39.851 -14.246  -0.687  1.00  0.00    -0.268 OA
BRANCH  26  29
HETATM   29  C   UNL     1      41.268 -14.995  -3.098  1.00  0.00     0.076 C 
HETATM   30  C   UNL     1      39.876 -15.137  -3.709  1.00  0.00     0.032 C 
HETATM   31  C   UNL     1      41.741 -13.544  -3.098  1.00  0.00     0.032 C 
ENDBRANCH  26  29
ENDBRANCH  22  25
ENDBRANCH   2  19
TORSDOF 7
ENDMDL
