MODEL 1
REMARK VINA RESULT:      -9.1      0.000      0.000
REMARK  5 active torsions:
REMARK  status: ('A' for Active; 'I' for Inactive)
REMARK    1  A    between atoms: C_5  and  N_6 
REMARK    2  A    between atoms: C_7  and  N_8 
REMARK    3  A    between atoms: N_8  and  N_9 
REMARK    4  A    between atoms: N_13  and  C_14 
REMARK    5  A    between atoms: C_14  and  N_15 
ROOT
HETATM    1  N   UNL     1      42.914 -17.934   0.867  1.00  0.00    -0.166 NA
HETATM    2  C   UNL     1      43.391 -18.414   1.968  1.00  0.00     0.157 A 
HETATM    3  C   UNL     1      43.670 -17.715   3.297  1.00  0.00     0.281 A 
HETATM    4  O   UNL     1      43.422 -16.545   3.510  1.00  0.00    -0.265 OA
HETATM    5  N   UNL     1      44.210 -18.688   4.119  1.00  0.00    -0.284 N 
HETATM    6  C   UNL     1      43.783 -19.806   2.150  1.00  0.00     0.027 A 
HETATM    7  C   UNL     1      44.260 -19.928   3.452  1.00  0.00     0.052 A 
HETATM    8  C   UNL     1      44.698 -21.154   3.915  1.00  0.00     0.031 A 
HETATM    9  C   UNL     1      44.650 -22.246   3.039  1.00  0.00     0.002 A 
HETATM   10  C   UNL     1      44.165 -22.104   1.724  1.00  0.00     0.001 A 
HETATM   11  C   UNL     1      43.720 -20.865   1.264  1.00  0.00     0.016 A 
ENDROOT
BRANCH   1  12
HETATM   12  N   UNL     1      42.581 -16.610   0.820  1.00  0.00    -0.252 N 
HETATM   13  H   UNL     1      43.328 -15.921   0.895  1.00  0.00     0.191 HD
BRANCH  12  14
HETATM   14  C   UNL     1      41.275 -16.216   0.949  1.00  0.00     0.192 C 
HETATM   15  N   UNL     1      40.794 -15.210   0.165  1.00  0.00    -0.332 N 
HETATM   16  H   UNL     1      39.879 -14.927   0.493  1.00  0.00     0.168 HD
HETATM   17  S   UNL     1      40.181 -16.859   2.057  1.00  0.00    -0.039 SA
BRANCH  15  18
HETATM   18  C   UNL     1      41.220 -14.599  -1.036  1.00  0.00     0.040 A 
HETATM   19  C   UNL     1      41.820 -13.311  -0.959  1.00  0.00    -0.029 A 
HETATM   20  C   UNL     1      42.169 -12.626  -2.150  1.00  0.00    -0.054 A 
HETATM   21  C   UNL     1      42.050 -12.654   0.385  1.00  0.00     0.051 C 
HETATM   22  C   UNL     1      42.751 -11.237  -2.137  1.00  0.00     0.049 C 
HETATM   23  C   UNL     1      41.970 -13.251  -3.387  1.00  0.00     0.007 A 
HETATM   24  C   UNL     1      41.390 -14.511  -3.458  1.00  0.00     0.003 A 
HETATM   25  C   UNL     1      40.996 -15.170  -2.293  1.00  0.00     0.030 A 
ENDBRANCH  15  18
ENDBRANCH  12  14
ENDBRANCH   1  12
BRANCH   5  26
HETATM   26  C   UNL     1      44.562 -18.476   5.499  1.00  0.00     0.405 C 
BRANCH  26  27
HETATM   27  N   UNL     1      43.429 -18.805   6.366  1.00  0.00     0.106 N 
HETATM   28  C   UNL     1      43.834 -19.395   7.651  1.00  0.00     0.274 C 
HETATM   29  C   UNL     1      44.438 -18.394   8.641  1.00  0.00     0.030 C 
HETATM   30  C   UNL     1      43.522 -17.193   8.847  1.00  0.00     0.003 C 
HETATM   31  C   UNL     1      43.115 -16.586   7.509  1.00  0.00     0.030 C 
HETATM   32  C   UNL     1      42.542 -17.654   6.576  1.00  0.00     0.274 C 
ENDBRANCH  26  27
ENDBRANCH   5  26
TORSDOF 5
ENDMDL
MODEL 2
REMARK VINA RESULT:      -8.9      4.673      8.915
REMARK  5 active torsions:
REMARK  status: ('A' for Active; 'I' for Inactive)
REMARK    1  A    between atoms: C_5  and  N_6 
REMARK    2  A    between atoms: C_7  and  N_8 
REMARK    3  A    between atoms: N_8  and  N_9 
REMARK    4  A    between atoms: N_13  and  C_14 
REMARK    5  A    between atoms: C_14  and  N_15 
ROOT
HETATM    1  N   UNL     1      44.367 -14.785   7.668  1.00  0.00    -0.166 NA
HETATM    2  C   UNL     1      43.844 -15.305   6.606  1.00  0.00     0.157 A 
HETATM    3  C   UNL     1      42.852 -14.704   5.612  1.00  0.00     0.281 A 
HETATM    4  O   UNL     1      42.432 -13.566   5.681  1.00  0.00    -0.265 OA
HETATM    5  N   UNL     1      42.603 -15.705   4.690  1.00  0.00    -0.284 N 
HETATM    6  C   UNL     1      44.123 -16.655   6.137  1.00  0.00     0.027 A 
HETATM    7  C   UNL     1      43.366 -16.851   4.985  1.00  0.00     0.052 A 
HETATM    8  C   UNL     1      43.437 -18.054   4.308  1.00  0.00     0.031 A 
HETATM    9  C   UNL     1      44.278 -19.051   4.819  1.00  0.00     0.002 A 
HETATM   10  C   UNL     1      45.037 -18.836   5.986  1.00  0.00     0.001 A 
HETATM   11  C   UNL     1      44.964 -17.618   6.663  1.00  0.00     0.016 A 
ENDROOT
BRANCH   1  12
HETATM   12  N   UNL     1      44.028 -13.504   8.004  1.00  0.00    -0.252 N 
HETATM   13  H   UNL     1      43.085 -13.182   7.789  1.00  0.00     0.191 HD
BRANCH  12  14
HETATM   14  C   UNL     1      44.993 -12.600   8.360  1.00  0.00     0.192 C 
HETATM   15  N   UNL     1      44.707 -11.637   9.282  1.00  0.00    -0.332 N 
HETATM   16  H   UNL     1      45.456 -10.956   9.310  1.00  0.00     0.168 HD
HETATM   17  S   UNL     1      46.545 -12.542   7.708  1.00  0.00    -0.039 SA
BRANCH  15  18
HETATM   18  C   UNL     1      43.702 -11.469  10.261  1.00  0.00     0.040 A 
HETATM   19  C   UNL     1      42.494 -10.820   9.879  1.00  0.00    -0.029 A 
HETATM   20  C   UNL     1      41.504 -10.546  10.856  1.00  0.00    -0.054 A 
HETATM   21  C   UNL     1      42.280 -10.387   8.445  1.00  0.00     0.051 C 
HETATM   22  C   UNL     1      40.233  -9.809  10.527  1.00  0.00     0.049 C 
HETATM   23  C   UNL     1      41.705 -10.968  12.176  1.00  0.00     0.007 A 
HETATM   24  C   UNL     1      42.882 -11.607  12.543  1.00  0.00     0.003 A 
HETATM   25  C   UNL     1      43.883 -11.835  11.599  1.00  0.00     0.030 A 
ENDBRANCH  15  18
ENDBRANCH  12  14
ENDBRANCH   1  12
BRANCH   5  26
HETATM   26  C   UNL     1      41.765 -15.544   3.530  1.00  0.00     0.405 C 
BRANCH  26  27
HETATM   27  N   UNL     1      42.567 -15.119   2.382  1.00  0.00     0.106 N 
HETATM   28  C   UNL     1      42.673 -16.146   1.335  1.00  0.00     0.274 C 
HETATM   29  C   UNL     1      41.397 -16.336   0.508  1.00  0.00     0.030 C 
HETATM   30  C   UNL     1      40.900 -15.013  -0.062  1.00  0.00     0.003 C 
HETATM   31  C   UNL     1      40.788 -13.958   1.033  1.00  0.00     0.030 C 
HETATM   32  C   UNL     1      42.095 -13.846   1.820  1.00  0.00     0.274 C 
ENDBRANCH  26  27
ENDBRANCH   5  26
TORSDOF 5
ENDMDL
MODEL 3
REMARK VINA RESULT:      -8.8      3.001      8.615
REMARK  5 active torsions:
REMARK  status: ('A' for Active; 'I' for Inactive)
REMARK    1  A    between atoms: C_5  and  N_6 
REMARK    2  A    between atoms: C_7  and  N_8 
REMARK    3  A    between atoms: N_8  and  N_9 
REMARK    4  A    between atoms: N_13  and  C_14 
REMARK    5  A    between atoms: C_14  and  N_15 
ROOT
HETATM    1  N   UNL     1      41.395 -15.353   5.487  1.00  0.00    -0.166 NA
HETATM    2  C   UNL     1      40.781 -14.849   4.467  1.00  0.00     0.157 A 
HETATM    3  C   UNL     1      40.630 -15.398   3.051  1.00  0.00     0.281 A 
HETATM    4  O   UNL     1      41.067 -16.474   2.693  1.00  0.00    -0.265 OA
HETATM    5  N   UNL     1      39.912 -14.440   2.359  1.00  0.00    -0.284 N 
HETATM    6  C   UNL     1      40.079 -13.573   4.487  1.00  0.00     0.027 A 
HETATM    7  C   UNL     1      39.567 -13.370   3.208  1.00  0.00     0.052 A 
HETATM    8  C   UNL     1      38.836 -12.231   2.929  1.00  0.00     0.031 A 
HETATM    9  C   UNL     1      38.638 -11.304   3.961  1.00  0.00     0.002 A 
HETATM   10  C   UNL     1      39.163 -11.526   5.249  1.00  0.00     0.001 A 
HETATM   11  C   UNL     1      39.897 -12.679   5.525  1.00  0.00     0.016 A 
ENDROOT
BRANCH   1  12
HETATM   12  N   UNL     1      42.017 -16.562   5.345  1.00  0.00    -0.252 N 
HETATM   13  H   UNL     1      41.444 -17.379   5.138  1.00  0.00     0.191 HD
BRANCH  12  14
HETATM   14  C   UNL     1      43.319 -16.724   5.738  1.00  0.00     0.192 C 
HETATM   15  N   UNL     1      44.073 -17.713   5.180  1.00  0.00    -0.332 N 
HETATM   16  H   UNL     1      44.944 -17.809   5.688  1.00  0.00     0.168 HD
HETATM   17  S   UNL     1      44.089 -15.805   6.922  1.00  0.00    -0.039 SA
BRANCH  15  18
HETATM   18  C   UNL     1      43.967 -18.502   4.012  1.00  0.00     0.040 A 
HETATM   19  C   UNL     1      44.202 -19.901   4.123  1.00  0.00    -0.029 A 
HETATM   20  C   UNL     1      44.201 -20.709   2.958  1.00  0.00    -0.054 A 
HETATM   21  C   UNL     1      44.493 -20.522   5.472  1.00  0.00     0.051 C 
HETATM   22  C   UNL     1      44.504 -22.183   3.002  1.00  0.00     0.049 C 
HETATM   23  C   UNL     1      43.913 -20.127   1.717  1.00  0.00     0.007 A 
HETATM   24  C   UNL     1      43.677 -18.762   1.614  1.00  0.00     0.003 A 
HETATM   25  C   UNL     1      43.726 -17.952   2.749  1.00  0.00     0.030 A 
ENDBRANCH  15  18
ENDBRANCH  12  14
ENDBRANCH   1  12
BRANCH   5  26
HETATM   26  C   UNL     1      39.484 -14.581   0.991  1.00  0.00     0.405 C 
BRANCH  26  27
HETATM   27  N   UNL     1      40.331 -13.774   0.111  1.00  0.00     0.106 N 
HETATM   28  C   UNL     1      41.430 -14.539  -0.500  1.00  0.00     0.274 C 
HETATM   29  C   UNL     1      40.990 -15.489  -1.618  1.00  0.00     0.030 C 
HETATM   30  C   UNL     1      40.166 -14.763  -2.675  1.00  0.00     0.003 C 
HETATM   31  C   UNL     1      39.027 -13.979  -2.032  1.00  0.00     0.030 C 
HETATM   32  C   UNL     1      39.550 -13.072  -0.916  1.00  0.00     0.274 C 
ENDBRANCH  26  27
ENDBRANCH   5  26
TORSDOF 5
ENDMDL
MODEL 4
REMARK VINA RESULT:      -8.8      1.699      4.096
REMARK  5 active torsions:
REMARK  status: ('A' for Active; 'I' for Inactive)
REMARK    1  A    between atoms: C_5  and  N_6 
REMARK    2  A    between atoms: C_7  and  N_8 
REMARK    3  A    between atoms: N_8  and  N_9 
REMARK    4  A    between atoms: N_13  and  C_14 
REMARK    5  A    between atoms: C_14  and  N_15 
ROOT
HETATM    1  N   UNL     1      42.293 -14.733   2.463  1.00  0.00    -0.166 NA
HETATM    2  C   UNL     1      42.653 -15.749   3.177  1.00  0.00     0.157 A 
HETATM    3  C   UNL     1      42.550 -17.241   2.873  1.00  0.00     0.281 A 
HETATM    4  O   UNL     1      42.122 -17.689   1.827  1.00  0.00    -0.265 OA
HETATM    5  N   UNL     1      43.048 -17.882   3.993  1.00  0.00    -0.284 N 
HETATM    6  C   UNL     1      43.259 -15.644   4.498  1.00  0.00     0.027 A 
HETATM    7  C   UNL     1      43.486 -16.942   4.947  1.00  0.00     0.052 A 
HETATM    8  C   UNL     1      44.068 -17.155   6.181  1.00  0.00     0.031 A 
HETATM    9  C   UNL     1      44.409 -16.035   6.953  1.00  0.00     0.002 A 
HETATM   10  C   UNL     1      44.171 -14.728   6.483  1.00  0.00     0.001 A 
HETATM   11  C   UNL     1      43.587 -14.521   5.234  1.00  0.00     0.016 A 
ENDROOT
BRANCH   1  12
HETATM   12  N   UNL     1      41.736 -14.960   1.236  1.00  0.00    -0.252 N 
HETATM   13  H   UNL     1      42.346 -15.262   0.477  1.00  0.00     0.191 HD
BRANCH  12  14
HETATM   14  C   UNL     1      40.464 -14.535   0.960  1.00  0.00     0.192 C 
HETATM   15  N   UNL     1      40.260 -13.617  -0.026  1.00  0.00    -0.332 N 
HETATM   16  H   UNL     1      39.303 -13.285   0.006  1.00  0.00     0.168 HD
HETATM   17  S   UNL     1      39.082 -15.032   1.786  1.00  0.00    -0.039 SA
BRANCH  15  18
HETATM   18  C   UNL     1      41.022 -13.152  -1.122  1.00  0.00     0.040 A 
HETATM   19  C   UNL     1      41.821 -11.988  -0.939  1.00  0.00    -0.029 A 
HETATM   20  C   UNL     1      42.521 -11.436  -2.041  1.00  0.00    -0.054 A 
HETATM   21  C   UNL     1      41.894 -11.317   0.416  1.00  0.00     0.051 C 
HETATM   22  C   UNL     1      43.334 -10.174  -1.926  1.00  0.00     0.049 C 
HETATM   23  C   UNL     1      42.462 -12.077  -3.285  1.00  0.00     0.007 A 
HETATM   24  C   UNL     1      41.686 -13.216  -3.457  1.00  0.00     0.003 A 
HETATM   25  C   UNL     1      40.953 -13.736  -2.391  1.00  0.00     0.030 A 
ENDBRANCH  15  18
ENDBRANCH  12  14
ENDBRANCH   1  12
BRANCH   5  26
HETATM   26  C   UNL     1      43.198 -19.309   4.108  1.00  0.00     0.405 C 
BRANCH  26  27
HETATM   27  N   UNL     1      44.536 -19.714   3.674  1.00  0.00     0.106 N 
HETATM   28  C   UNL     1      45.229 -20.569   4.650  1.00  0.00     0.274 C 
HETATM   29  C   UNL     1      44.700 -22.006   4.715  1.00  0.00     0.030 C 
HETATM   30  C   UNL     1      44.670 -22.651   3.334  1.00  0.00     0.003 C 
HETATM   31  C   UNL     1      43.945 -21.759   2.334  1.00  0.00     0.030 C 
HETATM   32  C   UNL     1      44.521 -20.342   2.347  1.00  0.00     0.274 C 
ENDBRANCH  26  27
ENDBRANCH   5  26
TORSDOF 5
ENDMDL
MODEL 5
REMARK VINA RESULT:      -8.6      2.171      8.882
REMARK  5 active torsions:
REMARK  status: ('A' for Active; 'I' for Inactive)
REMARK    1  A    between atoms: C_5  and  N_6 
REMARK    2  A    between atoms: C_7  and  N_8 
REMARK    3  A    between atoms: N_8  and  N_9 
REMARK    4  A    between atoms: N_13  and  C_14 
REMARK    5  A    between atoms: C_14  and  N_15 
ROOT
HETATM    1  N   UNL     1      42.088 -15.638   1.033  1.00  0.00    -0.166 NA
HETATM    2  C   UNL     1      41.838 -14.612   0.287  1.00  0.00     0.157 A 
HETATM    3  C   UNL     1      42.006 -13.124   0.587  1.00  0.00     0.281 A 
HETATM    4  O   UNL     1      42.466 -12.692   1.625  1.00  0.00    -0.265 OA
HETATM    5  N   UNL     1      41.554 -12.467  -0.543  1.00  0.00    -0.284 N 
HETATM    6  C   UNL     1      41.307 -14.697  -1.067  1.00  0.00     0.027 A 
HETATM    7  C   UNL     1      41.160 -13.392  -1.529  1.00  0.00     0.052 A 
HETATM    8  C   UNL     1      40.679 -13.161  -2.804  1.00  0.00     0.031 A 
HETATM    9  C   UNL     1      40.346 -14.269  -3.595  1.00  0.00     0.002 A 
HETATM   10  C   UNL     1      40.502 -15.583  -3.110  1.00  0.00     0.001 A 
HETATM   11  C   UNL     1      40.991 -15.809  -1.825  1.00  0.00     0.016 A 
ENDROOT
BRANCH   1  12
HETATM   12  N   UNL     1      42.588 -15.429   2.288  1.00  0.00    -0.252 N 
HETATM   13  H   UNL     1      43.562 -15.145   2.379  1.00  0.00     0.191 HD
BRANCH  12  14
HETATM   14  C   UNL     1      41.894 -15.851   3.391  1.00  0.00     0.192 C 
HETATM   15  N   UNL     1      41.854 -17.179   3.694  1.00  0.00    -0.332 N 
HETATM   16  H   UNL     1      41.174 -17.344   4.427  1.00  0.00     0.168 HD
HETATM   17  S   UNL     1      41.021 -14.844   4.423  1.00  0.00    -0.039 SA
BRANCH  15  18
HETATM   18  C   UNL     1      42.621 -18.306   3.320  1.00  0.00     0.040 A 
HETATM   19  C   UNL     1      43.534 -18.843   4.271  1.00  0.00    -0.029 A 
HETATM   20  C   UNL     1      44.390 -19.910   3.899  1.00  0.00    -0.054 A 
HETATM   21  C   UNL     1      43.621 -18.254   5.662  1.00  0.00     0.051 C 
HETATM   22  C   UNL     1      45.418 -20.481   4.840  1.00  0.00     0.049 C 
HETATM   23  C   UNL     1      44.287 -20.459   2.615  1.00  0.00     0.007 A 
HETATM   24  C   UNL     1      43.390 -19.936   1.692  1.00  0.00     0.003 A 
HETATM   25  C   UNL     1      42.580 -18.854   2.034  1.00  0.00     0.030 A 
ENDBRANCH  15  18
ENDBRANCH  12  14
ENDBRANCH   1  12
BRANCH   5  26
HETATM   26  C   UNL     1      41.594 -11.038  -0.717  1.00  0.00     0.405 C 
BRANCH  26  27
HETATM   27  N   UNL     1      42.918 -10.623  -1.186  1.00  0.00     0.106 N 
HETATM   28  C   UNL     1      42.966 -10.359  -2.633  1.00  0.00     0.274 C 
HETATM   29  C   UNL     1      42.288  -9.052  -3.057  1.00  0.00     0.030 C 
HETATM   30  C   UNL     1      42.818  -7.866  -2.259  1.00  0.00     0.003 C 
HETATM   31  C   UNL     1      42.757  -8.148  -0.762  1.00  0.00     0.030 C 
HETATM   32  C   UNL     1      43.437  -9.477  -0.428  1.00  0.00     0.274 C 
ENDBRANCH  26  27
ENDBRANCH   5  26
TORSDOF 5
ENDMDL
MODEL 6
REMARK VINA RESULT:      -8.6      2.259      4.760
REMARK  5 active torsions:
REMARK  status: ('A' for Active; 'I' for Inactive)
REMARK    1  A    between atoms: C_5  and  N_6 
REMARK    2  A    between atoms: C_7  and  N_8 
REMARK    3  A    between atoms: N_8  and  N_9 
REMARK    4  A    between atoms: N_13  and  C_14 
REMARK    5  A    between atoms: C_14  and  N_15 
ROOT
HETATM    1  N   UNL     1      41.573 -14.178   2.953  1.00  0.00    -0.166 NA
HETATM    2  C   UNL     1      42.071 -15.247   3.481  1.00  0.00     0.157 A 
HETATM    3  C   UNL     1      41.973 -16.700   3.022  1.00  0.00     0.281 A 
HETATM    4  O   UNL     1      41.405 -17.050   2.005  1.00  0.00    -0.265 OA
HETATM    5  N   UNL     1      42.657 -17.435   3.972  1.00  0.00    -0.284 N 
HETATM    6  C   UNL     1      42.868 -15.259   4.701  1.00  0.00     0.027 A 
HETATM    7  C   UNL     1      43.204 -16.586   4.955  1.00  0.00     0.052 A 
HETATM    8  C   UNL     1      43.975 -16.906   6.056  1.00  0.00     0.031 A 
HETATM    9  C   UNL     1      44.392 -15.863   6.895  1.00  0.00     0.002 A 
HETATM   10  C   UNL     1      44.042 -14.526   6.623  1.00  0.00     0.001 A 
HETATM   11  C   UNL     1      43.267 -14.210   5.507  1.00  0.00     0.016 A 
ENDROOT
BRANCH   1  12
HETATM   12  N   UNL     1      40.843 -14.295   1.803  1.00  0.00    -0.252 N 
HETATM   13  H   UNL     1      41.015 -15.100   1.202  1.00  0.00     0.191 HD
BRANCH  12  14
HETATM   14  C   UNL     1      40.109 -13.238   1.334  1.00  0.00     0.192 C 
HETATM   15  N   UNL     1      39.899 -13.105  -0.005  1.00  0.00    -0.332 N 
HETATM   16  H   UNL     1      39.492 -12.199  -0.202  1.00  0.00     0.168 HD
HETATM   17  S   UNL     1      39.455 -12.018   2.296  1.00  0.00    -0.039 SA
BRANCH  15  18
HETATM   18  C   UNL     1      39.993 -13.976  -1.115  1.00  0.00     0.040 A 
HETATM   19  C   UNL     1      38.900 -14.024  -2.026  1.00  0.00    -0.029 A 
HETATM   20  C   UNL     1      38.916 -14.955  -3.094  1.00  0.00    -0.054 A 
HETATM   21  C   UNL     1      37.705 -13.114  -1.834  1.00  0.00     0.051 C 
HETATM   22  C   UNL     1      37.764 -15.097  -4.054  1.00  0.00     0.049 C 
HETATM   23  C   UNL     1      40.034 -15.779  -3.273  1.00  0.00     0.007 A 
HETATM   24  C   UNL     1      41.102 -15.724  -2.386  1.00  0.00     0.003 A 
HETATM   25  C   UNL     1      41.071 -14.846  -1.302  1.00  0.00     0.030 A 
ENDBRANCH  15  18
ENDBRANCH  12  14
ENDBRANCH   1  12
BRANCH   5  26
HETATM   26  C   UNL     1      42.870 -18.857   3.895  1.00  0.00     0.405 C 
BRANCH  26  27
HETATM   27  N   UNL     1      44.147 -19.142   3.238  1.00  0.00     0.106 N 
HETATM   28  C   UNL     1      45.016 -20.036   4.020  1.00  0.00     0.274 C 
HETATM   29  C   UNL     1      44.569 -21.502   4.024  1.00  0.00     0.030 C 
HETATM   30  C   UNL     1      44.366 -22.026   2.607  1.00  0.00     0.003 C 
HETATM   31  C   UNL     1      43.459 -21.095   1.809  1.00  0.00     0.030 C 
HETATM   32  C   UNL     1      43.965 -19.652   1.874  1.00  0.00     0.274 C 
ENDBRANCH  26  27
ENDBRANCH   5  26
TORSDOF 5
ENDMDL
MODEL 7
REMARK VINA RESULT:      -8.6      4.845      8.569
REMARK  5 active torsions:
REMARK  status: ('A' for Active; 'I' for Inactive)
REMARK    1  A    between atoms: C_5  and  N_6 
REMARK    2  A    between atoms: C_7  and  N_8 
REMARK    3  A    between atoms: N_8  and  N_9 
REMARK    4  A    between atoms: N_13  and  C_14 
REMARK    5  A    between atoms: C_14  and  N_15 
ROOT
HETATM    1  N   UNL     1      40.716 -12.574   5.632  1.00  0.00    -0.166 NA
HETATM    2  C   UNL     1      41.182 -13.614   5.021  1.00  0.00     0.157 A 
HETATM    3  C   UNL     1      42.408 -14.466   5.340  1.00  0.00     0.281 A 
HETATM    4  O   UNL     1      43.126 -14.282   6.303  1.00  0.00    -0.265 OA
HETATM    5  N   UNL     1      42.460 -15.424   4.345  1.00  0.00    -0.284 N 
HETATM    6  C   UNL     1      40.581 -14.196   3.828  1.00  0.00     0.027 A 
HETATM    7  C   UNL     1      41.373 -15.280   3.461  1.00  0.00     0.052 A 
HETATM    8  C   UNL     1      41.036 -16.040   2.357  1.00  0.00     0.031 A 
HETATM    9  C   UNL     1      39.893 -15.679   1.631  1.00  0.00     0.002 A 
HETATM   10  C   UNL     1      39.103 -14.577   2.016  1.00  0.00     0.001 A 
HETATM   11  C   UNL     1      39.447 -13.818   3.134  1.00  0.00     0.016 A 
ENDROOT
BRANCH   1  12
HETATM   12  N   UNL     1      41.368 -12.123   6.745  1.00  0.00    -0.252 N 
HETATM   13  H   UNL     1      41.511 -12.772   7.518  1.00  0.00     0.191 HD
BRANCH  12  14
HETATM   14  C   UNL     1      41.577 -10.782   6.933  1.00  0.00     0.192 C 
HETATM   15  N   UNL     1      42.123 -10.343   8.102  1.00  0.00    -0.332 N 
HETATM   16  H   UNL     1      42.057  -9.334   8.154  1.00  0.00     0.168 HD
HETATM   17  S   UNL     1      41.167  -9.580   5.827  1.00  0.00    -0.039 SA
BRANCH  15  18
HETATM   18  C   UNL     1      42.855 -10.954   9.146  1.00  0.00     0.040 A 
HETATM   19  C   UNL     1      42.414 -10.748  10.484  1.00  0.00    -0.029 A 
HETATM   20  C   UNL     1      43.177 -11.262  11.562  1.00  0.00    -0.054 A 
HETATM   21  C   UNL     1      41.158  -9.950  10.761  1.00  0.00     0.051 C 
HETATM   22  C   UNL     1      42.798 -11.027  13.000  1.00  0.00     0.049 C 
HETATM   23  C   UNL     1      44.328 -12.015  11.294  1.00  0.00     0.007 A 
HETATM   24  C   UNL     1      44.750 -12.218   9.986  1.00  0.00     0.003 A 
HETATM   25  C   UNL     1      44.033 -11.673   8.922  1.00  0.00     0.030 A 
ENDBRANCH  15  18
ENDBRANCH  12  14
ENDBRANCH   1  12
BRANCH   5  26
HETATM   26  C   UNL     1      43.432 -16.486   4.295  1.00  0.00     0.405 C 
BRANCH  26  27
HETATM   27  N   UNL     1      42.850 -17.729   4.804  1.00  0.00     0.106 N 
HETATM   28  C   UNL     1      42.870 -18.824   3.822  1.00  0.00     0.274 C 
HETATM   29  C   UNL     1      44.254 -19.441   3.595  1.00  0.00     0.030 C 
HETATM   30  C   UNL     1      44.899 -19.863   4.911  1.00  0.00     0.003 C 
HETATM   31  C   UNL     1      44.878 -18.718   5.917  1.00  0.00     0.030 C 
HETATM   32  C   UNL     1      43.466 -18.149   6.069  1.00  0.00     0.274 C 
ENDBRANCH  26  27
ENDBRANCH   5  26
TORSDOF 5
ENDMDL
MODEL 8
REMARK VINA RESULT:      -8.4      2.867      5.274
REMARK  5 active torsions:
REMARK  status: ('A' for Active; 'I' for Inactive)
REMARK    1  A    between atoms: C_5  and  N_6 
REMARK    2  A    between atoms: C_7  and  N_8 
REMARK    3  A    between atoms: N_8  and  N_9 
REMARK    4  A    between atoms: N_13  and  C_14 
REMARK    5  A    between atoms: C_14  and  N_15 
ROOT
HETATM    1  N   UNL     1      41.061 -13.488   1.055  1.00  0.00    -0.166 NA
HETATM    2  C   UNL     1      41.218 -14.458   1.895  1.00  0.00     0.157 A 
HETATM    3  C   UNL     1      41.798 -15.854   1.677  1.00  0.00     0.281 A 
HETATM    4  O   UNL     1      42.252 -16.239   0.617  1.00  0.00    -0.265 OA
HETATM    5  N   UNL     1      41.695 -16.491   2.900  1.00  0.00    -0.284 N 
HETATM    6  C   UNL     1      40.838 -14.390   3.300  1.00  0.00     0.027 A 
HETATM    7  C   UNL     1      41.147 -15.624   3.866  1.00  0.00     0.052 A 
HETATM    8  C   UNL     1      40.902 -15.850   5.207  1.00  0.00     0.031 A 
HETATM    9  C   UNL     1      40.336 -14.812   5.959  1.00  0.00     0.002 A 
HETATM   10  C   UNL     1      40.029 -13.569   5.369  1.00  0.00     0.001 A 
HETATM   11  C   UNL     1      40.283 -13.347   4.016  1.00  0.00     0.016 A 
ENDROOT
BRANCH   1  12
HETATM   12  N   UNL     1      41.459 -13.673  -0.239  1.00  0.00    -0.252 N 
HETATM   13  H   UNL     1      42.020 -14.495  -0.460  1.00  0.00     0.191 HD
BRANCH  12  14
HETATM   14  C   UNL     1      41.352 -12.657  -1.152  1.00  0.00     0.192 C 
HETATM   15  N   UNL     1      40.875 -12.921  -2.401  1.00  0.00    -0.332 N 
HETATM   16  H   UNL     1      41.014 -12.116  -2.999  1.00  0.00     0.168 HD
HETATM   17  S   UNL     1      41.810 -11.060  -0.873  1.00  0.00    -0.039 SA
BRANCH  15  18
HETATM   18  C   UNL     1      40.137 -13.979  -2.977  1.00  0.00     0.040 A 
HETATM   19  C   UNL     1      38.795 -13.722  -3.377  1.00  0.00    -0.029 A 
HETATM   20  C   UNL     1      37.992 -14.782  -3.868  1.00  0.00    -0.054 A 
HETATM   21  C   UNL     1      38.210 -12.332  -3.242  1.00  0.00     0.051 C 
HETATM   22  C   UNL     1      36.548 -14.587  -4.249  1.00  0.00     0.049 C 
HETATM   23  C   UNL     1      38.549 -16.060  -4.006  1.00  0.00     0.007 A 
HETATM   24  C   UNL     1      39.861 -16.305  -3.621  1.00  0.00     0.003 A 
HETATM   25  C   UNL     1      40.641 -15.279  -3.090  1.00  0.00     0.030 A 
ENDBRANCH  15  18
ENDBRANCH  12  14
ENDBRANCH   1  12
BRANCH   5  26
HETATM   26  C   UNL     1      42.187 -17.818   3.164  1.00  0.00     0.405 C 
BRANCH  26  27
HETATM   27  N   UNL     1      43.649 -17.807   3.250  1.00  0.00     0.106 N 
HETATM   28  C   UNL     1      44.155 -18.127   4.594  1.00  0.00     0.274 C 
HETATM   29  C   UNL     1      44.037 -19.606   4.975  1.00  0.00     0.030 C 
HETATM   30  C   UNL     1      44.667 -20.506   3.917  1.00  0.00     0.003 C 
HETATM   31  C   UNL     1      44.131 -20.169   2.530  1.00  0.00     0.030 C 
HETATM   32  C   UNL     1      44.268 -18.674   2.238  1.00  0.00     0.274 C 
ENDBRANCH  26  27
ENDBRANCH   5  26
TORSDOF 5
ENDMDL
MODEL 9
REMARK VINA RESULT:      -8.3      3.983      7.202
REMARK  5 active torsions:
REMARK  status: ('A' for Active; 'I' for Inactive)
REMARK    1  A    between atoms: C_5  and  N_6 
REMARK    2  A    between atoms: C_7  and  N_8 
REMARK    3  A    between atoms: N_8  and  N_9 
REMARK    4  A    between atoms: N_13  and  C_14 
REMARK    5  A    between atoms: C_14  and  N_15 
ROOT
HETATM    1  N   UNL     1      40.750 -13.779   4.736  1.00  0.00    -0.166 NA
HETATM    2  C   UNL     1      41.099 -14.990   4.448  1.00  0.00     0.157 A 
HETATM    3  C   UNL     1      41.540 -16.124   5.371  1.00  0.00     0.281 A 
HETATM    4  O   UNL     1      41.582 -16.031   6.583  1.00  0.00    -0.265 OA
HETATM    5  N   UNL     1      41.829 -17.188   4.537  1.00  0.00    -0.284 N 
HETATM    6  C   UNL     1      41.142 -15.527   3.095  1.00  0.00     0.027 A 
HETATM    7  C   UNL     1      41.577 -16.846   3.193  1.00  0.00     0.052 A 
HETATM    8  C   UNL     1      41.706 -17.618   2.055  1.00  0.00     0.031 A 
HETATM    9  C   UNL     1      41.396 -17.032   0.820  1.00  0.00     0.002 A 
HETATM   10  C   UNL     1      40.957 -15.695   0.739  1.00  0.00     0.001 A 
HETATM   11  C   UNL     1      40.825 -14.923   1.893  1.00  0.00     0.016 A 
ENDROOT
BRANCH   1  12
HETATM   12  N   UNL     1      40.747 -13.393   6.047  1.00  0.00    -0.252 N 
HETATM   13  H   UNL     1      40.542 -14.095   6.757  1.00  0.00     0.191 HD
BRANCH  12  14
HETATM   14  C   UNL     1      40.742 -12.064   6.380  1.00  0.00     0.192 C 
HETATM   15  N   UNL     1      41.692 -11.580   7.229  1.00  0.00    -0.332 N 
HETATM   16  H   UNL     1      41.456 -10.634   7.505  1.00  0.00     0.168 HD
HETATM   17  S   UNL     1      39.603 -10.942   5.849  1.00  0.00    -0.039 SA
BRANCH  15  18
HETATM   18  C   UNL     1      42.951 -12.041   7.677  1.00  0.00     0.040 A 
HETATM   19  C   UNL     1      43.533 -11.408   8.811  1.00  0.00    -0.029 A 
HETATM   20  C   UNL     1      44.836 -11.777   9.229  1.00  0.00    -0.054 A 
HETATM   21  C   UNL     1      42.785 -10.317   9.546  1.00  0.00     0.051 C 
HETATM   22  C   UNL     1      45.532 -11.103  10.383  1.00  0.00     0.049 C 
HETATM   23  C   UNL     1      45.512 -12.801   8.554  1.00  0.00     0.007 A 
HETATM   24  C   UNL     1      44.937 -13.421   7.452  1.00  0.00     0.003 A 
HETATM   25  C   UNL     1      43.676 -13.028   7.003  1.00  0.00     0.030 A 
ENDBRANCH  15  18
ENDBRANCH  12  14
ENDBRANCH   1  12
BRANCH   5  26
HETATM   26  C   UNL     1      42.223 -18.493   4.998  1.00  0.00     0.405 C 
BRANCH  26  27
HETATM   27  N   UNL     1      43.634 -18.487   5.391  1.00  0.00     0.106 N 
HETATM   28  C   UNL     1      43.904 -19.277   6.602  1.00  0.00     0.274 C 
HETATM   29  C   UNL     1      43.861 -20.793   6.387  1.00  0.00     0.030 C 
HETATM   30  C   UNL     1      44.764 -21.218   5.235  1.00  0.00     0.003 C 
HETATM   31  C   UNL     1      44.471 -20.397   3.984  1.00  0.00     0.030 C 
HETATM   32  C   UNL     1      44.515 -18.899   4.291  1.00  0.00     0.274 C 
ENDBRANCH  26  27
ENDBRANCH   5  26
TORSDOF 5
ENDMDL
MODEL 10
REMARK VINA RESULT:      -8.2      2.927      8.762
REMARK  5 active torsions:
REMARK  status: ('A' for Active; 'I' for Inactive)
REMARK    1  A    between atoms: C_5  and  N_6 
REMARK    2  A    between atoms: C_7  and  N_8 
REMARK    3  A    between atoms: N_8  and  N_9 
REMARK    4  A    between atoms: N_13  and  C_14 
REMARK    5  A    between atoms: C_14  and  N_15 
ROOT
HETATM    1  N   UNL     1      42.145 -13.884   4.636  1.00  0.00    -0.166 NA
HETATM    2  C   UNL     1      41.577 -13.481   3.547  1.00  0.00     0.157 A 
HETATM    3  C   UNL     1      41.941 -13.773   2.093  1.00  0.00     0.281 A 
HETATM    4  O   UNL     1      42.851 -14.505   1.757  1.00  0.00    -0.265 OA
HETATM    5  N   UNL     1      41.027 -13.063   1.335  1.00  0.00    -0.284 N 
HETATM    6  C   UNL     1      40.410 -12.611   3.508  1.00  0.00     0.027 A 
HETATM    7  C   UNL     1      40.109 -12.392   2.166  1.00  0.00     0.052 A 
HETATM    8  C   UNL     1      39.031 -11.601   1.820  1.00  0.00     0.031 A 
HETATM    9  C   UNL     1      38.269 -11.034   2.851  1.00  0.00     0.002 A 
HETATM   10  C   UNL     1      38.588 -11.267   4.204  1.00  0.00     0.001 A 
HETATM   11  C   UNL     1      39.676 -12.069   4.546  1.00  0.00     0.016 A 
ENDROOT
BRANCH   1  12
HETATM   12  N   UNL     1      43.235 -14.702   4.543  1.00  0.00    -0.252 N 
HETATM   13  H   UNL     1      43.702 -14.783   3.640  1.00  0.00     0.191 HD
BRANCH  12  14
HETATM   14  C   UNL     1      43.525 -15.592   5.543  1.00  0.00     0.192 C 
HETATM   15  N   UNL     1      43.315 -16.923   5.341  1.00  0.00    -0.332 N 
HETATM   16  H   UNL     1      43.415 -17.423   6.216  1.00  0.00     0.168 HD
HETATM   17  S   UNL     1      44.099 -15.170   7.070  1.00  0.00    -0.039 SA
BRANCH  15  18
HETATM   18  C   UNL     1      43.135 -17.737   4.200  1.00  0.00     0.040 A 
HETATM   19  C   UNL     1      43.948 -18.899   4.068  1.00  0.00    -0.029 A 
HETATM   20  C   UNL     1      43.864 -19.685   2.891  1.00  0.00    -0.054 A 
HETATM   21  C   UNL     1      44.927 -19.273   5.158  1.00  0.00     0.051 C 
HETATM   22  C   UNL     1      44.739 -20.889   2.665  1.00  0.00     0.049 C 
HETATM   23  C   UNL     1      42.940 -19.339   1.896  1.00  0.00     0.007 A 
HETATM   24  C   UNL     1      42.144 -18.209   2.033  1.00  0.00     0.003 A 
HETATM   25  C   UNL     1      42.257 -17.401   3.165  1.00  0.00     0.030 A 
ENDBRANCH  15  18
ENDBRANCH  12  14
ENDBRANCH   1  12
BRANCH   5  26
HETATM   26  C   UNL     1      40.964 -13.105  -0.103  1.00  0.00     0.405 C 
BRANCH  26  27
HETATM   27  N   UNL     1      40.191 -14.268  -0.542  1.00  0.00     0.106 N 
HETATM   28  C   UNL     1      38.923 -13.911  -1.196  1.00  0.00     0.274 C 
HETATM   29  C   UNL     1      39.082 -13.349  -2.612  1.00  0.00     0.030 C 
HETATM   30  C   UNL     1      39.916 -14.276  -3.490  1.00  0.00     0.003 C 
HETATM   31  C   UNL     1      41.230 -14.634  -2.804  1.00  0.00     0.030 C 
HETATM   32  C   UNL     1      40.982 -15.167  -1.392  1.00  0.00     0.274 C 
ENDBRANCH  26  27
ENDBRANCH   5  26
TORSDOF 5
ENDMDL
