MODEL 1
REMARK VINA RESULT:      -9.6      0.000      0.000
REMARK  2 active torsions:
REMARK  status: ('A' for Active; 'I' for Inactive)
REMARK       I    between atoms: N_4  and  C_5 
REMARK       I    between atoms: C_5  and  N_6 
REMARK    1  A    between atoms: N_6  and  C_7 
REMARK    2  A    between atoms: C_20  and  C_21 
ROOT
HETATM    1  C   UNL     1      40.556 -17.194   6.570  1.00  0.00     0.011 C 
HETATM    2  C   UNL     1      41.336 -17.539   5.313  1.00  0.00     0.002 C 
HETATM    3  C   UNL     1      41.252 -16.464   4.235  1.00  0.00     0.132 C 
HETATM    4  N   UNL     1      42.473 -16.622   3.456  1.00  0.00    -0.325 N 
HETATM    5  C   UNL     1      42.777 -16.037   2.244  1.00  0.00     0.323 C 
HETATM    6  N   UNL     1      41.816 -15.163   1.785  1.00  0.00    -0.309 N 
HETATM    7  O   UNL     1      43.814 -16.298   1.640  1.00  0.00    -0.247 OA
HETATM    8  C   UNL     1      43.434 -17.499   4.133  1.00  0.00     0.125 C 
HETATM    9  C   UNL     1      42.845 -17.653   5.545  1.00  0.00     0.036 C 
HETATM   10  H   UNL     1      41.311 -14.661   2.498  1.00  0.00     0.170 HD
ENDROOT
BRANCH   6  11
HETATM   11  C   UNL     1      41.688 -14.696   0.462  1.00  0.00     0.038 A 
HETATM   12  C   UNL     1      42.085 -13.412   0.075  1.00  0.00     0.062 A 
HETATM   13  C   UNL     1      41.996 -13.025  -1.263  1.00  0.00     0.070 A 
HETATM   14  C   UNL     1      41.501 -13.906  -2.222  1.00  0.00     0.096 A 
HETATM   15  N   UNL     1      42.459 -11.764  -1.640  1.00  0.00    -0.323 N 
HETATM   16  O   UNL     1      41.410 -13.612  -3.554  1.00  0.00    -0.335 OA
HETATM   17  C   UNL     1      41.110 -15.188  -1.843  1.00  0.00     0.041 A 
HETATM   18  C   UNL     1      41.607 -12.241  -3.891  1.00  0.00     0.217 C 
HETATM   19  C   UNL     1      42.393 -11.333  -2.934  1.00  0.00     0.251 C 
HETATM   20  C   UNL     1      40.238 -11.614  -4.146  1.00  0.00     0.050 C 
HETATM   21  O   UNL     1      42.875 -10.254  -3.273  1.00  0.00    -0.270 OA
HETATM   22  C   UNL     1      41.212 -15.586  -0.506  1.00  0.00     0.032 A 
HETATM   23  H   UNL     1      42.904 -11.152  -0.969  1.00  0.00     0.169 HD
ENDBRANCH   6  11
BRANCH   8  24
HETATM   24  C   UNL     1      43.648 -18.844   3.466  1.00  0.00     0.003 A 
HETATM   25  C   UNL     1      44.624 -19.701   3.990  1.00  0.00     0.124 A 
HETATM   26  F   UNL     1      45.326 -19.327   5.070  1.00  0.00    -0.205 F 
HETATM   27  C   UNL     1      44.887 -20.946   3.425  1.00  0.00     0.043 A 
HETATM   28  C   UNL     1      44.162 -21.364   2.312  1.00  0.00     0.003 A 
HETATM   29  C   UNL     1      43.176 -20.534   1.778  1.00  0.00     0.001 A 
HETATM   30  C   UNL     1      42.918 -19.285   2.351  1.00  0.00     0.012 A 
ENDBRANCH   8  24
TORSDOF 2
ENDMDL
MODEL 2
REMARK VINA RESULT:      -9.2      3.145      8.325
REMARK  2 active torsions:
REMARK  status: ('A' for Active; 'I' for Inactive)
REMARK       I    between atoms: N_4  and  C_5 
REMARK       I    between atoms: C_5  and  N_6 
REMARK    1  A    between atoms: N_6  and  C_7 
REMARK    2  A    between atoms: C_20  and  C_21 
ROOT
HETATM    1  C   UNL     1      38.321 -11.658   2.555  1.00  0.00     0.011 C 
HETATM    2  C   UNL     1      39.297 -12.472   1.723  1.00  0.00     0.002 C 
HETATM    3  C   UNL     1      39.761 -13.750   2.414  1.00  0.00     0.132 C 
HETATM    4  N   UNL     1      40.116 -14.653   1.326  1.00  0.00    -0.325 N 
HETATM    5  C   UNL     1      40.790 -15.853   1.418  1.00  0.00     0.323 C 
HETATM    6  N   UNL     1      41.086 -16.234   2.708  1.00  0.00    -0.309 N 
HETATM    7  O   UNL     1      41.099 -16.501   0.421  1.00  0.00    -0.247 OA
HETATM    8  C   UNL     1      39.637 -14.153   0.033  1.00  0.00     0.125 C 
HETATM    9  C   UNL     1      38.691 -13.004   0.421  1.00  0.00     0.036 C 
HETATM   10  H   UNL     1      40.416 -15.953   3.407  1.00  0.00     0.170 HD
ENDROOT
BRANCH   6  11
HETATM   11  C   UNL     1      42.037 -17.202   3.086  1.00  0.00     0.038 A 
HETATM   12  C   UNL     1      42.191 -18.413   2.404  1.00  0.00     0.062 A 
HETATM   13  C   UNL     1      43.194 -19.307   2.782  1.00  0.00     0.070 A 
HETATM   14  C   UNL     1      44.042 -19.009   3.847  1.00  0.00     0.096 A 
HETATM   15  N   UNL     1      43.375 -20.480   2.048  1.00  0.00    -0.323 N 
HETATM   16  O   UNL     1      45.065 -19.818   4.258  1.00  0.00    -0.335 OA
HETATM   17  C   UNL     1      43.897 -17.801   4.526  1.00  0.00     0.041 A 
HETATM   18  C   UNL     1      45.065 -21.131   3.703  1.00  0.00     0.217 C 
HETATM   19  C   UNL     1      44.338 -21.390   2.375  1.00  0.00     0.251 C 
HETATM   20  C   UNL     1      44.516 -22.090   4.756  1.00  0.00     0.050 C 
HETATM   21  O   UNL     1      44.544 -22.381   1.678  1.00  0.00    -0.270 OA
HETATM   22  C   UNL     1      42.904 -16.895   4.141  1.00  0.00     0.032 A 
HETATM   23  H   UNL     1      42.825 -20.663   1.219  1.00  0.00     0.169 HD
ENDBRANCH   6  11
BRANCH   8  24
HETATM   24  C   UNL     1      40.727 -13.685  -0.912  1.00  0.00     0.003 A 
HETATM   25  C   UNL     1      40.762 -14.220  -2.206  1.00  0.00     0.124 A 
HETATM   26  F   UNL     1      39.830 -15.107  -2.585  1.00  0.00    -0.205 F 
HETATM   27  C   UNL     1      41.740 -13.849  -3.126  1.00  0.00     0.043 A 
HETATM   28  C   UNL     1      42.710 -12.919  -2.763  1.00  0.00     0.003 A 
HETATM   29  C   UNL     1      42.689 -12.363  -1.484  1.00  0.00     0.001 A 
HETATM   30  C   UNL     1      41.705 -12.740  -0.566  1.00  0.00     0.012 A 
ENDBRANCH   8  24
TORSDOF 2
ENDMDL
MODEL 3
REMARK VINA RESULT:      -9.1      3.191      8.488
REMARK  2 active torsions:
REMARK  status: ('A' for Active; 'I' for Inactive)
REMARK       I    between atoms: N_4  and  C_5 
REMARK       I    between atoms: C_5  and  N_6 
REMARK    1  A    between atoms: N_6  and  C_7 
REMARK    2  A    between atoms: C_20  and  C_21 
ROOT
HETATM    1  C   UNL     1      36.961 -12.730   0.952  1.00  0.00     0.011 C 
HETATM    2  C   UNL     1      38.385 -13.056   0.540  1.00  0.00     0.002 C 
HETATM    3  C   UNL     1      38.924 -14.331   1.180  1.00  0.00     0.132 C 
HETATM    4  N   UNL     1      39.939 -14.813   0.253  1.00  0.00    -0.325 N 
HETATM    5  C   UNL     1      40.867 -15.812   0.469  1.00  0.00     0.323 C 
HETATM    6  N   UNL     1      40.743 -16.439   1.689  1.00  0.00    -0.309 N 
HETATM    7  O   UNL     1      41.726 -16.089  -0.364  1.00  0.00    -0.247 OA
HETATM    8  C   UNL     1      39.867 -14.116  -1.035  1.00  0.00     0.125 C 
HETATM    9  C   UNL     1      38.534 -13.352  -0.956  1.00  0.00     0.036 C 
HETATM   10  H   UNL     1      39.804 -16.509   2.046  1.00  0.00     0.170 HD
ENDROOT
BRANCH   6  11
HETATM   11  C   UNL     1      41.726 -17.231   2.314  1.00  0.00     0.038 A 
HETATM   12  C   UNL     1      42.029 -18.529   1.891  1.00  0.00     0.062 A 
HETATM   13  C   UNL     1      43.058 -19.244   2.506  1.00  0.00     0.070 A 
HETATM   14  C   UNL     1      43.785 -18.678   3.552  1.00  0.00     0.096 A 
HETATM   15  N   UNL     1      43.389 -20.511   2.026  1.00  0.00    -0.323 N 
HETATM   16  O   UNL     1      44.824 -19.302   4.183  1.00  0.00    -0.335 OA
HETATM   17  C   UNL     1      43.492 -17.383   3.973  1.00  0.00     0.041 A 
HETATM   18  C   UNL     1      44.970 -20.690   3.893  1.00  0.00     0.217 C 
HETATM   19  C   UNL     1      44.384 -21.255   2.591  1.00  0.00     0.251 C 
HETATM   20  C   UNL     1      44.404 -21.482   5.069  1.00  0.00     0.050 C 
HETATM   21  O   UNL     1      44.723 -22.336   2.114  1.00  0.00    -0.270 OA
HETATM   22  C   UNL     1      42.472 -16.657   3.350  1.00  0.00     0.032 A 
HETATM   23  H   UNL     1      42.929 -20.894   1.210  1.00  0.00     0.169 HD
ENDBRANCH   6  11
BRANCH   8  24
HETATM   24  C   UNL     1      41.029 -13.183  -1.320  1.00  0.00     0.003 A 
HETATM   25  C   UNL     1      41.730 -13.338  -2.522  1.00  0.00     0.124 A 
HETATM   26  F   UNL     1      41.351 -14.282  -3.396  1.00  0.00    -0.205 F 
HETATM   27  C   UNL     1      42.815 -12.529  -2.847  1.00  0.00     0.043 A 
HETATM   28  C   UNL     1      43.221 -11.532  -1.964  1.00  0.00     0.003 A 
HETATM   29  C   UNL     1      42.532 -11.349  -0.765  1.00  0.00     0.001 A 
HETATM   30  C   UNL     1      41.443 -12.166  -0.446  1.00  0.00     0.012 A 
ENDBRANCH   8  24
TORSDOF 2
ENDMDL
MODEL 4
REMARK VINA RESULT:      -8.9      3.389      8.660
REMARK  2 active torsions:
REMARK  status: ('A' for Active; 'I' for Inactive)
REMARK       I    between atoms: N_4  and  C_5 
REMARK       I    between atoms: C_5  and  N_6 
REMARK    1  A    between atoms: N_6  and  C_7 
REMARK    2  A    between atoms: C_20  and  C_21 
ROOT
HETATM    1  C   UNL     1      42.630 -10.627  -2.612  1.00  0.00     0.011 C 
HETATM    2  C   UNL     1      41.910 -11.928  -2.305  1.00  0.00     0.002 C 
HETATM    3  C   UNL     1      42.316 -12.545  -0.970  1.00  0.00     0.132 C 
HETATM    4  N   UNL     1      41.162 -13.336  -0.560  1.00  0.00    -0.325 N 
HETATM    5  C   UNL     1      41.099 -14.256   0.466  1.00  0.00     0.323 C 
HETATM    6  N   UNL     1      42.260 -14.362   1.199  1.00  0.00    -0.309 N 
HETATM    7  O   UNL     1      40.087 -14.920   0.679  1.00  0.00    -0.247 OA
HETATM    8  C   UNL     1      39.981 -13.027  -1.372  1.00  0.00     0.125 C 
HETATM    9  C   UNL     1      40.396 -11.762  -2.143  1.00  0.00     0.036 C 
HETATM   10  H   UNL     1      42.794 -13.513   1.289  1.00  0.00     0.170 HD
ENDROOT
BRANCH   6  11
HETATM   11  C   UNL     1      42.601 -15.426   2.057  1.00  0.00     0.038 A 
HETATM   12  C   UNL     1      42.431 -15.359   3.443  1.00  0.00     0.062 A 
HETATM   13  C   UNL     1      42.725 -16.468   4.239  1.00  0.00     0.070 A 
HETATM   14  C   UNL     1      43.200 -17.645   3.664  1.00  0.00     0.096 A 
HETATM   15  N   UNL     1      42.487 -16.404   5.612  1.00  0.00    -0.323 N 
HETATM   16  O   UNL     1      43.481 -18.780   4.371  1.00  0.00    -0.335 OA
HETATM   17  C   UNL     1      43.364 -17.719   2.282  1.00  0.00     0.041 A 
HETATM   18  C   UNL     1      43.516 -18.625   5.788  1.00  0.00     0.217 C 
HETATM   19  C   UNL     1      42.758 -17.457   6.437  1.00  0.00     0.251 C 
HETATM   20  C   UNL     1      44.977 -18.562   6.223  1.00  0.00     0.050 C 
HETATM   21  O   UNL     1      42.472 -17.423   7.633  1.00  0.00    -0.270 OA
HETATM   22  C   UNL     1      43.057 -16.616   1.480  1.00  0.00     0.032 A 
HETATM   23  H   UNL     1      42.057 -15.588   6.027  1.00  0.00     0.169 HD
ENDBRANCH   6  11
BRANCH   8  24
HETATM   24  C   UNL     1      39.546 -14.136  -2.311  1.00  0.00     0.003 A 
HETATM   25  C   UNL     1      38.216 -14.158  -2.747  1.00  0.00     0.124 A 
HETATM   26  F   UNL     1      37.369 -13.197  -2.348  1.00  0.00    -0.205 F 
HETATM   27  C   UNL     1      37.740 -15.151  -3.599  1.00  0.00     0.043 A 
HETATM   28  C   UNL     1      38.601 -16.152  -4.040  1.00  0.00     0.003 A 
HETATM   29  C   UNL     1      39.934 -16.146  -3.629  1.00  0.00     0.001 A 
HETATM   30  C   UNL     1      40.405 -15.146  -2.774  1.00  0.00     0.012 A 
ENDBRANCH   8  24
TORSDOF 2
ENDMDL
MODEL 5
REMARK VINA RESULT:      -8.7      3.588      8.741
REMARK  2 active torsions:
REMARK  status: ('A' for Active; 'I' for Inactive)
REMARK       I    between atoms: N_4  and  C_5 
REMARK       I    between atoms: C_5  and  N_6 
REMARK    1  A    between atoms: N_6  and  C_7 
REMARK    2  A    between atoms: C_20  and  C_21 
ROOT
HETATM    1  C   UNL     1      39.091 -15.971  -4.507  1.00  0.00     0.011 C 
HETATM    2  C   UNL     1      39.232 -15.340  -3.134  1.00  0.00     0.002 C 
HETATM    3  C   UNL     1      40.315 -15.989  -2.278  1.00  0.00     0.132 C 
HETATM    4  N   UNL     1      40.738 -14.942  -1.356  1.00  0.00    -0.325 N 
HETATM    5  C   UNL     1      41.540 -15.080  -0.242  1.00  0.00     0.323 C 
HETATM    6  N   UNL     1      42.023 -16.355  -0.051  1.00  0.00    -0.309 N 
HETATM    7  O   UNL     1      41.777 -14.134   0.506  1.00  0.00    -0.247 OA
HETATM    8  C   UNL     1      40.226 -13.629  -1.761  1.00  0.00     0.125 C 
HETATM    9  C   UNL     1      39.683 -13.877  -3.179  1.00  0.00     0.036 C 
HETATM   10  H   UNL     1      42.199 -16.882  -0.892  1.00  0.00     0.170 HD
ENDROOT
BRANCH   6  11
HETATM   11  C   UNL     1      42.563 -16.863   1.147  1.00  0.00     0.038 A 
HETATM   12  C   UNL     1      42.009 -16.585   2.400  1.00  0.00     0.062 A 
HETATM   13  C   UNL     1      42.546 -17.169   3.549  1.00  0.00     0.070 A 
HETATM   14  C   UNL     1      43.643 -18.023   3.461  1.00  0.00     0.096 A 
HETATM   15  N   UNL     1      41.938 -16.932   4.782  1.00  0.00    -0.323 N 
HETATM   16  O   UNL     1      44.206 -18.656   4.534  1.00  0.00    -0.335 OA
HETATM   17  C   UNL     1      44.195 -18.309   2.214  1.00  0.00     0.041 A 
HETATM   18  C   UNL     1      43.776 -18.191   5.811  1.00  0.00     0.217 C 
HETATM   19  C   UNL     1      42.423 -17.475   5.937  1.00  0.00     0.251 C 
HETATM   20  C   UNL     1      44.864 -17.284   6.378  1.00  0.00     0.050 C 
HETATM   21  O   UNL     1      41.837 -17.327   7.008  1.00  0.00    -0.270 OA
HETATM   22  C   UNL     1      43.651 -17.738   1.059  1.00  0.00     0.032 A 
HETATM   23  H   UNL     1      41.088 -16.388   4.846  1.00  0.00     0.169 HD
ENDBRANCH   6  11
BRANCH   8  24
HETATM   24  C   UNL     1      39.161 -13.052  -0.848  1.00  0.00     0.003 A 
HETATM   25  C   UNL     1      39.092 -11.662  -0.699  1.00  0.00     0.124 A 
HETATM   26  F   UNL     1      39.944 -10.877  -1.375  1.00  0.00    -0.205 F 
HETATM   27  C   UNL     1      38.150 -11.060   0.132  1.00  0.00     0.043 A 
HETATM   28  C   UNL     1      37.244 -11.851   0.834  1.00  0.00     0.003 A 
HETATM   29  C   UNL     1      37.285 -13.238   0.693  1.00  0.00     0.001 A 
HETATM   30  C   UNL     1      38.233 -13.835  -0.142  1.00  0.00     0.012 A 
ENDBRANCH   8  24
TORSDOF 2
ENDMDL
MODEL 6
REMARK VINA RESULT:      -8.7      3.359      8.568
REMARK  2 active torsions:
REMARK  status: ('A' for Active; 'I' for Inactive)
REMARK       I    between atoms: N_4  and  C_5 
REMARK       I    between atoms: C_5  and  N_6 
REMARK    1  A    between atoms: N_6  and  C_7 
REMARK    2  A    between atoms: C_20  and  C_21 
ROOT
HETATM    1  C   UNL     1      36.691 -12.248   0.614  1.00  0.00     0.011 C 
HETATM    2  C   UNL     1      38.131 -12.672   0.390  1.00  0.00     0.002 C 
HETATM    3  C   UNL     1      38.560 -13.844   1.268  1.00  0.00     0.132 C 
HETATM    4  N   UNL     1      39.631 -14.494   0.524  1.00  0.00    -0.325 N 
HETATM    5  C   UNL     1      40.494 -15.470   0.977  1.00  0.00     0.323 C 
HETATM    6  N   UNL     1      40.240 -15.893   2.263  1.00  0.00    -0.309 N 
HETATM    7  O   UNL     1      41.410 -15.899   0.279  1.00  0.00    -0.247 OA
HETATM    8  C   UNL     1      39.699 -14.008  -0.858  1.00  0.00     0.125 C 
HETATM    9  C   UNL     1      38.397 -13.206  -1.021  1.00  0.00     0.036 C 
HETATM   10  H   UNL     1      39.271 -15.881   2.539  1.00  0.00     0.170 HD
ENDROOT
BRANCH   6  11
HETATM   11  C   UNL     1      41.132 -16.602   3.091  1.00  0.00     0.038 A 
HETATM   12  C   UNL     1      41.361 -16.251   4.425  1.00  0.00     0.062 A 
HETATM   13  C   UNL     1      42.206 -17.029   5.219  1.00  0.00     0.070 A 
HETATM   14  C   UNL     1      42.837 -18.153   4.689  1.00  0.00     0.096 A 
HETATM   15  N   UNL     1      42.370 -16.701   6.565  1.00  0.00    -0.323 N 
HETATM   16  O   UNL     1      43.653 -18.980   5.409  1.00  0.00    -0.335 OA
HETATM   17  C   UNL     1      42.607 -18.511   3.362  1.00  0.00     0.041 A 
HETATM   18  C   UNL     1      44.048 -18.487   6.687  1.00  0.00     0.217 C 
HETATM   19  C   UNL     1      43.186 -17.425   7.385  1.00  0.00     0.251 C 
HETATM   20  C   UNL     1      45.476 -17.960   6.572  1.00  0.00     0.050 C 
HETATM   21  O   UNL     1      43.264 -17.179   8.587  1.00  0.00    -0.270 OA
HETATM   22  C   UNL     1      41.750 -17.744   2.568  1.00  0.00     0.032 A 
HETATM   23  H   UNL     1      41.846 -15.943   6.982  1.00  0.00     0.169 HD
ENDBRANCH   6  11
BRANCH   8  24
HETATM   24  C   UNL     1      40.919 -13.163  -1.175  1.00  0.00     0.003 A 
HETATM   25  C   UNL     1      41.663 -13.471  -2.321  1.00  0.00     0.124 A 
HETATM   26  F   UNL     1      41.275 -14.479  -3.115  1.00  0.00    -0.205 F 
HETATM   27  C   UNL     1      42.801 -12.750  -2.671  1.00  0.00     0.043 A 
HETATM   28  C   UNL     1      43.218 -11.688  -1.871  1.00  0.00     0.003 A 
HETATM   29  C   UNL     1      42.487 -11.355  -0.731  1.00  0.00     0.001 A 
HETATM   30  C   UNL     1      41.345 -12.083  -0.387  1.00  0.00     0.012 A 
ENDBRANCH   8  24
TORSDOF 2
ENDMDL
MODEL 7
REMARK VINA RESULT:      -8.4      2.076      3.816
REMARK  2 active torsions:
REMARK  status: ('A' for Active; 'I' for Inactive)
REMARK       I    between atoms: N_4  and  C_5 
REMARK       I    between atoms: C_5  and  N_6 
REMARK    1  A    between atoms: N_6  and  C_7 
REMARK    2  A    between atoms: C_20  and  C_21 
ROOT
HETATM    1  C   UNL     1      44.290 -19.616   2.118  1.00  0.00     0.011 C 
HETATM    2  C   UNL     1      43.697 -18.233   2.324  1.00  0.00     0.002 C 
HETATM    3  C   UNL     1      43.079 -17.645   1.060  1.00  0.00     0.132 C 
HETATM    4  N   UNL     1      42.064 -16.716   1.539  1.00  0.00    -0.325 N 
HETATM    5  C   UNL     1      41.372 -15.776   0.803  1.00  0.00     0.323 C 
HETATM    6  N   UNL     1      41.658 -15.796  -0.544  1.00  0.00    -0.309 N 
HETATM    7  O   UNL     1      40.585 -14.993   1.328  1.00  0.00    -0.247 OA
HETATM    8  C   UNL     1      41.801 -16.896   2.971  1.00  0.00     0.125 C 
HETATM    9  C   UNL     1      42.519 -18.215   3.304  1.00  0.00     0.036 C 
HETATM   10  H   UNL     1      41.881 -16.701  -0.926  1.00  0.00     0.170 HD
ENDROOT
BRANCH   6  11
HETATM   11  C   UNL     1      41.380 -14.765  -1.463  1.00  0.00     0.038 A 
HETATM   12  C   UNL     1      41.947 -13.491  -1.359  1.00  0.00     0.062 A 
HETATM   13  C   UNL     1      41.688 -12.527  -2.335  1.00  0.00     0.070 A 
HETATM   14  C   UNL     1      40.855 -12.819  -3.414  1.00  0.00     0.096 A 
HETATM   15  N   UNL     1      42.314 -11.284  -2.249  1.00  0.00    -0.323 N 
HETATM   16  O   UNL     1      40.577 -11.941  -4.423  1.00  0.00    -0.335 OA
HETATM   17  C   UNL     1      40.293 -14.090  -3.525  1.00  0.00     0.041 A 
HETATM   18  C   UNL     1      40.977 -10.593  -4.187  1.00  0.00     0.217 C 
HETATM   19  C   UNL     1      42.094 -10.304  -3.174  1.00  0.00     0.251 C 
HETATM   20  C   UNL     1      39.739  -9.793  -3.791  1.00  0.00     0.050 C 
HETATM   21  O   UNL     1      42.710  -9.240  -3.137  1.00  0.00    -0.270 OA
HETATM   22  C   UNL     1      40.562 -15.063  -2.558  1.00  0.00     0.032 A 
HETATM   23  H   UNL     1      42.990 -11.092  -1.522  1.00  0.00     0.169 HD
ENDBRANCH   6  11
BRANCH   8  24
HETATM   24  C   UNL     1      42.281 -15.760   3.854  1.00  0.00     0.003 A 
HETATM   25  C   UNL     1      41.649 -15.563   5.089  1.00  0.00     0.124 A 
HETATM   26  F   UNL     1      40.661 -16.387   5.469  1.00  0.00    -0.205 F 
HETATM   27  C   UNL     1      42.025 -14.534   5.948  1.00  0.00     0.043 A 
HETATM   28  C   UNL     1      43.058 -13.675   5.584  1.00  0.00     0.003 A 
HETATM   29  C   UNL     1      43.711 -13.857   4.364  1.00  0.00     0.001 A 
HETATM   30  C   UNL     1      43.328 -14.893   3.507  1.00  0.00     0.012 A 
ENDBRANCH   8  24
TORSDOF 2
ENDMDL
MODEL 8
REMARK VINA RESULT:      -8.3      3.526      4.766
REMARK  2 active torsions:
REMARK  status: ('A' for Active; 'I' for Inactive)
REMARK       I    between atoms: N_4  and  C_5 
REMARK       I    between atoms: C_5  and  N_6 
REMARK    1  A    between atoms: N_6  and  C_7 
REMARK    2  A    between atoms: C_20  and  C_21 
ROOT
HETATM    1  C   UNL     1      43.864 -19.757   2.141  1.00  0.00     0.011 C 
HETATM    2  C   UNL     1      43.424 -18.435   2.744  1.00  0.00     0.002 C 
HETATM    3  C   UNL     1      42.337 -17.733   1.936  1.00  0.00     0.132 C 
HETATM    4  N   UNL     1      41.624 -16.911   2.906  1.00  0.00    -0.325 N 
HETATM    5  C   UNL     1      40.695 -15.925   2.647  1.00  0.00     0.323 C 
HETATM    6  N   UNL     1      40.389 -15.776   1.313  1.00  0.00    -0.309 N 
HETATM    7  O   UNL     1      40.207 -15.243   3.546  1.00  0.00    -0.247 OA
HETATM    8  C   UNL     1      41.985 -17.267   4.282  1.00  0.00     0.125 C 
HETATM    9  C   UNL     1      42.766 -18.583   4.119  1.00  0.00     0.036 C 
HETATM   10  H   UNL     1      40.425 -16.620   0.764  1.00  0.00     0.170 HD
ENDROOT
BRANCH   6  11
HETATM   11  C   UNL     1      39.760 -14.659   0.729  1.00  0.00     0.038 A 
HETATM   12  C   UNL     1      38.440 -14.302   1.019  1.00  0.00     0.062 A 
HETATM   13  C   UNL     1      37.888 -13.147   0.462  1.00  0.00     0.070 A 
HETATM   14  C   UNL     1      38.640 -12.348  -0.397  1.00  0.00     0.096 A 
HETATM   15  N   UNL     1      36.592 -12.771   0.815  1.00  0.00    -0.323 N 
HETATM   16  O   UNL     1      38.182 -11.189  -0.958  1.00  0.00    -0.335 OA
HETATM   17  C   UNL     1      39.958 -12.696  -0.684  1.00  0.00     0.041 A 
HETATM   18  C   UNL     1      36.780 -10.962  -0.831  1.00  0.00     0.217 C 
HETATM   19  C   UNL     1      36.002 -11.654   0.298  1.00  0.00     0.251 C 
HETATM   20  C   UNL     1      36.121 -11.309  -2.164  1.00  0.00     0.050 C 
HETATM   21  O   UNL     1      34.891 -11.285   0.674  1.00  0.00    -0.270 OA
HETATM   22  C   UNL     1      40.520 -13.843  -0.116  1.00  0.00     0.032 A 
HETATM   23  H   UNL     1      36.071 -13.293   1.507  1.00  0.00     0.169 HD
ENDBRANCH   6  11
BRANCH   8  24
HETATM   24  C   UNL     1      42.799 -16.221   5.018  1.00  0.00     0.003 A 
HETATM   25  C   UNL     1      43.021 -16.392   6.390  1.00  0.00     0.124 A 
HETATM   26  F   UNL     1      42.533 -17.475   7.013  1.00  0.00    -0.205 F 
HETATM   27  C   UNL     1      43.748 -15.467   7.135  1.00  0.00     0.043 A 
HETATM   28  C   UNL     1      44.279 -14.342   6.510  1.00  0.00     0.003 A 
HETATM   29  C   UNL     1      44.081 -14.155   5.142  1.00  0.00     0.001 A 
HETATM   30  C   UNL     1      43.351 -15.087   4.400  1.00  0.00     0.012 A 
ENDBRANCH   8  24
TORSDOF 2
ENDMDL
MODEL 9
REMARK VINA RESULT:      -8.3      3.371      8.622
REMARK  2 active torsions:
REMARK  status: ('A' for Active; 'I' for Inactive)
REMARK       I    between atoms: N_4  and  C_5 
REMARK       I    between atoms: C_5  and  N_6 
REMARK    1  A    between atoms: N_6  and  C_7 
REMARK    2  A    between atoms: C_20  and  C_21 
ROOT
HETATM    1  C   UNL     1      42.496 -10.387  -3.688  1.00  0.00     0.011 C 
HETATM    2  C   UNL     1      41.809 -11.609  -3.104  1.00  0.00     0.002 C 
HETATM    3  C   UNL     1      42.165 -11.862  -1.642  1.00  0.00     0.132 C 
HETATM    4  N   UNL     1      41.023 -12.587  -1.101  1.00  0.00    -0.325 N 
HETATM    5  C   UNL     1      40.938 -13.232   0.115  1.00  0.00     0.323 C 
HETATM    6  N   UNL     1      42.061 -13.098   0.902  1.00  0.00    -0.309 N 
HETATM    7  O   UNL     1      39.943 -13.874   0.440  1.00  0.00    -0.247 OA
HETATM    8  C   UNL     1      39.876 -12.544  -2.015  1.00  0.00     0.125 C 
HETATM    9  C   UNL     1      40.284 -11.486  -3.053  1.00  0.00     0.036 C 
HETATM   10  H   UNL     1      42.557 -12.226   0.804  1.00  0.00     0.170 HD
ENDROOT
BRANCH   6  11
HETATM   11  C   UNL     1      42.395 -13.903   2.009  1.00  0.00     0.038 A 
HETATM   12  C   UNL     1      42.730 -15.255   1.883  1.00  0.00     0.062 A 
HETATM   13  C   UNL     1      43.117 -15.988   3.006  1.00  0.00     0.070 A 
HETATM   14  C   UNL     1      43.163 -15.386   4.262  1.00  0.00     0.096 A 
HETATM   15  N   UNL     1      43.511 -17.317   2.850  1.00  0.00    -0.323 N 
HETATM   16  O   UNL     1      43.560 -16.028   5.401  1.00  0.00    -0.335 OA
HETATM   17  C   UNL     1      42.837 -14.038   4.391  1.00  0.00     0.041 A 
HETATM   18  C   UNL     1      43.680 -17.444   5.294  1.00  0.00     0.217 C 
HETATM   19  C   UNL     1      43.896 -18.081   3.914  1.00  0.00     0.251 C 
HETATM   20  C   UNL     1      42.446 -18.075   5.936  1.00  0.00     0.050 C 
HETATM   21  O   UNL     1      44.317 -19.226   3.759  1.00  0.00    -0.270 OA
HETATM   22  C   UNL     1      42.464 -13.295   3.267  1.00  0.00     0.032 A 
HETATM   23  H   UNL     1      43.569 -17.737   1.931  1.00  0.00     0.169 HD
ENDBRANCH   6  11
BRANCH   8  24
HETATM   24  C   UNL     1      39.536 -13.869  -2.671  1.00  0.00     0.003 A 
HETATM   25  C   UNL     1      38.216 -14.089  -3.085  1.00  0.00     0.124 A 
HETATM   26  F   UNL     1      37.297 -13.127  -2.915  1.00  0.00    -0.205 F 
HETATM   27  C   UNL     1      37.826 -15.284  -3.683  1.00  0.00     0.043 A 
HETATM   28  C   UNL     1      38.764 -16.293  -3.885  1.00  0.00     0.003 A 
HETATM   29  C   UNL     1      40.087 -16.094  -3.491  1.00  0.00     0.001 A 
HETATM   30  C   UNL     1      40.472 -14.891  -2.892  1.00  0.00     0.012 A 
ENDBRANCH   8  24
TORSDOF 2
ENDMDL
MODEL 10
REMARK VINA RESULT:      -8.3      1.950      2.163
REMARK  2 active torsions:
REMARK  status: ('A' for Active; 'I' for Inactive)
REMARK       I    between atoms: N_4  and  C_5 
REMARK       I    between atoms: C_5  and  N_6 
REMARK    1  A    between atoms: N_6  and  C_7 
REMARK    2  A    between atoms: C_20  and  C_21 
ROOT
HETATM    1  C   UNL     1      43.113 -18.132   7.824  1.00  0.00     0.011 C 
HETATM    2  C   UNL     1      43.180 -18.264   6.313  1.00  0.00     0.002 C 
HETATM    3  C   UNL     1      42.859 -16.966   5.577  1.00  0.00     0.132 C 
HETATM    4  N   UNL     1      43.559 -17.077   4.304  1.00  0.00    -0.325 N 
HETATM    5  C   UNL     1      43.420 -16.266   3.197  1.00  0.00     0.323 C 
HETATM    6  N   UNL     1      42.559 -15.207   3.380  1.00  0.00    -0.309 N 
HETATM    7  O   UNL     1      44.013 -16.497   2.146  1.00  0.00    -0.247 OA
HETATM    8  C   UNL     1      44.515 -18.190   4.310  1.00  0.00     0.125 C 
HETATM    9  C   UNL     1      44.580 -18.598   5.791  1.00  0.00     0.036 C 
HETATM   10  H   UNL     1      42.530 -14.830   4.314  1.00  0.00     0.170 HD
ENDROOT
BRANCH   6  11
HETATM   11  C   UNL     1      41.968 -14.436   2.360  1.00  0.00     0.038 A 
HETATM   12  C   UNL     1      42.330 -13.108   2.115  1.00  0.00     0.062 A 
HETATM   13  C   UNL     1      41.758 -12.411   1.048  1.00  0.00     0.070 A 
HETATM   14  C   UNL     1      40.816 -13.027   0.226  1.00  0.00     0.096 A 
HETATM   15  N   UNL     1      42.181 -11.109   0.780  1.00  0.00    -0.323 N 
HETATM   16  O   UNL     1      40.235 -12.423  -0.853  1.00  0.00    -0.335 OA
HETATM   17  C   UNL     1      40.457 -14.352   0.462  1.00  0.00     0.041 A 
HETATM   18  C   UNL     1      40.445 -11.016  -0.952  1.00  0.00     0.217 C 
HETATM   19  C   UNL     1      41.654 -10.382  -0.248  1.00  0.00     0.251 C 
HETATM   20  C   UNL     1      39.177 -10.312  -0.475  1.00  0.00     0.050 C 
HETATM   21  O   UNL     1      42.086  -9.266  -0.528  1.00  0.00    -0.270 OA
HETATM   22  C   UNL     1      41.038 -15.058   1.520  1.00  0.00     0.032 A 
HETATM   23  H   UNL     1      42.928 -10.686   1.313  1.00  0.00     0.169 HD
ENDBRANCH   6  11
BRANCH   8  24
HETATM   24  C   UNL     1      44.135 -19.360   3.424  1.00  0.00     0.003 A 
HETATM   25  C   UNL     1      44.893 -20.534   3.507  1.00  0.00     0.124 A 
HETATM   26  F   UNL     1      45.914 -20.606   4.374  1.00  0.00    -0.205 F 
HETATM   27  C   UNL     1      44.613 -21.646   2.717  1.00  0.00     0.043 A 
HETATM   28  C   UNL     1      43.550 -21.603   1.819  1.00  0.00     0.003 A 
HETATM   29  C   UNL     1      42.772 -20.449   1.725  1.00  0.00     0.001 A 
HETATM   30  C   UNL     1      43.059 -19.337   2.522  1.00  0.00     0.012 A 
ENDBRANCH   8  24
TORSDOF 2
ENDMDL
