MODEL 1
REMARK VINA RESULT:      -7.1      0.000      0.000
REMARK  6 active torsions:
REMARK  status: ('A' for Active; 'I' for Inactive)
REMARK    1  A    between atoms: C_2  and  O_3 
REMARK    2  A    between atoms: O_3  and  C_4 
REMARK    3  A    between atoms: C_4  and  C_5 
REMARK    4  A    between atoms: C_6  and  O_7 
REMARK    5  A    between atoms: C_12  and  O_13 
REMARK    6  A    between atoms: C_17  and  C_18 
ROOT
HETATM    1  C   UNL     1      42.381 -15.301   4.188  1.00  0.00     0.133 C 
HETATM    2  C   UNL     1      41.003 -14.651   4.561  1.00  0.00     0.073 C 
HETATM    3  C   UNL     1      40.212 -15.558   5.518  1.00  0.00     0.047 C 
HETATM    4  C   UNL     1      41.125 -13.226   5.174  1.00  0.00     0.097 C 
HETATM    5  C   UNL     1      42.286 -13.162   6.090  1.00  0.00     0.042 A 
HETATM    6  C   UNL     1      43.347 -14.041   6.161  1.00  0.00     0.030 A 
HETATM    7  C   UNL     1      44.164 -13.479   7.154  1.00  0.00     0.190 A 
HETATM    8  N   UNL     1      43.674 -12.364   7.681  1.00  0.00    -0.149 NA
HETATM    9  N   UNL     1      42.523 -12.180   7.009  1.00  0.00    -0.279 N 
HETATM   10  H   UNL     1      41.963 -11.362   7.228  1.00  0.00     0.189 HD
HETATM   11  C   UNL     1      43.494 -15.231   5.274  1.00  0.00     0.074 C 
ENDROOT
BRANCH  11  12
HETATM   12  C   UNL     1      43.595 -16.496   6.122  1.00  0.00    -0.048 A 
HETATM   13  C   UNL     1      43.302 -16.569   7.495  1.00  0.00     0.011 A 
HETATM   14  C   UNL     1      43.418 -17.776   8.192  1.00  0.00     0.043 A 
HETATM   15  C   UNL     1      43.823 -18.922   7.522  1.00  0.00     0.116 A 
HETATM   16  F   UNL     1      43.935 -20.076   8.192  1.00  0.00    -0.206 F 
HETATM   17  C   UNL     1      44.115 -18.885   6.167  1.00  0.00     0.043 A 
HETATM   18  C   UNL     1      44.000 -17.681   5.470  1.00  0.00     0.011 A 
ENDBRANCH  11  12
BRANCH   1  19
HETATM   19  C   UNL     1      42.943 -14.660   2.930  1.00  0.00     0.267 C 
HETATM   20  O   UNL     1      43.583 -13.618   2.902  1.00  0.00    -0.265 OA
BRANCH  19  21
HETATM   21  O   UNL     1      42.602 -15.403   1.839  1.00  0.00    -0.316 OA
BRANCH  21  22
HETATM   22  C   UNL     1      42.640 -16.836   1.985  1.00  0.00     0.123 C 
HETATM   23  C   UNL     1      43.944 -17.323   1.369  1.00  0.00     0.040 C 
HETATM   24  C   UNL     1      41.434 -17.415   1.259  1.00  0.00     0.040 C 
ENDBRANCH  21  22
ENDBRANCH  19  21
ENDBRANCH   1  19
BRANCH   2  25
HETATM   25  O   UNL     1      40.172 -14.580   3.384  1.00  0.00    -0.389 OA
HETATM   26  H   UNL     1      40.114 -13.640   3.116  1.00  0.00     0.210 HD
ENDBRANCH   2  25
BRANCH   7  27
HETATM   27  O   UNL     1      45.327 -13.910   7.646  1.00  0.00    -0.343 OA
HETATM   28  H   UNL     1      45.778 -13.184   8.102  1.00  0.00     0.219 HD
ENDBRANCH   7  27
TORSDOF 6
ENDMDL
MODEL 2
REMARK VINA RESULT:      -7.1      2.758      4.226
REMARK  6 active torsions:
REMARK  status: ('A' for Active; 'I' for Inactive)
REMARK    1  A    between atoms: C_2  and  O_3 
REMARK    2  A    between atoms: O_3  and  C_4 
REMARK    3  A    between atoms: C_4  and  C_5 
REMARK    4  A    between atoms: C_6  and  O_7 
REMARK    5  A    between atoms: C_12  and  O_13 
REMARK    6  A    between atoms: C_17  and  C_18 
ROOT
HETATM    1  C   UNL     1      42.808 -15.734   3.027  1.00  0.00     0.133 C 
HETATM    2  C   UNL     1      41.294 -15.495   2.693  1.00  0.00     0.073 C 
HETATM    3  C   UNL     1      40.734 -16.646   1.840  1.00  0.00     0.047 C 
HETATM    4  C   UNL     1      40.397 -15.293   3.948  1.00  0.00     0.097 C 
HETATM    5  C   UNL     1      40.817 -16.212   5.030  1.00  0.00     0.042 A 
HETATM    6  C   UNL     1      42.012 -16.893   5.133  1.00  0.00     0.030 A 
HETATM    7  C   UNL     1      41.892 -17.566   6.360  1.00  0.00     0.190 A 
HETATM    8  N   UNL     1      40.735 -17.354   6.974  1.00  0.00    -0.149 NA
HETATM    9  N   UNL     1      40.091 -16.514   6.146  1.00  0.00    -0.279 N 
HETATM   10  H   UNL     1      39.168 -16.187   6.415  1.00  0.00     0.189 HD
HETATM   11  C   UNL     1      43.113 -16.786   4.134  1.00  0.00     0.074 C 
ENDROOT
BRANCH  11  12
HETATM   12  C   UNL     1      43.443 -18.170   3.581  1.00  0.00    -0.048 A 
HETATM   13  C   UNL     1      42.880 -18.727   2.420  1.00  0.00     0.011 A 
HETATM   14  C   UNL     1      43.247 -20.005   1.984  1.00  0.00     0.043 A 
HETATM   15  C   UNL     1      44.183 -20.735   2.702  1.00  0.00     0.116 A 
HETATM   16  F   UNL     1      44.532 -21.958   2.283  1.00  0.00    -0.206 F 
HETATM   17  C   UNL     1      44.762 -20.212   3.849  1.00  0.00     0.043 A 
HETATM   18  C   UNL     1      44.396 -18.937   4.285  1.00  0.00     0.011 A 
ENDBRANCH  11  12
BRANCH   1  19
HETATM   19  C   UNL     1      43.465 -14.433   3.455  1.00  0.00     0.267 C 
HETATM   20  O   UNL     1      43.458 -13.398   2.804  1.00  0.00    -0.265 OA
BRANCH  19  21
HETATM   21  O   UNL     1      44.088 -14.601   4.657  1.00  0.00    -0.316 OA
BRANCH  21  22
HETATM   22  C   UNL     1      44.001 -13.513   5.597  1.00  0.00     0.123 C 
HETATM   23  C   UNL     1      44.791 -13.916   6.835  1.00  0.00     0.040 C 
HETATM   24  C   UNL     1      42.532 -13.292   5.927  1.00  0.00     0.040 C 
ENDBRANCH  21  22
ENDBRANCH  19  21
ENDBRANCH   1  19
BRANCH   2  25
HETATM   25  O   UNL     1      41.168 -14.338   1.841  1.00  0.00    -0.389 OA
HETATM   26  H   UNL     1      41.017 -14.656   0.927  1.00  0.00     0.210 HD
ENDBRANCH   2  25
BRANCH   7  27
HETATM   27  O   UNL     1      42.751 -18.385   6.970  1.00  0.00    -0.343 OA
HETATM   28  H   UNL     1      43.218 -17.906   7.670  1.00  0.00     0.219 HD
ENDBRANCH   7  27
TORSDOF 6
ENDMDL
MODEL 3
REMARK VINA RESULT:      -7.0      2.801      3.758
REMARK  6 active torsions:
REMARK  status: ('A' for Active; 'I' for Inactive)
REMARK    1  A    between atoms: C_2  and  O_3 
REMARK    2  A    between atoms: O_3  and  C_4 
REMARK    3  A    between atoms: C_4  and  C_5 
REMARK    4  A    between atoms: C_6  and  O_7 
REMARK    5  A    between atoms: C_12  and  O_13 
REMARK    6  A    between atoms: C_17  and  C_18 
ROOT
HETATM    1  C   UNL     1      42.394 -16.315   3.996  1.00  0.00     0.133 C 
HETATM    2  C   UNL     1      41.128 -16.473   4.910  1.00  0.00     0.073 C 
HETATM    3  C   UNL     1      40.476 -17.851   4.708  1.00  0.00     0.047 C 
HETATM    4  C   UNL     1      41.413 -16.248   6.423  1.00  0.00     0.097 C 
HETATM    5  C   UNL     1      42.715 -16.846   6.792  1.00  0.00     0.042 A 
HETATM    6  C   UNL     1      43.735 -17.222   5.943  1.00  0.00     0.030 A 
HETATM    7  C   UNL     1      44.733 -17.674   6.821  1.00  0.00     0.190 A 
HETATM    8  N   UNL     1      44.387 -17.612   8.101  1.00  0.00    -0.149 NA
HETATM    9  N   UNL     1      43.147 -17.093   8.064  1.00  0.00    -0.279 N 
HETATM   10  H   UNL     1      42.667 -16.930   8.944  1.00  0.00     0.189 HD
HETATM   11  C   UNL     1      43.679 -17.061   4.462  1.00  0.00     0.074 C 
ENDROOT
BRANCH  11  12
HETATM   12  C   UNL     1      43.872 -18.417   3.789  1.00  0.00    -0.048 A 
HETATM   13  C   UNL     1      44.460 -19.540   4.395  1.00  0.00     0.011 A 
HETATM   14  C   UNL     1      44.591 -20.747   3.701  1.00  0.00     0.043 A 
HETATM   15  C   UNL     1      44.130 -20.844   2.396  1.00  0.00     0.116 A 
HETATM   16  F   UNL     1      44.257 -22.001   1.733  1.00  0.00    -0.206 F 
HETATM   17  C   UNL     1      43.539 -19.757   1.770  1.00  0.00     0.043 A 
HETATM   18  C   UNL     1      43.409 -18.551   2.462  1.00  0.00     0.011 A 
ENDBRANCH  11  12
BRANCH   1  19
HETATM   19  C   UNL     1      42.758 -14.847   3.849  1.00  0.00     0.267 C 
HETATM   20  O   UNL     1      42.793 -14.039   4.766  1.00  0.00    -0.265 OA
BRANCH  19  21
HETATM   21  O   UNL     1      43.010 -14.562   2.540  1.00  0.00    -0.316 OA
BRANCH  21  22
HETATM   22  C   UNL     1      41.873 -14.280   1.701  1.00  0.00     0.123 C 
HETATM   23  C   UNL     1      41.899 -15.274   0.547  1.00  0.00     0.040 C 
HETATM   24  C   UNL     1      42.001 -12.848   1.201  1.00  0.00     0.040 C 
ENDBRANCH  21  22
ENDBRANCH  19  21
ENDBRANCH   1  19
BRANCH   2  25
HETATM   25  O   UNL     1      40.112 -15.542   4.485  1.00  0.00    -0.389 OA
HETATM   26  H   UNL     1      39.321 -15.690   5.043  1.00  0.00     0.210 HD
ENDBRANCH   2  25
BRANCH   7  27
HETATM   27  O   UNL     1      45.945 -18.166   6.554  1.00  0.00    -0.343 OA
HETATM   28  H   UNL     1      45.942 -18.584   5.680  1.00  0.00     0.219 HD
ENDBRANCH   7  27
TORSDOF 6
ENDMDL
MODEL 4
REMARK VINA RESULT:      -6.8      3.035      4.066
REMARK  6 active torsions:
REMARK  status: ('A' for Active; 'I' for Inactive)
REMARK    1  A    between atoms: C_2  and  O_3 
REMARK    2  A    between atoms: O_3  and  C_4 
REMARK    3  A    between atoms: C_4  and  C_5 
REMARK    4  A    between atoms: C_6  and  O_7 
REMARK    5  A    between atoms: C_12  and  O_13 
REMARK    6  A    between atoms: C_17  and  C_18 
ROOT
HETATM    1  C   UNL     1      41.135 -14.885   0.786  1.00  0.00     0.133 C 
HETATM    2  C   UNL     1      39.720 -14.703   1.438  1.00  0.00     0.073 C 
HETATM    3  C   UNL     1      39.301 -15.973   2.197  1.00  0.00     0.047 C 
HETATM    4  C   UNL     1      39.616 -13.472   2.384  1.00  0.00     0.097 C 
HETATM    5  C   UNL     1      40.859 -13.330   3.176  1.00  0.00     0.042 A 
HETATM    6  C   UNL     1      42.085 -13.908   2.920  1.00  0.00     0.030 A 
HETATM    7  C   UNL     1      42.899 -13.401   3.946  1.00  0.00     0.190 A 
HETATM    8  N   UNL     1      42.260 -12.595   4.785  1.00  0.00    -0.149 NA
HETATM    9  N   UNL     1      41.010 -12.557   4.291  1.00  0.00    -0.279 N 
HETATM   10  H   UNL     1      40.323 -11.977   4.764  1.00  0.00     0.189 HD
HETATM   11  C   UNL     1      42.356 -14.788   1.747  1.00  0.00     0.074 C 
ENDROOT
BRANCH  11  12
HETATM   12  C   UNL     1      42.859 -16.146   2.228  1.00  0.00    -0.048 A 
HETATM   13  C   UNL     1      42.634 -16.680   3.509  1.00  0.00     0.011 A 
HETATM   14  C   UNL     1      43.130 -17.939   3.861  1.00  0.00     0.043 A 
HETATM   15  C   UNL     1      43.851 -18.679   2.934  1.00  0.00     0.116 A 
HETATM   16  F   UNL     1      44.326 -19.884   3.274  1.00  0.00    -0.206 F 
HETATM   17  C   UNL     1      44.086 -18.184   1.660  1.00  0.00     0.043 A 
HETATM   18  C   UNL     1      43.592 -16.927   1.308  1.00  0.00     0.011 A 
ENDBRANCH  11  12
BRANCH   1  19
HETATM   19  C   UNL     1      41.347 -13.853  -0.310  1.00  0.00     0.267 C 
HETATM   20  O   UNL     1      42.072 -12.873  -0.218  1.00  0.00    -0.265 OA
BRANCH  19  21
HETATM   21  O   UNL     1      40.585 -14.168  -1.396  1.00  0.00    -0.316 OA
BRANCH  21  22
HETATM   22  C   UNL     1      41.279 -14.641  -2.567  1.00  0.00     0.123 C 
HETATM   23  C   UNL     1      41.291 -13.503  -3.580  1.00  0.00     0.040 C 
HETATM   24  C   UNL     1      40.528 -15.851  -3.103  1.00  0.00     0.040 C 
ENDBRANCH  21  22
ENDBRANCH  19  21
ENDBRANCH   1  19
BRANCH   2  25
HETATM   25  O   UNL     1      38.726 -14.575   0.400  1.00  0.00    -0.389 OA
HETATM   26  H   UNL     1      37.857 -14.801   0.790  1.00  0.00     0.210 HD
ENDBRANCH   2  25
BRANCH   7  27
HETATM   27  O   UNL     1      44.189 -13.628   4.202  1.00  0.00    -0.343 OA
HETATM   28  H   UNL     1      44.486 -14.408   3.711  1.00  0.00     0.219 HD
ENDBRANCH   7  27
TORSDOF 6
ENDMDL
MODEL 5
REMARK VINA RESULT:      -6.7      3.173      5.325
REMARK  6 active torsions:
REMARK  status: ('A' for Active; 'I' for Inactive)
REMARK    1  A    between atoms: C_2  and  O_3 
REMARK    2  A    between atoms: O_3  and  C_4 
REMARK    3  A    between atoms: C_4  and  C_5 
REMARK    4  A    between atoms: C_6  and  O_7 
REMARK    5  A    between atoms: C_12  and  O_13 
REMARK    6  A    between atoms: C_17  and  C_18 
ROOT
HETATM    1  C   UNL     1      41.701 -14.634   4.138  1.00  0.00     0.133 C 
HETATM    2  C   UNL     1      42.652 -13.613   3.422  1.00  0.00     0.073 C 
HETATM    3  C   UNL     1      44.118 -14.068   3.523  1.00  0.00     0.047 C 
HETATM    4  C   UNL     1      42.289 -13.352   1.931  1.00  0.00     0.097 C 
HETATM    5  C   UNL     1      41.873 -14.615   1.279  1.00  0.00     0.042 A 
HETATM    6  C   UNL     1      41.485 -15.787   1.894  1.00  0.00     0.030 A 
HETATM    7  C   UNL     1      41.159 -16.622   0.813  1.00  0.00     0.190 A 
HETATM    8  N   UNL     1      41.335 -16.055  -0.373  1.00  0.00    -0.149 NA
HETATM    9  N   UNL     1      41.767 -14.818  -0.067  1.00  0.00    -0.279 N 
HETATM   10  H   UNL     1      41.959 -14.174  -0.827  1.00  0.00     0.189 HD
HETATM   11  C   UNL     1      41.407 -15.958   3.372  1.00  0.00     0.074 C 
ENDROOT
BRANCH  11  12
HETATM   12  C   UNL     1      42.299 -17.119   3.804  1.00  0.00    -0.048 A 
HETATM   13  C   UNL     1      43.333 -17.671   3.027  1.00  0.00     0.011 A 
HETATM   14  C   UNL     1      44.105 -18.733   3.507  1.00  0.00     0.043 A 
HETATM   15  C   UNL     1      43.854 -19.251   4.770  1.00  0.00     0.116 A 
HETATM   16  F   UNL     1      44.594 -20.270   5.227  1.00  0.00    -0.206 F 
HETATM   17  C   UNL     1      42.845 -18.726   5.564  1.00  0.00     0.043 A 
HETATM   18  C   UNL     1      42.074 -17.666   5.086  1.00  0.00     0.011 A 
ENDBRANCH  11  12
BRANCH   1  19
HETATM   19  C   UNL     1      40.360 -13.985   4.437  1.00  0.00     0.267 C 
HETATM   20  O   UNL     1      39.355 -14.107   3.751  1.00  0.00    -0.265 OA
BRANCH  19  21
HETATM   21  O   UNL     1      40.455 -13.225   5.565  1.00  0.00    -0.316 OA
BRANCH  21  22
HETATM   22  C   UNL     1      39.321 -12.397   5.894  1.00  0.00     0.123 C 
HETATM   23  C   UNL     1      39.510 -11.062   5.184  1.00  0.00     0.040 C 
HETATM   24  C   UNL     1      39.291 -12.221   7.405  1.00  0.00     0.040 C 
ENDBRANCH  21  22
ENDBRANCH  19  21
ENDBRANCH   1  19
BRANCH   2  25
HETATM   25  O   UNL     1      42.629 -12.358   4.132  1.00  0.00    -0.389 OA
HETATM   26  H   UNL     1      43.536 -12.182   4.455  1.00  0.00     0.210 HD
ENDBRANCH   2  25
BRANCH   7  27
HETATM   27  O   UNL     1      40.727 -17.885   0.812  1.00  0.00    -0.343 OA
HETATM   28  H   UNL     1      40.741 -18.235   1.715  1.00  0.00     0.219 HD
ENDBRANCH   7  27
TORSDOF 6
ENDMDL
MODEL 6
REMARK VINA RESULT:      -6.6      2.700      4.809
REMARK  6 active torsions:
REMARK  status: ('A' for Active; 'I' for Inactive)
REMARK    1  A    between atoms: C_2  and  O_3 
REMARK    2  A    between atoms: O_3  and  C_4 
REMARK    3  A    between atoms: C_4  and  C_5 
REMARK    4  A    between atoms: C_6  and  O_7 
REMARK    5  A    between atoms: C_12  and  O_13 
REMARK    6  A    between atoms: C_17  and  C_18 
ROOT
HETATM    1  C   UNL     1      42.378 -17.192   5.925  1.00  0.00     0.133 C 
HETATM    2  C   UNL     1      43.511 -16.410   6.676  1.00  0.00     0.073 C 
HETATM    3  C   UNL     1      44.834 -17.195   6.637  1.00  0.00     0.047 C 
HETATM    4  C   UNL     1      43.744 -14.969   6.137  1.00  0.00     0.097 C 
HETATM    5  C   UNL     1      43.636 -14.952   4.661  1.00  0.00     0.042 A 
HETATM    6  C   UNL     1      43.063 -15.911   3.852  1.00  0.00     0.030 A 
HETATM    7  C   UNL     1      43.194 -15.365   2.565  1.00  0.00     0.190 A 
HETATM    8  N   UNL     1      43.802 -14.185   2.545  1.00  0.00    -0.149 NA
HETATM    9  N   UNL     1      44.059 -13.944   3.842  1.00  0.00    -0.279 N 
HETATM   10  H   UNL     1      44.517 -13.072   4.088  1.00  0.00     0.189 HD
HETATM   11  C   UNL     1      42.426 -17.155   4.369  1.00  0.00     0.074 C 
ENDROOT
BRANCH  11  12
HETATM   12  C   UNL     1      43.105 -18.376   3.754  1.00  0.00    -0.048 A 
HETATM   13  C   UNL     1      44.158 -19.094   4.347  1.00  0.00     0.011 A 
HETATM   14  C   UNL     1      44.718 -20.207   3.711  1.00  0.00     0.043 A 
HETATM   15  C   UNL     1      44.227 -20.615   2.479  1.00  0.00     0.116 A 
HETATM   16  F   UNL     1      44.765 -21.680   1.871  1.00  0.00    -0.206 F 
HETATM   17  C   UNL     1      43.185 -19.932   1.869  1.00  0.00     0.043 A 
HETATM   18  C   UNL     1      42.626 -18.820   2.503  1.00  0.00     0.011 A 
ENDBRANCH  11  12
BRANCH   1  19
HETATM   19  C   UNL     1      41.012 -16.670   6.342  1.00  0.00     0.267 C 
HETATM   20  O   UNL     1      40.051 -17.371   6.625  1.00  0.00    -0.265 OA
BRANCH  19  21
HETATM   21  O   UNL     1      41.012 -15.307   6.322  1.00  0.00    -0.316 OA
BRANCH  21  22
HETATM   22  C   UNL     1      39.833 -14.660   5.804  1.00  0.00     0.123 C 
HETATM   23  C   UNL     1      39.953 -14.641   4.286  1.00  0.00     0.040 C 
HETATM   24  C   UNL     1      39.783 -13.249   6.372  1.00  0.00     0.040 C 
ENDBRANCH  21  22
ENDBRANCH  19  21
ENDBRANCH   1  19
BRANCH   2  25
HETATM   25  O   UNL     1      43.193 -16.335   8.080  1.00  0.00    -0.389 OA
HETATM   26  H   UNL     1      43.690 -17.045   8.537  1.00  0.00     0.210 HD
ENDBRANCH   2  25
BRANCH   7  27
HETATM   27  O   UNL     1      42.819 -15.863   1.385  1.00  0.00    -0.343 OA
HETATM   28  H   UNL     1      42.103 -15.326   1.016  1.00  0.00     0.219 HD
ENDBRANCH   7  27
TORSDOF 6
ENDMDL
MODEL 7
REMARK VINA RESULT:      -6.2      4.800      6.836
REMARK  6 active torsions:
REMARK  status: ('A' for Active; 'I' for Inactive)
REMARK    1  A    between atoms: C_2  and  O_3 
REMARK    2  A    between atoms: O_3  and  C_4 
REMARK    3  A    between atoms: C_4  and  C_5 
REMARK    4  A    between atoms: C_6  and  O_7 
REMARK    5  A    between atoms: C_12  and  O_13 
REMARK    6  A    between atoms: C_17  and  C_18 
ROOT
HETATM    1  C   UNL     1      41.773 -13.577  -0.837  1.00  0.00     0.133 C 
HETATM    2  C   UNL     1      40.910 -13.999  -2.077  1.00  0.00     0.073 C 
HETATM    3  C   UNL     1      41.177 -15.465  -2.455  1.00  0.00     0.047 C 
HETATM    4  C   UNL     1      39.381 -13.780  -1.884  1.00  0.00     0.097 C 
HETATM    5  C   UNL     1      38.985 -14.140  -0.504  1.00  0.00     0.042 A 
HETATM    6  C   UNL     1      39.808 -14.290   0.593  1.00  0.00     0.030 A 
HETATM    7  C   UNL     1      38.910 -14.582   1.631  1.00  0.00     0.190 A 
HETATM    8  N   UNL     1      37.642 -14.631   1.242  1.00  0.00    -0.149 NA
HETATM    9  N   UNL     1      37.707 -14.349  -0.071  1.00  0.00    -0.279 N 
HETATM   10  H   UNL     1      36.840 -14.310  -0.598  1.00  0.00     0.189 HD
HETATM   11  C   UNL     1      41.285 -14.088   0.551  1.00  0.00     0.074 C 
ENDROOT
BRANCH  11  12
HETATM   12  C   UNL     1      41.992 -15.359   1.012  1.00  0.00    -0.048 A 
HETATM   13  C   UNL     1      41.768 -16.642   0.481  1.00  0.00     0.011 A 
HETATM   14  C   UNL     1      42.468 -17.753   0.963  1.00  0.00     0.043 A 
HETATM   15  C   UNL     1      43.402 -17.590   1.977  1.00  0.00     0.116 A 
HETATM   16  F   UNL     1      44.071 -18.656   2.438  1.00  0.00    -0.206 F 
HETATM   17  C   UNL     1      43.651 -16.338   2.518  1.00  0.00     0.043 A 
HETATM   18  C   UNL     1      42.952 -15.229   2.038  1.00  0.00     0.011 A 
ENDBRANCH  11  12
BRANCH   1  19
HETATM   19  C   UNL     1      41.863 -12.062  -0.748  1.00  0.00     0.267 C 
HETATM   20  O   UNL     1      41.197 -11.365   0.005  1.00  0.00    -0.265 OA
BRANCH  19  21
HETATM   21  O   UNL     1      42.772 -11.598  -1.652  1.00  0.00    -0.316 OA
BRANCH  21  22
HETATM   22  C   UNL     1      42.746 -10.186  -1.939  1.00  0.00     0.123 C 
HETATM   23  C   UNL     1      42.674 -10.030  -3.453  1.00  0.00     0.040 C 
HETATM   24  C   UNL     1      44.020  -9.569  -1.380  1.00  0.00     0.040 C 
ENDBRANCH  21  22
ENDBRANCH  19  21
ENDBRANCH   1  19
BRANCH   2  25
HETATM   25  O   UNL     1      41.342 -13.257  -3.236  1.00  0.00    -0.389 OA
HETATM   26  H   UNL     1      41.313 -12.305  -3.008  1.00  0.00     0.210 HD
ENDBRANCH   2  25
BRANCH   7  27
HETATM   27  O   UNL     1      39.149 -14.831   2.921  1.00  0.00    -0.343 OA
HETATM   28  H   UNL     1      39.589 -14.068   3.324  1.00  0.00     0.219 HD
ENDBRANCH   7  27
TORSDOF 6
ENDMDL
MODEL 8
REMARK VINA RESULT:      -6.1      6.422      8.927
REMARK  6 active torsions:
REMARK  status: ('A' for Active; 'I' for Inactive)
REMARK    1  A    between atoms: C_2  and  O_3 
REMARK    2  A    between atoms: O_3  and  C_4 
REMARK    3  A    between atoms: C_4  and  C_5 
REMARK    4  A    between atoms: C_6  and  O_7 
REMARK    5  A    between atoms: C_12  and  O_13 
REMARK    6  A    between atoms: C_17  and  C_18 
ROOT
HETATM    1  C   UNL     1      40.011 -13.020   0.260  1.00  0.00     0.133 C 
HETATM    2  C   UNL     1      38.504 -12.916  -0.163  1.00  0.00     0.073 C 
HETATM    3  C   UNL     1      38.218 -11.562  -0.835  1.00  0.00     0.047 C 
HETATM    4  C   UNL     1      38.031 -14.070  -1.094  1.00  0.00     0.097 C 
HETATM    5  C   UNL     1      39.090 -14.405  -2.072  1.00  0.00     0.042 A 
HETATM    6  C   UNL     1      40.426 -14.071  -2.006  1.00  0.00     0.030 A 
HETATM    7  C   UNL     1      40.965 -14.677  -3.152  1.00  0.00     0.190 A 
HETATM    8  N   UNL     1      40.067 -15.321  -3.888  1.00  0.00    -0.149 NA
HETATM    9  N   UNL     1      38.922 -15.149  -3.204  1.00  0.00    -0.279 N 
HETATM   10  H   UNL     1      38.075 -15.575  -3.569  1.00  0.00     0.189 HD
HETATM   11  C   UNL     1      41.032 -13.301  -0.882  1.00  0.00     0.074 C 
ENDROOT
BRANCH  11  12
HETATM   12  C   UNL     1      41.700 -12.039  -1.422  1.00  0.00    -0.048 A 
HETATM   13  C   UNL     1      41.392 -11.429  -2.651  1.00  0.00     0.011 A 
HETATM   14  C   UNL     1      42.053 -10.269  -3.064  1.00  0.00     0.043 A 
HETATM   15  C   UNL     1      43.026  -9.704  -2.251  1.00  0.00     0.116 A 
HETATM   16  F   UNL     1      43.658  -8.593  -2.649  1.00  0.00    -0.206 F 
HETATM   17  C   UNL     1      43.349 -10.278  -1.030  1.00  0.00     0.043 A 
HETATM   18  C   UNL     1      42.690 -11.436  -0.617  1.00  0.00     0.011 A 
ENDBRANCH  11  12
BRANCH   1  19
HETATM   19  C   UNL     1      40.192 -14.115   1.299  1.00  0.00     0.267 C 
HETATM   20  O   UNL     1      39.303 -14.555   2.014  1.00  0.00    -0.265 OA
BRANCH  19  21
HETATM   21  O   UNL     1      41.497 -14.509   1.334  1.00  0.00    -0.316 OA
BRANCH  21  22
HETATM   22  C   UNL     1      41.757 -15.879   1.695  1.00  0.00     0.123 C 
HETATM   23  C   UNL     1      43.160 -15.937   2.285  1.00  0.00     0.040 C 
HETATM   24  C   UNL     1      41.653 -16.725   0.434  1.00  0.00     0.040 C 
ENDBRANCH  21  22
ENDBRANCH  19  21
ENDBRANCH   1  19
BRANCH   2  25
HETATM   25  O   UNL     1      37.675 -12.900   1.017  1.00  0.00    -0.389 OA
HETATM   26  H   UNL     1      37.283 -12.006   1.093  1.00  0.00     0.210 HD
ENDBRANCH   2  25
BRANCH   7  27
HETATM   27  O   UNL     1      42.220 -14.680  -3.606  1.00  0.00    -0.343 OA
HETATM   28  H   UNL     1      42.413 -15.530  -4.027  1.00  0.00     0.219 HD
ENDBRANCH   7  27
TORSDOF 6
ENDMDL
MODEL 9
REMARK VINA RESULT:      -6.0      3.958      6.133
REMARK  6 active torsions:
REMARK  status: ('A' for Active; 'I' for Inactive)
REMARK    1  A    between atoms: C_2  and  O_3 
REMARK    2  A    between atoms: O_3  and  C_4 
REMARK    3  A    between atoms: C_4  and  C_5 
REMARK    4  A    between atoms: C_6  and  O_7 
REMARK    5  A    between atoms: C_12  and  O_13 
REMARK    6  A    between atoms: C_17  and  C_18 
ROOT
HETATM    1  C   UNL     1      41.632 -15.221   2.248  1.00  0.00     0.133 C 
HETATM    2  C   UNL     1      40.474 -15.707   1.309  1.00  0.00     0.073 C 
HETATM    3  C   UNL     1      39.115 -15.184   1.802  1.00  0.00     0.047 C 
HETATM    4  C   UNL     1      40.671 -15.318  -0.186  1.00  0.00     0.097 C 
HETATM    5  C   UNL     1      41.232 -13.953  -0.288  1.00  0.00     0.042 A 
HETATM    6  C   UNL     1      41.853 -13.225   0.706  1.00  0.00     0.030 A 
HETATM    7  C   UNL     1      42.223 -12.039   0.052  1.00  0.00     0.190 A 
HETATM    8  N   UNL     1      41.863 -11.999  -1.225  1.00  0.00    -0.149 NA
HETATM    9  N   UNL     1      41.262 -13.187  -1.418  1.00  0.00    -0.279 N 
HETATM   10  H   UNL     1      40.908 -13.402  -2.345  1.00  0.00     0.189 HD
HETATM   11  C   UNL     1      42.075 -13.737   2.088  1.00  0.00     0.074 C 
ENDROOT
BRANCH  11  12
HETATM   12  C   UNL     1      41.420 -12.797   3.097  1.00  0.00    -0.048 A 
HETATM   13  C   UNL     1      40.217 -12.102   2.885  1.00  0.00     0.011 A 
HETATM   14  C   UNL     1      39.686 -11.263   3.870  1.00  0.00     0.043 A 
HETATM   15  C   UNL     1      40.353 -11.115   5.079  1.00  0.00     0.116 A 
HETATM   16  F   UNL     1      39.844 -10.310   6.021  1.00  0.00    -0.206 F 
HETATM   17  C   UNL     1      41.540 -11.790   5.322  1.00  0.00     0.043 A 
HETATM   18  C   UNL     1      42.070 -12.627   4.338  1.00  0.00     0.011 A 
ENDBRANCH  11  12
BRANCH   1  19
HETATM   19  C   UNL     1      42.870 -16.080   2.046  1.00  0.00     0.267 C 
HETATM   20  O   UNL     1      43.140 -16.688   1.020  1.00  0.00    -0.265 OA
BRANCH  19  21
HETATM   21  O   UNL     1      43.615 -16.095   3.188  1.00  0.00    -0.316 OA
BRANCH  21  22
HETATM   22  C   UNL     1      43.012 -16.688   4.355  1.00  0.00     0.123 C 
HETATM   23  C   UNL     1      43.445 -15.865   5.561  1.00  0.00     0.040 C 
HETATM   24  C   UNL     1      43.506 -18.124   4.460  1.00  0.00     0.040 C 
ENDBRANCH  21  22
ENDBRANCH  19  21
ENDBRANCH   1  19
BRANCH   2  25
HETATM   25  O   UNL     1      40.350 -17.141   1.403  1.00  0.00    -0.389 OA
HETATM   26  H   UNL     1      41.182 -17.488   1.785  1.00  0.00     0.210 HD
ENDBRANCH   2  25
BRANCH   7  27
HETATM   27  O   UNL     1      42.852 -10.963   0.528  1.00  0.00    -0.343 OA
HETATM   28  H   UNL     1      42.529 -10.764   1.419  1.00  0.00     0.219 HD
ENDBRANCH   7  27
TORSDOF 6
ENDMDL
MODEL 10
REMARK VINA RESULT:      -5.9      5.243      7.869
REMARK  6 active torsions:
REMARK  status: ('A' for Active; 'I' for Inactive)
REMARK    1  A    between atoms: C_2  and  O_3 
REMARK    2  A    between atoms: O_3  and  C_4 
REMARK    3  A    between atoms: C_4  and  C_5 
REMARK    4  A    between atoms: C_6  and  O_7 
REMARK    5  A    between atoms: C_12  and  O_13 
REMARK    6  A    between atoms: C_17  and  C_18 
ROOT
HETATM    1  C   UNL     1      41.602 -13.286   0.165  1.00  0.00     0.133 C 
HETATM    2  C   UNL     1      41.656 -11.728  -0.001  1.00  0.00     0.073 C 
HETATM    3  C   UNL     1      41.441 -11.327  -1.470  1.00  0.00     0.047 C 
HETATM    4  C   UNL     1      40.643 -10.963   0.901  1.00  0.00     0.097 C 
HETATM    5  C   UNL     1      39.357 -11.694   0.957  1.00  0.00     0.042 A 
HETATM    6  C   UNL     1      39.125 -13.010   0.614  1.00  0.00     0.030 A 
HETATM    7  C   UNL     1      37.763 -13.182   0.906  1.00  0.00     0.190 A 
HETATM    8  N   UNL     1      37.174 -12.088   1.372  1.00  0.00    -0.149 NA
HETATM    9  N   UNL     1      38.171 -11.186   1.404  1.00  0.00    -0.279 N 
HETATM   10  H   UNL     1      37.965 -10.254   1.749  1.00  0.00     0.189 HD
HETATM   11  C   UNL     1      40.188 -13.937   0.130  1.00  0.00     0.074 C 
ENDROOT
BRANCH  11  12
HETATM   12  C   UNL     1      39.806 -14.484  -1.243  1.00  0.00    -0.048 A 
HETATM   13  C   UNL     1      38.696 -14.065  -1.996  1.00  0.00     0.011 A 
HETATM   14  C   UNL     1      38.425 -14.620  -3.251  1.00  0.00     0.043 A 
HETATM   15  C   UNL     1      39.266 -15.597  -3.767  1.00  0.00     0.116 A 
HETATM   16  F   UNL     1      39.005 -16.128  -4.968  1.00  0.00    -0.206 F 
HETATM   17  C   UNL     1      40.374 -16.029  -3.052  1.00  0.00     0.043 A 
HETATM   18  C   UNL     1      40.644 -15.475  -1.799  1.00  0.00     0.011 A 
ENDBRANCH  11  12
BRANCH   1  19
HETATM   19  C   UNL     1      42.250 -13.699   1.477  1.00  0.00     0.267 C 
HETATM   20  O   UNL     1      42.818 -12.938   2.247  1.00  0.00    -0.265 OA
BRANCH  19  21
HETATM   21  O   UNL     1      42.128 -15.047   1.649  1.00  0.00    -0.316 OA
BRANCH  21  22
HETATM   22  C   UNL     1      43.142 -15.699   2.438  1.00  0.00     0.123 C 
HETATM   23  C   UNL     1      43.691 -16.855   1.611  1.00  0.00     0.040 C 
HETATM   24  C   UNL     1      42.492 -16.197   3.721  1.00  0.00     0.040 C 
ENDBRANCH  21  22
ENDBRANCH  19  21
ENDBRANCH   1  19
BRANCH   2  25
HETATM   25  O   UNL     1      42.987 -11.259   0.296  1.00  0.00    -0.389 OA
HETATM   26  H   UNL     1      43.364 -10.891  -0.529  1.00  0.00     0.210 HD
ENDBRANCH   2  25
BRANCH   7  27
HETATM   27  O   UNL     1      36.990 -14.262   0.764  1.00  0.00    -0.343 OA
HETATM   28  H   UNL     1      37.543 -15.056   0.736  1.00  0.00     0.219 HD
ENDBRANCH   7  27
TORSDOF 6
ENDMDL
