MODEL 1
REMARK VINA RESULT:      -9.3      0.000      0.000
REMARK  7 active torsions:
REMARK  status: ('A' for Active; 'I' for Inactive)
REMARK    1  A    between atoms: O_2  and  C_3 
REMARK    2  A    between atoms: C_6  and  C_7 
REMARK    3  A    between atoms: C_11  and  C_12 
REMARK       I    between atoms: C_12  and  N_13 
REMARK    4  A    between atoms: N_13  and  N_14 
REMARK       I    between atoms: N_14  and  C_15 
REMARK    5  A    between atoms: C_15  and  C_16 
REMARK    6  A    between atoms: C_16  and  C_17 
REMARK    7  A    between atoms: C_17  and  C_18 
ROOT
HETATM    1  C   UNL     1      44.980 -13.610   7.388  1.00  0.00     0.288 C 
HETATM    2  N   UNL     1      44.083 -14.646   7.539  1.00  0.00    -0.262 N 
HETATM    3  O   UNL     1      45.795 -13.581   6.468  1.00  0.00    -0.264 OA
HETATM    4  H   UNL     1      43.286 -14.580   8.168  1.00  0.00     0.190 HD
ENDROOT
BRANCH   1   5
HETATM    5  C   UNL     1      44.879 -12.568   8.375  1.00  0.00     0.121 A 
HETATM    6  N   UNL     1      45.915 -11.720   8.646  1.00  0.00    -0.272 N 
HETATM    7  N   UNL     1      45.638 -10.792   9.574  1.00  0.00    -0.174 NA
HETATM    8  H   UNL     1      46.836 -11.725   8.217  1.00  0.00     0.189 HD
HETATM    9  C   UNL     1      44.374 -11.048   9.947  1.00  0.00     0.089 A 
HETATM   10  C   UNL     1      43.865 -12.159   9.217  1.00  0.00     0.071 A 
BRANCH   9  11
HETATM   11  C   UNL     1      43.680 -10.239  10.954  1.00  0.00    -0.005 A 
HETATM   12  C   UNL     1      42.578  -9.448  10.597  1.00  0.00     0.016 A 
HETATM   13  C   UNL     1      41.885  -8.696  11.557  1.00  0.00     0.037 A 
HETATM   14  C   UNL     1      42.289  -8.722  12.891  1.00  0.00     0.068 A 
HETATM   15  C   UNL     1      43.398  -9.489  13.250  1.00  0.00     0.037 A 
HETATM   16  C   UNL     1      44.087 -10.243  12.294  1.00  0.00     0.016 A 
BRANCH  14  17
HETATM   17  O   UNL     1      41.701  -8.047  13.924  1.00  0.00    -0.356 OA
HETATM   18  C   UNL     1      40.513  -7.325  13.623  1.00  0.00     0.210 C 
ENDBRANCH  14  17
ENDBRANCH   9  11
ENDBRANCH   1   5
BRANCH   2  19
HETATM   19  N   UNL     1      43.957 -15.595   6.512  1.00  0.00    -0.267 N 
HETATM   20  C   UNL     1      43.449 -16.829   6.871  1.00  0.00     0.236 C 
HETATM   21  O   UNL     1      43.260 -17.143   8.045  1.00  0.00    -0.272 OA
HETATM   22  H   UNL     1      43.873 -15.227   5.565  1.00  0.00     0.190 HD
BRANCH  20  23
HETATM   23  C   UNL     1      43.210 -17.750   5.695  1.00  0.00     0.109 C 
BRANCH  23  24
HETATM   24  C   UNL     1      44.508 -18.424   5.249  1.00  0.00     0.051 C 
BRANCH  24  25
HETATM   25  C   UNL     1      44.307 -19.372   4.095  1.00  0.00    -0.019 A 
HETATM   26  C   UNL     1      44.668 -20.718   4.197  1.00  0.00     0.122 A 
HETATM   27  F   UNL     1      45.192 -21.183   5.341  1.00  0.00    -0.206 F 
HETATM   28  C   UNL     1      44.495 -21.599   3.133  1.00  0.00     0.043 A 
HETATM   29  C   UNL     1      43.957 -21.135   1.935  1.00  0.00     0.003 A 
HETATM   30  C   UNL     1      43.595 -19.794   1.811  1.00  0.00     0.001 A 
HETATM   31  C   UNL     1      43.767 -18.916   2.883  1.00  0.00     0.010 A 
ENDBRANCH  24  25
ENDBRANCH  23  24
ENDBRANCH  20  23
ENDBRANCH   2  19
TORSDOF 7
ENDMDL
MODEL 2
REMARK VINA RESULT:      -9.2      3.283     11.282
REMARK  7 active torsions:
REMARK  status: ('A' for Active; 'I' for Inactive)
REMARK    1  A    between atoms: O_2  and  C_3 
REMARK    2  A    between atoms: C_6  and  C_7 
REMARK    3  A    between atoms: C_11  and  C_12 
REMARK       I    between atoms: C_12  and  N_13 
REMARK    4  A    between atoms: N_13  and  N_14 
REMARK       I    between atoms: N_14  and  C_15 
REMARK    5  A    between atoms: C_15  and  C_16 
REMARK    6  A    between atoms: C_16  and  C_17 
REMARK    7  A    between atoms: C_17  and  C_18 
ROOT
HETATM    1  C   UNL     1      42.752 -13.243   6.265  1.00  0.00     0.288 C 
HETATM    2  N   UNL     1      43.564 -13.257   7.379  1.00  0.00    -0.262 N 
HETATM    3  O   UNL     1      41.884 -12.386   6.102  1.00  0.00    -0.264 OA
HETATM    4  H   UNL     1      44.404 -13.831   7.425  1.00  0.00     0.190 HD
ENDROOT
BRANCH   1   5
HETATM    5  C   UNL     1      43.006 -14.289   5.312  1.00  0.00     0.121 A 
HETATM    6  N   UNL     1      43.178 -14.034   3.980  1.00  0.00    -0.272 N 
HETATM    7  N   UNL     1      43.433 -15.123   3.240  1.00  0.00    -0.174 NA
HETATM    8  H   UNL     1      43.140 -13.128   3.522  1.00  0.00     0.189 HD
HETATM    9  C   UNL     1      43.411 -16.143   4.113  1.00  0.00     0.089 A 
HETATM   10  C   UNL     1      43.142 -15.658   5.424  1.00  0.00     0.071 A 
BRANCH   9  11
HETATM   11  C   UNL     1      43.658 -17.529   3.700  1.00  0.00    -0.005 A 
HETATM   12  C   UNL     1      43.385 -17.941   2.388  1.00  0.00     0.016 A 
HETATM   13  C   UNL     1      43.648 -19.253   1.971  1.00  0.00     0.037 A 
HETATM   14  C   UNL     1      44.188 -20.176   2.865  1.00  0.00     0.068 A 
HETATM   15  C   UNL     1      44.443 -19.779   4.178  1.00  0.00     0.037 A 
HETATM   16  C   UNL     1      44.184 -18.469   4.594  1.00  0.00     0.016 A 
BRANCH  14  17
HETATM   17  O   UNL     1      44.501 -21.478   2.589  1.00  0.00    -0.356 OA
HETATM   18  C   UNL     1      43.975 -22.021   1.385  1.00  0.00     0.210 C 
ENDBRANCH  14  17
ENDBRANCH   9  11
ENDBRANCH   1   5
BRANCH   2  19
HETATM   19  N   UNL     1      43.541 -12.160   8.256  1.00  0.00    -0.267 N 
HETATM   20  C   UNL     1      44.582 -12.071   9.160  1.00  0.00     0.236 C 
HETATM   21  O   UNL     1      45.405 -12.974   9.302  1.00  0.00    -0.272 OA
HETATM   22  H   UNL     1      43.022 -11.341   7.941  1.00  0.00     0.190 HD
BRANCH  20  23
HETATM   23  C   UNL     1      44.569 -10.796   9.974  1.00  0.00     0.109 C 
BRANCH  23  24
HETATM   24  C   UNL     1      43.139 -10.308  10.209  1.00  0.00     0.051 C 
BRANCH  24  25
HETATM   25  C   UNL     1      42.775 -10.250  11.670  1.00  0.00    -0.019 A 
HETATM   26  C   UNL     1      41.616 -10.869  12.148  1.00  0.00     0.122 A 
HETATM   27  F   UNL     1      40.817 -11.534  11.301  1.00  0.00    -0.206 F 
HETATM   28  C   UNL     1      41.266 -10.814  13.495  1.00  0.00     0.043 A 
HETATM   29  C   UNL     1      42.080 -10.124  14.391  1.00  0.00     0.003 A 
HETATM   30  C   UNL     1      43.239  -9.496  13.933  1.00  0.00     0.001 A 
HETATM   31  C   UNL     1      43.586  -9.558  12.581  1.00  0.00     0.010 A 
ENDBRANCH  24  25
ENDBRANCH  23  24
ENDBRANCH  20  23
ENDBRANCH   2  19
TORSDOF 7
ENDMDL
MODEL 3
REMARK VINA RESULT:      -8.8      3.430     11.425
REMARK  7 active torsions:
REMARK  status: ('A' for Active; 'I' for Inactive)
REMARK    1  A    between atoms: O_2  and  C_3 
REMARK    2  A    between atoms: C_6  and  C_7 
REMARK    3  A    between atoms: C_11  and  C_12 
REMARK       I    between atoms: C_12  and  N_13 
REMARK    4  A    between atoms: N_13  and  N_14 
REMARK       I    between atoms: N_14  and  C_15 
REMARK    5  A    between atoms: C_15  and  C_16 
REMARK    6  A    between atoms: C_16  and  C_17 
REMARK    7  A    between atoms: C_17  and  C_18 
ROOT
HETATM    1  C   UNL     1      44.075 -13.842   7.331  1.00  0.00     0.288 C 
HETATM    2  N   UNL     1      43.179 -12.799   7.224  1.00  0.00    -0.262 N 
HETATM    3  O   UNL     1      44.965 -13.852   8.180  1.00  0.00    -0.264 OA
HETATM    4  H   UNL     1      42.330 -12.874   6.667  1.00  0.00     0.190 HD
ENDROOT
BRANCH   1   5
HETATM    5  C   UNL     1      43.880 -14.911   6.390  1.00  0.00     0.121 A 
HETATM    6  N   UNL     1      43.072 -14.779   5.296  1.00  0.00    -0.272 N 
HETATM    7  N   UNL     1      43.028 -15.866   4.510  1.00  0.00    -0.174 NA
HETATM    8  H   UNL     1      42.533 -13.960   5.030  1.00  0.00     0.189 HD
HETATM    9  C   UNL     1      43.822 -16.761   5.120  1.00  0.00     0.089 A 
HETATM   10  C   UNL     1      44.372 -16.198   6.305  1.00  0.00     0.071 A 
BRANCH   9  11
HETATM   11  C   UNL     1      44.054 -18.099   4.567  1.00  0.00    -0.005 A 
HETATM   12  C   UNL     1      44.583 -19.120   5.370  1.00  0.00     0.016 A 
HETATM   13  C   UNL     1      44.779 -20.412   4.863  1.00  0.00     0.037 A 
HETATM   14  C   UNL     1      44.450 -20.702   3.540  1.00  0.00     0.068 A 
HETATM   15  C   UNL     1      43.943 -19.686   2.728  1.00  0.00     0.037 A 
HETATM   16  C   UNL     1      43.744 -18.398   3.234  1.00  0.00     0.016 A 
BRANCH  14  17
HETATM   17  O   UNL     1      44.581 -21.915   2.924  1.00  0.00    -0.356 OA
HETATM   18  C   UNL     1      44.103 -22.010   1.588  1.00  0.00     0.210 C 
ENDBRANCH  14  17
ENDBRANCH   9  11
ENDBRANCH   1   5
BRANCH   2  19
HETATM   19  N   UNL     1      43.150 -11.817   8.229  1.00  0.00    -0.267 N 
HETATM   20  C   UNL     1      42.155 -10.863   8.131  1.00  0.00     0.236 C 
HETATM   21  O   UNL     1      41.427 -10.777   7.144  1.00  0.00    -0.272 OA
HETATM   22  H   UNL     1      43.575 -12.071   9.120  1.00  0.00     0.190 HD
BRANCH  20  23
HETATM   23  C   UNL     1      42.097  -9.926   9.316  1.00  0.00     0.109 C 
BRANCH  23  24
HETATM   24  C   UNL     1      41.157 -10.460  10.396  1.00  0.00     0.051 C 
BRANCH  24  25
HETATM   25  C   UNL     1      41.693 -10.257  11.790  1.00  0.00    -0.019 A 
HETATM   26  C   UNL     1      40.919 -10.568  12.912  1.00  0.00     0.122 A 
HETATM   27  F   UNL     1      39.683 -11.064  12.753  1.00  0.00    -0.206 F 
HETATM   28  C   UNL     1      41.402 -10.375  14.203  1.00  0.00     0.043 A 
HETATM   29  C   UNL     1      42.681  -9.856  14.390  1.00  0.00     0.003 A 
HETATM   30  C   UNL     1      43.468  -9.536  13.284  1.00  0.00     0.001 A 
HETATM   31  C   UNL     1      42.979  -9.735  11.991  1.00  0.00     0.010 A 
ENDBRANCH  24  25
ENDBRANCH  23  24
ENDBRANCH  20  23
ENDBRANCH   2  19
TORSDOF 7
ENDMDL
MODEL 4
REMARK VINA RESULT:      -8.4      4.215     11.111
REMARK  7 active torsions:
REMARK  status: ('A' for Active; 'I' for Inactive)
REMARK    1  A    between atoms: O_2  and  C_3 
REMARK    2  A    between atoms: C_6  and  C_7 
REMARK    3  A    between atoms: C_11  and  C_12 
REMARK       I    between atoms: C_12  and  N_13 
REMARK    4  A    between atoms: N_13  and  N_14 
REMARK       I    between atoms: N_14  and  C_15 
REMARK    5  A    between atoms: C_15  and  C_16 
REMARK    6  A    between atoms: C_16  and  C_17 
REMARK    7  A    between atoms: C_17  and  C_18 
ROOT
HETATM    1  C   UNL     1      41.741 -11.986   5.288  1.00  0.00     0.288 C 
HETATM    2  N   UNL     1      41.589 -12.356   6.608  1.00  0.00    -0.262 N 
HETATM    3  O   UNL     1      41.519 -10.839   4.902  1.00  0.00    -0.264 OA
HETATM    4  H   UNL     1      41.957 -13.235   6.965  1.00  0.00     0.190 HD
ENDROOT
BRANCH   1   5
HETATM    5  C   UNL     1      42.187 -13.033   4.410  1.00  0.00     0.121 A 
HETATM    6  N   UNL     1      42.736 -12.771   3.186  1.00  0.00    -0.272 N 
HETATM    7  N   UNL     1      43.123 -13.864   2.511  1.00  0.00    -0.174 NA
HETATM    8  H   UNL     1      42.880 -11.858   2.764  1.00  0.00     0.189 HD
HETATM    9  C   UNL     1      42.798 -14.892   3.311  1.00  0.00     0.089 A 
HETATM   10  C   UNL     1      42.205 -14.409   4.511  1.00  0.00     0.071 A 
BRANCH   9  11
HETATM   11  C   UNL     1      43.069 -16.285   2.938  1.00  0.00    -0.005 A 
HETATM   12  C   UNL     1      43.285 -16.635   1.597  1.00  0.00     0.016 A 
HETATM   13  C   UNL     1      43.577 -17.956   1.231  1.00  0.00     0.037 A 
HETATM   14  C   UNL     1      43.655 -18.951   2.205  1.00  0.00     0.068 A 
HETATM   15  C   UNL     1      43.420 -18.614   3.539  1.00  0.00     0.037 A 
HETATM   16  C   UNL     1      43.132 -17.295   3.905  1.00  0.00     0.016 A 
BRANCH  14  17
HETATM   17  O   UNL     1      43.939 -20.270   1.988  1.00  0.00    -0.356 OA
HETATM   18  C   UNL     1      44.579 -20.969   3.049  1.00  0.00     0.210 C 
ENDBRANCH  14  17
ENDBRANCH   9  11
ENDBRANCH   1   5
BRANCH   2  19
HETATM   19  N   UNL     1      41.368 -11.362   7.575  1.00  0.00    -0.267 N 
HETATM   20  C   UNL     1      40.086 -11.267   8.081  1.00  0.00     0.236 C 
HETATM   21  O   UNL     1      39.147 -11.906   7.609  1.00  0.00    -0.272 OA
HETATM   22  H   UNL     1      42.185 -11.056   8.103  1.00  0.00     0.190 HD
BRANCH  20  23
HETATM   23  C   UNL     1      39.955 -10.274   9.215  1.00  0.00     0.109 C 
BRANCH  23  24
HETATM   24  C   UNL     1      39.988 -10.978  10.571  1.00  0.00     0.051 C 
BRANCH  24  25
HETATM   25  C   UNL     1      41.197 -10.609  11.391  1.00  0.00    -0.019 A 
HETATM   26  C   UNL     1      41.335 -11.049  12.710  1.00  0.00     0.122 A 
HETATM   27  F   UNL     1      40.385 -11.821  13.258  1.00  0.00    -0.206 F 
HETATM   28  C   UNL     1      42.444 -10.705  13.479  1.00  0.00     0.043 A 
HETATM   29  C   UNL     1      43.440  -9.900  12.931  1.00  0.00     0.003 A 
HETATM   30  C   UNL     1      43.319  -9.446  11.617  1.00  0.00     0.001 A 
HETATM   31  C   UNL     1      42.206  -9.798  10.850  1.00  0.00     0.010 A 
ENDBRANCH  24  25
ENDBRANCH  23  24
ENDBRANCH  20  23
ENDBRANCH   2  19
TORSDOF 7
ENDMDL
MODEL 5
REMARK VINA RESULT:      -8.3      8.233     12.027
REMARK  7 active torsions:
REMARK  status: ('A' for Active; 'I' for Inactive)
REMARK    1  A    between atoms: O_2  and  C_3 
REMARK    2  A    between atoms: C_6  and  C_7 
REMARK    3  A    between atoms: C_11  and  C_12 
REMARK       I    between atoms: C_12  and  N_13 
REMARK    4  A    between atoms: N_13  and  N_14 
REMARK       I    between atoms: N_14  and  C_15 
REMARK    5  A    between atoms: C_15  and  C_16 
REMARK    6  A    between atoms: C_16  and  C_17 
REMARK    7  A    between atoms: C_17  and  C_18 
ROOT
HETATM    1  C   UNL     1      41.204 -15.360  -0.297  1.00  0.00     0.288 C 
HETATM    2  N   UNL     1      41.007 -16.574   0.326  1.00  0.00    -0.262 N 
HETATM    3  O   UNL     1      42.073 -14.571   0.071  1.00  0.00    -0.264 OA
HETATM    4  H   UNL     1      40.436 -17.306  -0.092  1.00  0.00     0.190 HD
ENDROOT
BRANCH   1   5
HETATM    5  C   UNL     1      40.331 -15.096  -1.409  1.00  0.00     0.121 A 
HETATM    6  N   UNL     1      40.488 -15.711  -2.619  1.00  0.00    -0.272 N 
HETATM    7  N   UNL     1      39.568 -15.369  -3.533  1.00  0.00    -0.174 NA
HETATM    8  H   UNL     1      41.205 -16.385  -2.873  1.00  0.00     0.189 HD
HETATM    9  C   UNL     1      38.782 -14.476  -2.911  1.00  0.00     0.089 A 
HETATM   10  C   UNL     1      39.233 -14.277  -1.575  1.00  0.00     0.071 A 
BRANCH   9  11
HETATM   11  C   UNL     1      37.631 -13.856  -3.574  1.00  0.00    -0.005 A 
HETATM   12  C   UNL     1      37.466 -12.463  -3.561  1.00  0.00     0.016 A 
HETATM   13  C   UNL     1      36.387 -11.855  -4.220  1.00  0.00     0.037 A 
HETATM   14  C   UNL     1      35.454 -12.635  -4.900  1.00  0.00     0.068 A 
HETATM   15  C   UNL     1      35.599 -14.023  -4.900  1.00  0.00     0.037 A 
HETATM   16  C   UNL     1      36.677 -14.630  -4.246  1.00  0.00     0.016 A 
BRANCH  14  17
HETATM   17  O   UNL     1      34.367 -12.174  -5.588  1.00  0.00    -0.356 OA
HETATM   18  C   UNL     1      34.445 -12.209  -7.007  1.00  0.00     0.210 C 
ENDBRANCH  14  17
ENDBRANCH   9  11
ENDBRANCH   1   5
BRANCH   2  19
HETATM   19  N   UNL     1      41.944 -17.014   1.275  1.00  0.00    -0.267 N 
HETATM   20  C   UNL     1      41.570 -16.918   2.602  1.00  0.00     0.236 C 
HETATM   21  O   UNL     1      40.542 -16.339   2.952  1.00  0.00    -0.272 OA
HETATM   22  H   UNL     1      42.628 -17.697   0.952  1.00  0.00     0.190 HD
BRANCH  20  23
HETATM   23  C   UNL     1      42.564 -17.538   3.558  1.00  0.00     0.109 C 
BRANCH  23  24
HETATM   24  C   UNL     1      43.824 -17.995   2.822  1.00  0.00     0.051 C 
BRANCH  24  25
HETATM   25  C   UNL     1      44.031 -19.486   2.890  1.00  0.00    -0.019 A 
HETATM   26  C   UNL     1      44.667 -20.076   3.986  1.00  0.00     0.122 A 
HETATM   27  F   UNL     1      45.093 -19.310   5.001  1.00  0.00    -0.206 F 
HETATM   28  C   UNL     1      44.871 -21.451   4.053  1.00  0.00     0.043 A 
HETATM   29  C   UNL     1      44.440 -22.264   3.006  1.00  0.00     0.003 A 
HETATM   30  C   UNL     1      43.808 -21.694   1.901  1.00  0.00     0.001 A 
HETATM   31  C   UNL     1      43.603 -20.314   1.842  1.00  0.00     0.010 A 
ENDBRANCH  24  25
ENDBRANCH  23  24
ENDBRANCH  20  23
ENDBRANCH   2  19
TORSDOF 7
ENDMDL
MODEL 6
REMARK VINA RESULT:      -8.3      3.652     11.199
REMARK  7 active torsions:
REMARK  status: ('A' for Active; 'I' for Inactive)
REMARK    1  A    between atoms: O_2  and  C_3 
REMARK    2  A    between atoms: C_6  and  C_7 
REMARK    3  A    between atoms: C_11  and  C_12 
REMARK       I    between atoms: C_12  and  N_13 
REMARK    4  A    between atoms: N_13  and  N_14 
REMARK       I    between atoms: N_14  and  C_15 
REMARK    5  A    between atoms: C_15  and  C_16 
REMARK    6  A    between atoms: C_16  and  C_17 
REMARK    7  A    between atoms: C_17  and  C_18 
ROOT
HETATM    1  C   UNL     1      41.596 -12.965   5.322  1.00  0.00     0.288 C 
HETATM    2  N   UNL     1      40.977 -12.841   6.548  1.00  0.00    -0.262 N 
HETATM    3  O   UNL     1      42.042 -11.992   4.716  1.00  0.00    -0.264 OA
HETATM    4  H   UNL     1      40.789 -13.649   7.139  1.00  0.00     0.190 HD
ENDROOT
BRANCH   1   5
HETATM    5  C   UNL     1      41.689 -14.309   4.820  1.00  0.00     0.121 A 
HETATM    6  N   UNL     1      40.602 -14.983   4.338  1.00  0.00    -0.272 N 
HETATM    7  N   UNL     1      40.876 -16.215   3.884  1.00  0.00    -0.174 NA
HETATM    8  H   UNL     1      39.647 -14.642   4.286  1.00  0.00     0.189 HD
HETATM    9  C   UNL     1      42.193 -16.372   4.092  1.00  0.00     0.089 A 
HETATM   10  C   UNL     1      42.737 -15.196   4.682  1.00  0.00     0.071 A 
BRANCH   9  11
HETATM   11  C   UNL     1      42.900 -17.602   3.719  1.00  0.00    -0.005 A 
HETATM   12  C   UNL     1      43.774 -18.224   4.622  1.00  0.00     0.016 A 
HETATM   13  C   UNL     1      44.429 -19.418   4.289  1.00  0.00     0.037 A 
HETATM   14  C   UNL     1      44.222 -20.006   3.042  1.00  0.00     0.068 A 
HETATM   15  C   UNL     1      43.370 -19.381   2.130  1.00  0.00     0.037 A 
HETATM   16  C   UNL     1      42.713 -18.192   2.463  1.00  0.00     0.016 A 
BRANCH  14  17
HETATM   17  O   UNL     1      44.788 -21.167   2.594  1.00  0.00    -0.356 OA
HETATM   18  C   UNL     1      44.080 -21.876   1.586  1.00  0.00     0.210 C 
ENDBRANCH  14  17
ENDBRANCH   9  11
ENDBRANCH   1   5
BRANCH   2  19
HETATM   19  N   UNL     1      41.029 -11.608   7.219  1.00  0.00    -0.267 N 
HETATM   20  C   UNL     1      39.977 -11.322   8.067  1.00  0.00     0.236 C 
HETATM   21  O   UNL     1      38.971 -12.028   8.123  1.00  0.00    -0.272 OA
HETATM   22  H   UNL     1      41.956 -11.202   7.345  1.00  0.00     0.190 HD
BRANCH  20  23
HETATM   23  C   UNL     1      40.168 -10.048   8.859  1.00  0.00     0.109 C 
BRANCH  23  24
HETATM   24  C   UNL     1      41.624  -9.586   8.818  1.00  0.00     0.051 C 
BRANCH  24  25
HETATM   25  C   UNL     1      42.314  -9.711  10.152  1.00  0.00    -0.019 A 
HETATM   26  C   UNL     1      43.228 -10.740  10.397  1.00  0.00     0.122 A 
HETATM   27  F   UNL     1      43.508 -11.628   9.431  1.00  0.00    -0.206 F 
HETATM   28  C   UNL     1      43.864 -10.869  11.629  1.00  0.00     0.043 A 
HETATM   29  C   UNL     1      43.584  -9.960  12.647  1.00  0.00     0.003 A 
HETATM   30  C   UNL     1      42.671  -8.929  12.425  1.00  0.00     0.001 A 
HETATM   31  C   UNL     1      42.040  -8.803  11.185  1.00  0.00     0.010 A 
ENDBRANCH  24  25
ENDBRANCH  23  24
ENDBRANCH  20  23
ENDBRANCH   2  19
TORSDOF 7
ENDMDL
MODEL 7
REMARK VINA RESULT:      -8.1      8.437     11.201
REMARK  7 active torsions:
REMARK  status: ('A' for Active; 'I' for Inactive)
REMARK    1  A    between atoms: O_2  and  C_3 
REMARK    2  A    between atoms: C_6  and  C_7 
REMARK    3  A    between atoms: C_11  and  C_12 
REMARK       I    between atoms: C_12  and  N_13 
REMARK    4  A    between atoms: N_13  and  N_14 
REMARK       I    between atoms: N_14  and  C_15 
REMARK    5  A    between atoms: C_15  and  C_16 
REMARK    6  A    between atoms: C_16  and  C_17 
REMARK    7  A    between atoms: C_17  and  C_18 
ROOT
HETATM    1  C   UNL     1      40.289 -15.005   1.009  1.00  0.00     0.288 C 
HETATM    2  N   UNL     1      40.445 -16.371   0.905  1.00  0.00    -0.262 N 
HETATM    3  O   UNL     1      40.289 -14.429   2.096  1.00  0.00    -0.264 OA
HETATM    4  H   UNL     1      40.645 -16.822   0.015  1.00  0.00     0.190 HD
ENDROOT
BRANCH   1   5
HETATM    5  C   UNL     1      40.141 -14.311  -0.242  1.00  0.00     0.121 A 
HETATM    6  N   UNL     1      38.994 -14.380  -0.981  1.00  0.00    -0.272 N 
HETATM    7  N   UNL     1      39.020 -13.649  -2.106  1.00  0.00    -0.174 NA
HETATM    8  H   UNL     1      38.155 -14.906  -0.757  1.00  0.00     0.189 HD
HETATM    9  C   UNL     1      40.240 -13.090  -2.123  1.00  0.00     0.089 A 
HETATM   10  C   UNL     1      40.975 -13.486  -0.969  1.00  0.00     0.071 A 
BRANCH   9  11
HETATM   11  C   UNL     1      40.672 -12.194  -3.201  1.00  0.00    -0.005 A 
HETATM   12  C   UNL     1      42.033 -12.048  -3.505  1.00  0.00     0.016 A 
HETATM   13  C   UNL     1      42.456 -11.220  -4.554  1.00  0.00     0.037 A 
HETATM   14  C   UNL     1      41.520 -10.522  -5.316  1.00  0.00     0.068 A 
HETATM   15  C   UNL     1      40.165 -10.646  -5.006  1.00  0.00     0.037 A 
HETATM   16  C   UNL     1      39.742 -11.474  -3.961  1.00  0.00     0.016 A 
BRANCH  14  17
HETATM   17  O   UNL     1      41.794  -9.693  -6.367  1.00  0.00    -0.356 OA
HETATM   18  C   UNL     1      41.712  -8.296  -6.118  1.00  0.00     0.210 C 
ENDBRANCH  14  17
ENDBRANCH   9  11
ENDBRANCH   1   5
BRANCH   2  19
HETATM   19  N   UNL     1      40.811 -17.105   2.045  1.00  0.00    -0.267 N 
HETATM   20  C   UNL     1      42.144 -17.452   2.154  1.00  0.00     0.236 C 
HETATM   21  O   UNL     1      42.945 -17.268   1.238  1.00  0.00    -0.272 OA
HETATM   22  H   UNL     1      40.206 -17.005   2.860  1.00  0.00     0.190 HD
BRANCH  20  23
HETATM   23  C   UNL     1      42.491 -18.116   3.467  1.00  0.00     0.109 C 
BRANCH  23  24
HETATM   24  C   UNL     1      43.983 -18.438   3.545  1.00  0.00     0.051 C 
BRANCH  24  25
HETATM   25  C   UNL     1      44.256 -19.916   3.660  1.00  0.00    -0.019 A 
HETATM   26  C   UNL     1      44.126 -20.760   2.553  1.00  0.00     0.122 A 
HETATM   27  F   UNL     1      43.762 -20.253   1.366  1.00  0.00    -0.206 F 
HETATM   28  C   UNL     1      44.368 -22.128   2.652  1.00  0.00     0.043 A 
HETATM   29  C   UNL     1      44.741 -22.676   3.877  1.00  0.00     0.003 A 
HETATM   30  C   UNL     1      44.872 -21.851   4.994  1.00  0.00     0.001 A 
HETATM   31  C   UNL     1      44.633 -20.479   4.888  1.00  0.00     0.010 A 
ENDBRANCH  24  25
ENDBRANCH  23  24
ENDBRANCH  20  23
ENDBRANCH   2  19
TORSDOF 7
ENDMDL
MODEL 8
REMARK VINA RESULT:      -8.0      3.625      4.515
REMARK  7 active torsions:
REMARK  status: ('A' for Active; 'I' for Inactive)
REMARK    1  A    between atoms: O_2  and  C_3 
REMARK    2  A    between atoms: C_6  and  C_7 
REMARK    3  A    between atoms: C_11  and  C_12 
REMARK       I    between atoms: C_12  and  N_13 
REMARK    4  A    between atoms: N_13  and  N_14 
REMARK       I    between atoms: N_14  and  C_15 
REMARK    5  A    between atoms: C_15  and  C_16 
REMARK    6  A    between atoms: C_16  and  C_17 
REMARK    7  A    between atoms: C_17  and  C_18 
ROOT
HETATM    1  C   UNL     1      40.147 -14.468   3.900  1.00  0.00     0.288 C 
HETATM    2  N   UNL     1      41.117 -15.389   4.231  1.00  0.00    -0.262 N 
HETATM    3  O   UNL     1      39.462 -14.578   2.884  1.00  0.00    -0.264 OA
HETATM    4  H   UNL     1      41.542 -15.414   5.156  1.00  0.00     0.190 HD
ENDROOT
BRANCH   1   5
HETATM    5  C   UNL     1      39.990 -13.385   4.833  1.00  0.00     0.121 A 
HETATM    6  N   UNL     1      39.069 -12.393   4.649  1.00  0.00    -0.272 N 
HETATM    7  N   UNL     1      39.040 -11.480   5.631  1.00  0.00    -0.174 NA
HETATM    8  H   UNL     1      38.423 -12.297   3.871  1.00  0.00     0.189 HD
HETATM    9  C   UNL     1      39.996 -11.871   6.490  1.00  0.00     0.089 A 
HETATM   10  C   UNL     1      40.616 -13.062   6.020  1.00  0.00     0.071 A 
BRANCH   9  11
HETATM   11  C   UNL     1      40.283 -11.133   7.725  1.00  0.00    -0.005 A 
HETATM   12  C   UNL     1      39.299 -10.986   8.713  1.00  0.00     0.016 A 
HETATM   13  C   UNL     1      39.571 -10.312   9.912  1.00  0.00     0.037 A 
HETATM   14  C   UNL     1      40.835  -9.771  10.138  1.00  0.00     0.068 A 
HETATM   15  C   UNL     1      41.814  -9.894   9.151  1.00  0.00     0.037 A 
HETATM   16  C   UNL     1      41.544 -10.570   7.956  1.00  0.00     0.016 A 
BRANCH  14  17
HETATM   17  O   UNL     1      41.236  -9.101  11.260  1.00  0.00    -0.356 OA
HETATM   18  C   UNL     1      41.308  -7.684  11.168  1.00  0.00     0.210 C 
ENDBRANCH  14  17
ENDBRANCH   9  11
ENDBRANCH   1   5
BRANCH   2  19
HETATM   19  N   UNL     1      41.198 -16.588   3.503  1.00  0.00    -0.267 N 
HETATM   20  C   UNL     1      42.342 -16.778   2.752  1.00  0.00     0.236 C 
HETATM   21  O   UNL     1      43.179 -15.890   2.598  1.00  0.00    -0.272 OA
HETATM   22  H   UNL     1      40.642 -17.367   3.853  1.00  0.00     0.190 HD
BRANCH  20  23
HETATM   23  C   UNL     1      42.424 -18.145   2.110  1.00  0.00     0.109 C 
BRANCH  23  24
HETATM   24  C   UNL     1      43.876 -18.604   1.975  1.00  0.00     0.051 C 
BRANCH  24  25
HETATM   25  C   UNL     1      44.167 -19.858   2.759  1.00  0.00    -0.019 A 
HETATM   26  C   UNL     1      44.538 -19.796   4.105  1.00  0.00     0.122 A 
HETATM   27  F   UNL     1      44.629 -18.606   4.717  1.00  0.00    -0.206 F 
HETATM   28  C   UNL     1      44.819 -20.948   4.835  1.00  0.00     0.043 A 
HETATM   29  C   UNL     1      44.735 -22.193   4.216  1.00  0.00     0.003 A 
HETATM   30  C   UNL     1      44.371 -22.277   2.872  1.00  0.00     0.001 A 
HETATM   31  C   UNL     1      44.087 -21.117   2.146  1.00  0.00     0.010 A 
ENDBRANCH  24  25
ENDBRANCH  23  24
ENDBRANCH  20  23
ENDBRANCH   2  19
TORSDOF 7
ENDMDL
MODEL 9
REMARK VINA RESULT:      -7.9      8.287     12.116
REMARK  7 active torsions:
REMARK  status: ('A' for Active; 'I' for Inactive)
REMARK    1  A    between atoms: O_2  and  C_3 
REMARK    2  A    between atoms: C_6  and  C_7 
REMARK    3  A    between atoms: C_11  and  C_12 
REMARK       I    between atoms: C_12  and  N_13 
REMARK    4  A    between atoms: N_13  and  N_14 
REMARK       I    between atoms: N_14  and  C_15 
REMARK    5  A    between atoms: C_15  and  C_16 
REMARK    6  A    between atoms: C_16  and  C_17 
REMARK    7  A    between atoms: C_17  and  C_18 
ROOT
HETATM    1  C   UNL     1      41.325 -15.204  -0.334  1.00  0.00     0.288 C 
HETATM    2  N   UNL     1      41.892 -16.460  -0.289  1.00  0.00    -0.262 N 
HETATM    3  O   UNL     1      41.602 -14.334   0.491  1.00  0.00    -0.264 OA
HETATM    4  H   UNL     1      41.824 -17.108  -1.071  1.00  0.00     0.190 HD
ENDROOT
BRANCH   1   5
HETATM    5  C   UNL     1      40.404 -14.989  -1.416  1.00  0.00     0.121 A 
HETATM    6  N   UNL     1      40.399 -15.775  -2.534  1.00  0.00    -0.272 N 
HETATM    7  N   UNL     1      39.455 -15.450  -3.431  1.00  0.00    -0.174 NA
HETATM    8  H   UNL     1      41.016 -16.557  -2.733  1.00  0.00     0.189 HD
HETATM    9  C   UNL     1      38.823 -14.395  -2.895  1.00  0.00     0.089 A 
HETATM   10  C   UNL     1      39.393 -14.074  -1.630  1.00  0.00     0.071 A 
BRANCH   9  11
HETATM   11  C   UNL     1      37.699 -13.735  -3.568  1.00  0.00    -0.005 A 
HETATM   12  C   UNL     1      36.741 -14.489  -4.261  1.00  0.00     0.016 A 
HETATM   13  C   UNL     1      35.644 -13.873  -4.880  1.00  0.00     0.037 A 
HETATM   14  C   UNL     1      35.492 -12.489  -4.818  1.00  0.00     0.068 A 
HETATM   15  C   UNL     1      36.452 -11.730  -4.149  1.00  0.00     0.037 A 
HETATM   16  C   UNL     1      37.545 -12.344  -3.528  1.00  0.00     0.016 A 
BRANCH  14  17
HETATM   17  O   UNL     1      34.471 -11.766  -5.368  1.00  0.00    -0.356 OA
HETATM   18  C   UNL     1      33.151 -12.121  -4.975  1.00  0.00     0.210 C 
ENDBRANCH  14  17
ENDBRANCH   9  11
ENDBRANCH   1   5
BRANCH   2  19
HETATM   19  N   UNL     1      42.959 -16.697   0.593  1.00  0.00    -0.267 N 
HETATM   20  C   UNL     1      42.761 -17.673   1.552  1.00  0.00     0.236 C 
HETATM   21  O   UNL     1      41.665 -18.202   1.731  1.00  0.00    -0.272 OA
HETATM   22  H   UNL     1      43.888 -16.446   0.257  1.00  0.00     0.190 HD
BRANCH  20  23
HETATM   23  C   UNL     1      43.995 -17.973   2.373  1.00  0.00     0.109 C 
BRANCH  23  24
HETATM   24  C   UNL     1      43.731 -19.098   3.373  1.00  0.00     0.051 C 
BRANCH  24  25
HETATM   25  C   UNL     1      43.762 -18.627   4.804  1.00  0.00    -0.019 A 
HETATM   26  C   UNL     1      42.608 -18.149   5.431  1.00  0.00     0.122 A 
HETATM   27  F   UNL     1      41.449 -18.115   4.757  1.00  0.00    -0.206 F 
HETATM   28  C   UNL     1      42.629 -17.703   6.750  1.00  0.00     0.043 A 
HETATM   29  C   UNL     1      43.824 -17.725   7.466  1.00  0.00     0.003 A 
HETATM   30  C   UNL     1      44.988 -18.195   6.857  1.00  0.00     0.001 A 
HETATM   31  C   UNL     1      44.960 -18.644   5.535  1.00  0.00     0.010 A 
ENDBRANCH  24  25
ENDBRANCH  23  24
ENDBRANCH  20  23
ENDBRANCH   2  19
TORSDOF 7
ENDMDL
MODEL 10
REMARK VINA RESULT:      -7.8      8.694     12.133
REMARK  7 active torsions:
REMARK  status: ('A' for Active; 'I' for Inactive)
REMARK    1  A    between atoms: O_2  and  C_3 
REMARK    2  A    between atoms: C_6  and  C_7 
REMARK    3  A    between atoms: C_11  and  C_12 
REMARK       I    between atoms: C_12  and  N_13 
REMARK    4  A    between atoms: N_13  and  N_14 
REMARK       I    between atoms: N_14  and  C_15 
REMARK    5  A    between atoms: C_15  and  C_16 
REMARK    6  A    between atoms: C_16  and  C_17 
REMARK    7  A    between atoms: C_17  and  C_18 
ROOT
HETATM    1  C   UNL     1      41.598 -14.531  -0.230  1.00  0.00     0.288 C 
HETATM    2  N   UNL     1      41.506 -14.653  -1.601  1.00  0.00    -0.262 N 
HETATM    3  O   UNL     1      41.531 -13.439   0.333  1.00  0.00    -0.264 OA
HETATM    4  H   UNL     1      41.360 -15.554  -2.051  1.00  0.00     0.190 HD
ENDROOT
BRANCH   1   5
HETATM    5  C   UNL     1      41.764 -15.769   0.482  1.00  0.00     0.121 A 
HETATM    6  N   UNL     1      40.783 -16.719   0.527  1.00  0.00    -0.272 N 
HETATM    7  N   UNL     1      41.118 -17.823   1.212  1.00  0.00    -0.174 NA
HETATM    8  H   UNL     1      39.865 -16.670   0.095  1.00  0.00     0.189 HD
HETATM    9  C   UNL     1      42.362 -17.586   1.657  1.00  0.00     0.089 A 
HETATM   10  C   UNL     1      42.800 -16.303   1.221  1.00  0.00     0.071 A 
BRANCH   9  11
HETATM   11  C   UNL     1      43.105 -18.567   2.455  1.00  0.00    -0.005 A 
HETATM   12  C   UNL     1      43.571 -19.754   1.871  1.00  0.00     0.016 A 
HETATM   13  C   UNL     1      44.311 -20.684   2.614  1.00  0.00     0.037 A 
HETATM   14  C   UNL     1      44.593 -20.441   3.957  1.00  0.00     0.068 A 
HETATM   15  C   UNL     1      44.114 -19.273   4.551  1.00  0.00     0.037 A 
HETATM   16  C   UNL     1      43.379 -18.342   3.809  1.00  0.00     0.016 A 
BRANCH  14  17
HETATM   17  O   UNL     1      45.308 -21.255   4.791  1.00  0.00    -0.356 OA
HETATM   18  C   UNL     1      44.807 -22.572   4.984  1.00  0.00     0.210 C 
ENDBRANCH  14  17
ENDBRANCH   9  11
ENDBRANCH   1   5
BRANCH   2  19
HETATM   19  N   UNL     1      41.129 -13.535  -2.362  1.00  0.00    -0.267 N 
HETATM   20  C   UNL     1      42.149 -12.834  -2.977  1.00  0.00     0.236 C 
HETATM   21  O   UNL     1      43.334 -13.073  -2.752  1.00  0.00    -0.272 OA
HETATM   22  H   UNL     1      40.175 -13.535  -2.723  1.00  0.00     0.190 HD
BRANCH  20  23
HETATM   23  C   UNL     1      41.661 -11.732  -3.891  1.00  0.00     0.109 C 
BRANCH  23  24
HETATM   24  C   UNL     1      42.425 -10.432  -3.643  1.00  0.00     0.051 C 
BRANCH  24  25
HETATM   25  C   UNL     1      42.092  -9.803  -2.315  1.00  0.00    -0.019 A 
HETATM   26  C   UNL     1      43.088  -9.557  -1.365  1.00  0.00     0.122 A 
HETATM   27  F   UNL     1      44.362  -9.874  -1.637  1.00  0.00    -0.206 F 
HETATM   28  C   UNL     1      42.788  -8.985  -0.131  1.00  0.00     0.043 A 
HETATM   29  C   UNL     1      41.470  -8.653   0.174  1.00  0.00     0.003 A 
HETATM   30  C   UNL     1      40.461  -8.895  -0.759  1.00  0.00     0.001 A 
HETATM   31  C   UNL     1      40.768  -9.466  -1.997  1.00  0.00     0.010 A 
ENDBRANCH  24  25
ENDBRANCH  23  24
ENDBRANCH  20  23
ENDBRANCH   2  19
TORSDOF 7
ENDMDL
