MODEL 1
REMARK VINA RESULT:     -10.2      0.000      0.000
REMARK  8 active torsions:
REMARK  status: ('A' for Active; 'I' for Inactive)
REMARK    1  A    between atoms: C_7  and  C_8 
REMARK       I    between atoms: C_8  and  N_9 
REMARK    2  A    between atoms: N_9  and  N_10 
REMARK    3  A    between atoms: N_10  and  C_11 
REMARK    4  A    between atoms: C_11  and  N_12 
REMARK    5  A    between atoms: N_12  and  C_13 
REMARK    6  A    between atoms: N_15  and  C_16 
REMARK    7  A    between atoms: C_16  and  C_17 
REMARK    8  A    between atoms: C_29  and  C_30 
ROOT
HETATM    1  C   UNL     1      44.720 -12.453   8.836  1.00  0.00     0.290 C 
HETATM    2  N   UNL     1      43.764 -12.872   7.932  1.00  0.00    -0.262 N 
HETATM    3  O   UNL     1      45.911 -12.744   8.784  1.00  0.00    -0.264 OA
HETATM    4  H   UNL     1      42.826 -12.482   8.009  1.00  0.00     0.190 HD
ENDROOT
BRANCH   2   5
HETATM    5  N   UNL     1      44.114 -13.540   6.759  1.00  0.00    -0.273 N 
HETATM    6  H   UNL     1      45.068 -13.911   6.688  1.00  0.00     0.189 HD
BRANCH   5   7
HETATM    7  C   UNL     1      43.165 -14.022   5.899  1.00  0.00     0.192 C 
HETATM    8  S   UNL     1      42.774 -13.324   4.422  1.00  0.00    -0.039 SA
BRANCH   7   9
HETATM    9  N   UNL     1      42.483 -15.144   6.275  1.00  0.00    -0.315 N 
HETATM   10  H   UNL     1      41.744 -14.999   6.949  1.00  0.00     0.170 HD
BRANCH   9  11
HETATM   11  C   UNL     1      42.748 -16.450   5.920  1.00  0.00     0.151 A 
HETATM   12  N   UNL     1      43.975 -16.958   5.767  1.00  0.00    -0.154 NA
HETATM   13  N   UNL     1      43.762 -18.256   5.461  1.00  0.00    -0.275 N 
HETATM   14  C   UNL     1      42.437 -18.581   5.399  1.00  0.00     0.116 A 
HETATM   15  C   UNL     1      41.753 -17.425   5.688  1.00  0.00     0.071 A 
BRANCH  13  16
HETATM   16  C   UNL     1      44.888 -19.131   5.164  1.00  0.00     0.192 C 
BRANCH  16  17
HETATM   17  C   UNL     1      44.574 -20.083   4.047  1.00  0.00     0.000 A 
HETATM   18  C   UNL     1      44.756 -21.458   4.217  1.00  0.00     0.124 A 
HETATM   19  F   UNL     1      45.203 -21.928   5.391  1.00  0.00    -0.205 F 
HETATM   20  C   UNL     1      44.477 -22.359   3.193  1.00  0.00     0.043 A 
HETATM   21  C   UNL     1      44.010 -21.887   1.968  1.00  0.00     0.003 A 
HETATM   22  C   UNL     1      43.830 -20.516   1.775  1.00  0.00     0.001 A 
HETATM   23  C   UNL     1      44.115 -19.617   2.806  1.00  0.00     0.012 A 
ENDBRANCH  16  17
ENDBRANCH  13  16
ENDBRANCH   9  11
ENDBRANCH   7   9
ENDBRANCH   5   7
ENDBRANCH   2   5
BRANCH   1  24
HETATM   24  C   UNL     1      44.140 -11.608   9.892  1.00  0.00     0.150 A 
HETATM   25  N   UNL     1      42.879 -11.125   9.800  1.00  0.00    -0.165 NA
HETATM   26  N   UNL     1      42.710 -10.468  10.957  1.00  0.00    -0.240 N 
HETATM   27  C   UNL     1      43.826 -10.415  11.741  1.00  0.00     0.123 A 
HETATM   28  C   UNL     1      41.453  -9.836  11.298  1.00  0.00     0.221 C 
HETATM   29  N   UNL     1      43.846  -9.718  12.895  1.00  0.00    -0.371 N 
HETATM   30  C   UNL     1      44.766 -11.179  11.097  1.00  0.00     0.089 A 
HETATM   31  C   UNL     1      42.755  -8.846  13.318  1.00  0.00     0.081 C 
HETATM   32  H   UNL     1      44.689  -9.687  13.469  1.00  0.00     0.161 HD
HETATM   33  C   UNL     1      42.165  -9.352  14.629  1.00  0.00     0.032 C 
HETATM   34  C   UNL     1      41.716  -8.623  12.205  1.00  0.00     0.061 C 
BRANCH  28  35
HETATM   35  C   UNL     1      40.509 -10.860  11.884  1.00  0.00     0.409 C 
HETATM   36  F   UNL     1      41.150 -11.738  12.690  1.00  0.00    -0.169 F 
HETATM   37  F   UNL     1      39.495 -10.329  12.594  1.00  0.00    -0.169 F 
HETATM   38  F   UNL     1      39.949 -11.598  10.889  1.00  0.00    -0.169 F 
ENDBRANCH  28  35
ENDBRANCH   1  24
TORSDOF 8
ENDMDL
MODEL 2
REMARK VINA RESULT:      -9.7      5.994      8.983
REMARK  8 active torsions:
REMARK  status: ('A' for Active; 'I' for Inactive)
REMARK    1  A    between atoms: C_7  and  C_8 
REMARK       I    between atoms: C_8  and  N_9 
REMARK    2  A    between atoms: N_9  and  N_10 
REMARK    3  A    between atoms: N_10  and  C_11 
REMARK    4  A    between atoms: C_11  and  N_12 
REMARK    5  A    between atoms: N_12  and  C_13 
REMARK    6  A    between atoms: N_15  and  C_16 
REMARK    7  A    between atoms: C_16  and  C_17 
REMARK    8  A    between atoms: C_29  and  C_30 
ROOT
HETATM    1  C   UNL     1      43.137 -13.530   3.383  1.00  0.00     0.290 C 
HETATM    2  N   UNL     1      42.229 -13.200   4.368  1.00  0.00    -0.262 N 
HETATM    3  O   UNL     1      44.348 -13.646   3.554  1.00  0.00    -0.264 OA
HETATM    4  H   UNL     1      41.236 -13.238   4.139  1.00  0.00     0.190 HD
ENDROOT
BRANCH   2   5
HETATM    5  N   UNL     1      42.601 -13.136   5.710  1.00  0.00    -0.273 N 
HETATM    6  H   UNL     1      42.169 -12.409   6.291  1.00  0.00     0.189 HD
BRANCH   5   7
HETATM    7  C   UNL     1      43.208 -14.192   6.337  1.00  0.00     0.192 C 
HETATM    8  S   UNL     1      44.737 -14.138   7.030  1.00  0.00    -0.039 SA
BRANCH   7   9
HETATM    9  N   UNL     1      42.523 -15.372   6.391  1.00  0.00    -0.315 N 
HETATM   10  H   UNL     1      42.048 -15.560   7.264  1.00  0.00     0.170 HD
BRANCH   9  11
HETATM   11  C   UNL     1      42.485 -16.369   5.441  1.00  0.00     0.151 A 
HETATM   12  N   UNL     1      43.552 -16.814   4.769  1.00  0.00    -0.154 NA
HETATM   13  N   UNL     1      43.064 -17.801   3.986  1.00  0.00    -0.275 N 
HETATM   14  C   UNL     1      41.719 -17.983   4.129  1.00  0.00     0.116 A 
HETATM   15  C   UNL     1      41.312 -17.062   5.065  1.00  0.00     0.071 A 
BRANCH  13  16
HETATM   16  C   UNL     1      43.942 -18.496   3.054  1.00  0.00     0.192 C 
BRANCH  16  17
HETATM   17  C   UNL     1      44.235 -19.898   3.504  1.00  0.00     0.000 A 
HETATM   18  C   UNL     1      44.157 -20.961   2.602  1.00  0.00     0.124 A 
HETATM   19  F   UNL     1      43.829 -20.724   1.323  1.00  0.00    -0.205 F 
HETATM   20  C   UNL     1      44.417 -22.270   2.999  1.00  0.00     0.043 A 
HETATM   21  C   UNL     1      44.761 -22.533   4.323  1.00  0.00     0.003 A 
HETATM   22  C   UNL     1      44.835 -21.486   5.242  1.00  0.00     0.001 A 
HETATM   23  C   UNL     1      44.569 -20.174   4.838  1.00  0.00     0.012 A 
ENDBRANCH  16  17
ENDBRANCH  13  16
ENDBRANCH   9  11
ENDBRANCH   7   9
ENDBRANCH   5   7
ENDBRANCH   2   5
BRANCH   1  24
HETATM   24  C   UNL     1      42.484 -13.724   2.079  1.00  0.00     0.150 A 
HETATM   25  N   UNL     1      42.173 -12.676   1.280  1.00  0.00    -0.165 NA
HETATM   26  N   UNL     1      41.657 -13.257   0.186  1.00  0.00    -0.240 N 
HETATM   27  C   UNL     1      41.523 -14.612   0.281  1.00  0.00     0.123 A 
HETATM   28  C   UNL     1      41.240 -12.484  -0.963  1.00  0.00     0.221 C 
HETATM   29  N   UNL     1      40.941 -15.335  -0.697  1.00  0.00    -0.371 N 
HETATM   30  C   UNL     1      42.086 -14.955   1.485  1.00  0.00     0.089 A 
HETATM   31  C   UNL     1      40.272 -14.729  -1.843  1.00  0.00     0.081 C 
HETATM   32  H   UNL     1      40.847 -16.347  -0.610  1.00  0.00     0.161 HD
HETATM   33  C   UNL     1      40.975 -15.141  -3.131  1.00  0.00     0.032 C 
HETATM   34  C   UNL     1      40.093 -13.210  -1.684  1.00  0.00     0.061 C 
BRANCH  28  35
HETATM   35  C   UNL     1      42.435 -12.184  -1.837  1.00  0.00     0.409 C 
HETATM   36  F   UNL     1      43.151 -11.133  -1.375  1.00  0.00    -0.169 F 
HETATM   37  F   UNL     1      43.287 -13.219  -1.977  1.00  0.00    -0.169 F 
HETATM   38  F   UNL     1      42.023 -11.843  -3.087  1.00  0.00    -0.169 F 
ENDBRANCH  28  35
ENDBRANCH   1  24
TORSDOF 8
ENDMDL
MODEL 3
REMARK VINA RESULT:      -9.6      2.915      3.846
REMARK  8 active torsions:
REMARK  status: ('A' for Active; 'I' for Inactive)
REMARK    1  A    between atoms: C_7  and  C_8 
REMARK       I    between atoms: C_8  and  N_9 
REMARK    2  A    between atoms: N_9  and  N_10 
REMARK    3  A    between atoms: N_10  and  C_11 
REMARK    4  A    between atoms: C_11  and  N_12 
REMARK    5  A    between atoms: N_12  and  C_13 
REMARK    6  A    between atoms: N_15  and  C_16 
REMARK    7  A    between atoms: C_16  and  C_17 
REMARK    8  A    between atoms: C_29  and  C_30 
ROOT
HETATM    1  C   UNL     1      39.309 -10.782   8.772  1.00  0.00     0.290 C 
HETATM    2  N   UNL     1      39.594 -12.110   8.525  1.00  0.00    -0.262 N 
HETATM    3  O   UNL     1      38.741 -10.028   7.988  1.00  0.00    -0.264 OA
HETATM    4  H   UNL     1      39.971 -12.671   9.288  1.00  0.00     0.190 HD
ENDROOT
BRANCH   2   5
HETATM    5  N   UNL     1      39.096 -12.764   7.399  1.00  0.00    -0.273 N 
HETATM    6  H   UNL     1      38.087 -12.943   7.358  1.00  0.00     0.189 HD
BRANCH   5   7
HETATM    7  C   UNL     1      39.815 -12.837   6.236  1.00  0.00     0.192 C 
HETATM    8  S   UNL     1      39.326 -12.180   4.770  1.00  0.00    -0.039 SA
BRANCH   7   9
HETATM    9  N   UNL     1      41.009 -13.499   6.272  1.00  0.00    -0.315 N 
HETATM   10  H   UNL     1      41.609 -13.273   7.054  1.00  0.00     0.170 HD
BRANCH   9  11
HETATM   11  C   UNL     1      41.527 -14.356   5.324  1.00  0.00     0.151 A 
HETATM   12  N   UNL     1      40.991 -15.537   4.999  1.00  0.00    -0.154 NA
HETATM   13  N   UNL     1      41.791 -16.006   4.018  1.00  0.00    -0.275 N 
HETATM   14  C   UNL     1      42.827 -15.168   3.724  1.00  0.00     0.116 A 
HETATM   15  C   UNL     1      42.685 -14.088   4.561  1.00  0.00     0.071 A 
BRANCH  13  16
HETATM   16  C   UNL     1      41.546 -17.322   3.442  1.00  0.00     0.192 C 
BRANCH  16  17
HETATM   17  C   UNL     1      42.658 -18.282   3.752  1.00  0.00     0.000 A 
HETATM   18  C   UNL     1      43.308 -18.968   2.723  1.00  0.00     0.124 A 
HETATM   19  F   UNL     1      42.941 -18.758   1.451  1.00  0.00    -0.205 F 
HETATM   20  C   UNL     1      44.337 -19.868   2.988  1.00  0.00     0.043 A 
HETATM   21  C   UNL     1      44.731 -20.096   4.305  1.00  0.00     0.003 A 
HETATM   22  C   UNL     1      44.088 -19.427   5.348  1.00  0.00     0.001 A 
HETATM   23  C   UNL     1      43.053 -18.528   5.076  1.00  0.00     0.012 A 
ENDBRANCH  16  17
ENDBRANCH  13  16
ENDBRANCH   9  11
ENDBRANCH   7   9
ENDBRANCH   5   7
ENDBRANCH   2   5
BRANCH   1  24
HETATM   24  C   UNL     1      39.775 -10.361  10.103  1.00  0.00     0.150 A 
HETATM   25  N   UNL     1      40.812 -10.977  10.717  1.00  0.00    -0.165 NA
HETATM   26  N   UNL     1      40.961 -10.282  11.855  1.00  0.00    -0.240 N 
HETATM   27  C   UNL     1      40.013  -9.321  12.053  1.00  0.00     0.123 A 
HETATM   28  C   UNL     1      42.018 -10.579  12.797  1.00  0.00     0.221 C 
HETATM   29  N   UNL     1      39.970  -8.593  13.188  1.00  0.00    -0.371 N 
HETATM   30  C   UNL     1      39.246  -9.318  10.915  1.00  0.00     0.089 A 
HETATM   31  C   UNL     1      40.814  -8.874  14.345  1.00  0.00     0.081 C 
HETATM   32  H   UNL     1      39.254  -7.880  13.321  1.00  0.00     0.161 HD
HETATM   33  C   UNL     1      41.721  -7.681  14.627  1.00  0.00     0.032 C 
HETATM   34  C   UNL     1      41.559 -10.214  14.218  1.00  0.00     0.061 C 
BRANCH  28  35
HETATM   35  C   UNL     1      43.297  -9.903  12.361  1.00  0.00     0.409 C 
HETATM   36  F   UNL     1      44.068 -10.716  11.603  1.00  0.00    -0.169 F 
HETATM   37  F   UNL     1      43.106  -8.766  11.663  1.00  0.00    -0.169 F 
HETATM   38  F   UNL     1      44.044  -9.576  13.448  1.00  0.00    -0.169 F 
ENDBRANCH  28  35
ENDBRANCH   1  24
TORSDOF 8
ENDMDL
MODEL 4
REMARK VINA RESULT:      -9.6      2.591      2.916
REMARK  8 active torsions:
REMARK  status: ('A' for Active; 'I' for Inactive)
REMARK    1  A    between atoms: C_7  and  C_8 
REMARK       I    between atoms: C_8  and  N_9 
REMARK    2  A    between atoms: N_9  and  N_10 
REMARK    3  A    between atoms: N_10  and  C_11 
REMARK    4  A    between atoms: C_11  and  N_12 
REMARK    5  A    between atoms: N_12  and  C_13 
REMARK    6  A    between atoms: N_15  and  C_16 
REMARK    7  A    between atoms: C_16  and  C_17 
REMARK    8  A    between atoms: C_29  and  C_30 
ROOT
HETATM    1  C   UNL     1      39.595 -11.212   7.497  1.00  0.00     0.290 C 
HETATM    2  N   UNL     1      39.871 -12.562   7.562  1.00  0.00    -0.262 N 
HETATM    3  O   UNL     1      39.080 -10.645   6.537  1.00  0.00    -0.264 OA
HETATM    4  H   UNL     1      40.199 -12.944   8.449  1.00  0.00     0.190 HD
ENDROOT
BRANCH   2   5
HETATM    5  N   UNL     1      39.422 -13.446   6.582  1.00  0.00    -0.273 N 
HETATM    6  H   UNL     1      38.409 -13.516   6.431  1.00  0.00     0.189 HD
BRANCH   5   7
HETATM    7  C   UNL     1      40.258 -13.918   5.606  1.00  0.00     0.192 C 
HETATM    8  S   UNL     1      40.174 -13.483   3.986  1.00  0.00    -0.039 SA
BRANCH   7   9
HETATM    9  N   UNL     1      41.220 -14.814   5.977  1.00  0.00    -0.315 N 
HETATM   10  H   UNL     1      41.718 -14.590   6.828  1.00  0.00     0.170 HD
BRANCH   9  11
HETATM   11  C   UNL     1      41.652 -15.923   5.282  1.00  0.00     0.151 A 
HETATM   12  N   UNL     1      42.701 -15.935   4.454  1.00  0.00    -0.154 NA
HETATM   13  N   UNL     1      42.778 -17.216   4.033  1.00  0.00    -0.275 N 
HETATM   14  C   UNL     1      41.800 -18.012   4.557  1.00  0.00     0.116 A 
HETATM   15  C   UNL     1      41.048 -17.198   5.369  1.00  0.00     0.071 A 
BRANCH  13  16
HETATM   16  C   UNL     1      43.787 -17.606   3.057  1.00  0.00     0.192 C 
BRANCH  16  17
HETATM   17  C   UNL     1      43.981 -19.094   3.020  1.00  0.00     0.000 A 
HETATM   18  C   UNL     1      44.640 -19.747   4.065  1.00  0.00     0.124 A 
HETATM   19  F   UNL     1      45.089 -19.039   5.111  1.00  0.00    -0.205 F 
HETATM   20  C   UNL     1      44.837 -21.125   4.049  1.00  0.00     0.043 A 
HETATM   21  C   UNL     1      44.373 -21.875   2.971  1.00  0.00     0.003 A 
HETATM   22  C   UNL     1      43.721 -21.241   1.913  1.00  0.00     0.001 A 
HETATM   23  C   UNL     1      43.529 -19.856   1.933  1.00  0.00     0.012 A 
ENDBRANCH  16  17
ENDBRANCH  13  16
ENDBRANCH   9  11
ENDBRANCH   7   9
ENDBRANCH   5   7
ENDBRANCH   2   5
BRANCH   1  24
HETATM   24  C   UNL     1      39.999 -10.511   8.726  1.00  0.00     0.150 A 
HETATM   25  N   UNL     1      39.442 -10.805   9.925  1.00  0.00    -0.165 NA
HETATM   26  N   UNL     1      40.102 -10.011  10.781  1.00  0.00    -0.240 N 
HETATM   27  C   UNL     1      40.977  -9.149  10.186  1.00  0.00     0.123 A 
HETATM   28  C   UNL     1      39.852 -10.051  12.205  1.00  0.00     0.221 C 
HETATM   29  N   UNL     1      41.654  -8.225  10.898  1.00  0.00    -0.371 N 
HETATM   30  C   UNL     1      40.964  -9.472   8.853  1.00  0.00     0.089 A 
HETATM   31  C   UNL     1      41.395  -7.962  12.310  1.00  0.00     0.081 C 
HETATM   32  H   UNL     1      42.302  -7.587  10.438  1.00  0.00     0.161 HD
HETATM   33  C   UNL     1      42.643  -8.266  13.131  1.00  0.00     0.032 C 
HETATM   34  C   UNL     1      40.124  -8.667  12.816  1.00  0.00     0.061 C 
BRANCH  28  35
HETATM   35  C   UNL     1      40.643 -11.175  12.831  1.00  0.00     0.409 C 
HETATM   36  F   UNL     1      41.734 -11.497  12.098  1.00  0.00    -0.169 F 
HETATM   37  F   UNL     1      41.064 -10.919  14.085  1.00  0.00    -0.169 F 
HETATM   38  F   UNL     1      39.882 -12.300  12.895  1.00  0.00    -0.169 F 
ENDBRANCH  28  35
ENDBRANCH   1  24
TORSDOF 8
ENDMDL
MODEL 5
REMARK VINA RESULT:      -9.3      6.459     10.048
REMARK  8 active torsions:
REMARK  status: ('A' for Active; 'I' for Inactive)
REMARK    1  A    between atoms: C_7  and  C_8 
REMARK       I    between atoms: C_8  and  N_9 
REMARK    2  A    between atoms: N_9  and  N_10 
REMARK    3  A    between atoms: N_10  and  C_11 
REMARK    4  A    between atoms: C_11  and  N_12 
REMARK    5  A    between atoms: N_12  and  C_13 
REMARK    6  A    between atoms: N_15  and  C_16 
REMARK    7  A    between atoms: C_16  and  C_17 
REMARK    8  A    between atoms: C_29  and  C_30 
ROOT
HETATM    1  C   UNL     1      39.120 -12.635   2.363  1.00  0.00     0.290 C 
HETATM    2  N   UNL     1      40.110 -13.327   3.032  1.00  0.00    -0.262 N 
HETATM    3  O   UNL     1      38.403 -11.774   2.865  1.00  0.00    -0.264 OA
HETATM    4  H   UNL     1      40.717 -13.941   2.490  1.00  0.00     0.190 HD
ENDROOT
BRANCH   2   5
HETATM    5  N   UNL     1      40.499 -12.975   4.323  1.00  0.00    -0.273 N 
HETATM    6  H   UNL     1      41.019 -12.098   4.443  1.00  0.00     0.189 HD
BRANCH   5   7
HETATM    7  C   UNL     1      39.915 -13.538   5.426  1.00  0.00     0.192 C 
HETATM    8  S   UNL     1      39.363 -12.675   6.758  1.00  0.00    -0.039 SA
BRANCH   7   9
HETATM    9  N   UNL     1      39.781 -14.896   5.446  1.00  0.00    -0.315 N 
HETATM   10  H   UNL     1      38.886 -15.241   5.763  1.00  0.00     0.170 HD
BRANCH   9  11
HETATM   11  C   UNL     1      40.749 -15.842   5.180  1.00  0.00     0.151 A 
HETATM   12  N   UNL     1      41.713 -15.701   4.265  1.00  0.00    -0.154 NA
HETATM   13  N   UNL     1      42.442 -16.833   4.373  1.00  0.00    -0.275 N 
HETATM   14  C   UNL     1      41.960 -17.693   5.317  1.00  0.00     0.116 A 
HETATM   15  C   UNL     1      40.855 -17.079   5.856  1.00  0.00     0.071 A 
BRANCH  13  16
HETATM   16  C   UNL     1      43.568 -17.066   3.478  1.00  0.00     0.192 C 
BRANCH  16  17
HETATM   17  C   UNL     1      43.800 -18.530   3.243  1.00  0.00     0.000 A 
HETATM   18  C   UNL     1      44.594 -19.270   4.123  1.00  0.00     0.124 A 
HETATM   19  F   UNL     1      45.141 -18.668   5.189  1.00  0.00    -0.205 F 
HETATM   20  C   UNL     1      44.828 -20.628   3.922  1.00  0.00     0.043 A 
HETATM   21  C   UNL     1      44.264 -21.268   2.821  1.00  0.00     0.003 A 
HETATM   22  C   UNL     1      43.475 -20.545   1.925  1.00  0.00     0.001 A 
HETATM   23  C   UNL     1      43.247 -19.181   2.130  1.00  0.00     0.012 A 
ENDBRANCH  16  17
ENDBRANCH  13  16
ENDBRANCH   9  11
ENDBRANCH   7   9
ENDBRANCH   5   7
ENDBRANCH   2   5
BRANCH   1  24
HETATM   24  C   UNL     1      39.013 -13.055   0.957  1.00  0.00     0.150 A 
HETATM   25  N   UNL     1      39.877 -12.606   0.016  1.00  0.00    -0.165 NA
HETATM   26  N   UNL     1      39.490 -13.249  -1.097  1.00  0.00    -0.240 N 
HETATM   27  C   UNL     1      38.364 -14.005  -0.946  1.00  0.00     0.123 A 
HETATM   28  C   UNL     1      40.198 -13.097  -2.350  1.00  0.00     0.221 C 
HETATM   29  N   UNL     1      37.796 -14.644  -1.989  1.00  0.00    -0.371 N 
HETATM   30  C   UNL     1      38.047 -13.933   0.387  1.00  0.00     0.089 A 
HETATM   31  C   UNL     1      38.231 -14.456  -3.369  1.00  0.00     0.081 C 
HETATM   32  H   UNL     1      36.954 -15.203  -1.859  1.00  0.00     0.161 HD
HETATM   33  C   UNL     1      38.738 -15.777  -3.937  1.00  0.00     0.032 C 
HETATM   34  C   UNL     1      39.220 -13.287  -3.520  1.00  0.00     0.061 C 
BRANCH  28  35
HETATM   35  C   UNL     1      41.392 -14.022  -2.378  1.00  0.00     0.409 C 
HETATM   36  F   UNL     1      42.482 -13.460  -1.807  1.00  0.00    -0.169 F 
HETATM   37  F   UNL     1      41.184 -15.205  -1.768  1.00  0.00    -0.169 F 
HETATM   38  F   UNL     1      41.735 -14.298  -3.664  1.00  0.00    -0.169 F 
ENDBRANCH  28  35
ENDBRANCH   1  24
TORSDOF 8
ENDMDL
MODEL 6
REMARK VINA RESULT:      -9.3      6.168      9.746
REMARK  8 active torsions:
REMARK  status: ('A' for Active; 'I' for Inactive)
REMARK    1  A    between atoms: C_7  and  C_8 
REMARK       I    between atoms: C_8  and  N_9 
REMARK    2  A    between atoms: N_9  and  N_10 
REMARK    3  A    between atoms: N_10  and  C_11 
REMARK    4  A    between atoms: C_11  and  N_12 
REMARK    5  A    between atoms: N_12  and  C_13 
REMARK    6  A    between atoms: N_15  and  C_16 
REMARK    7  A    between atoms: C_16  and  C_17 
REMARK    8  A    between atoms: C_29  and  C_30 
ROOT
HETATM    1  C   UNL     1      41.569 -15.045   2.368  1.00  0.00     0.290 C 
HETATM    2  N   UNL     1      42.278 -13.962   2.849  1.00  0.00    -0.262 N 
HETATM    3  O   UNL     1      41.575 -16.166   2.868  1.00  0.00    -0.264 OA
HETATM    4  H   UNL     1      42.115 -13.052   2.419  1.00  0.00     0.190 HD
ENDROOT
BRANCH   2   5
HETATM    5  N   UNL     1      42.941 -14.012   4.073  1.00  0.00    -0.273 N 
HETATM    6  H   UNL     1      43.967 -14.029   4.060  1.00  0.00     0.189 HD
BRANCH   5   7
HETATM    7  C   UNL     1      42.313 -13.675   5.243  1.00  0.00     0.192 C 
HETATM    8  S   UNL     1      41.700 -12.151   5.591  1.00  0.00    -0.039 SA
BRANCH   7   9
HETATM    9  N   UNL     1      42.188 -14.647   6.194  1.00  0.00    -0.315 N 
HETATM   10  H   UNL     1      41.855 -14.333   7.095  1.00  0.00     0.170 HD
BRANCH   9  11
HETATM   11  C   UNL     1      42.553 -15.973   6.098  1.00  0.00     0.151 A 
HETATM   12  N   UNL     1      43.741 -16.400   5.659  1.00  0.00    -0.154 NA
HETATM   13  N   UNL     1      43.673 -17.744   5.770  1.00  0.00    -0.275 N 
HETATM   14  C   UNL     1      42.473 -18.183   6.250  1.00  0.00     0.116 A 
HETATM   15  C   UNL     1      41.721 -17.053   6.467  1.00  0.00     0.071 A 
BRANCH  13  16
HETATM   16  C   UNL     1      44.787 -18.572   5.325  1.00  0.00     0.192 C 
BRANCH  16  17
HETATM   17  C   UNL     1      44.425 -19.391   4.120  1.00  0.00     0.000 A 
HETATM   18  C   UNL     1      44.724 -20.755   4.077  1.00  0.00     0.124 A 
HETATM   19  F   UNL     1      45.327 -21.336   5.125  1.00  0.00    -0.205 F 
HETATM   20  C   UNL     1      44.404 -21.533   2.968  1.00  0.00     0.043 A 
HETATM   21  C   UNL     1      43.775 -20.945   1.872  1.00  0.00     0.003 A 
HETATM   22  C   UNL     1      43.477 -19.582   1.892  1.00  0.00     0.001 A 
HETATM   23  C   UNL     1      43.804 -18.806   3.007  1.00  0.00     0.012 A 
ENDBRANCH  16  17
ENDBRANCH  13  16
ENDBRANCH   9  11
ENDBRANCH   7   9
ENDBRANCH   5   7
ENDBRANCH   2   5
BRANCH   1  24
HETATM   24  C   UNL     1      40.799 -14.702   1.162  1.00  0.00     0.150 A 
HETATM   25  N   UNL     1      41.411 -14.381  -0.002  1.00  0.00    -0.165 NA
HETATM   26  N   UNL     1      40.390 -14.196  -0.853  1.00  0.00    -0.240 N 
HETATM   27  C   UNL     1      39.156 -14.278  -0.275  1.00  0.00     0.123 A 
HETATM   28  C   UNL     1      40.608 -13.887  -2.249  1.00  0.00     0.221 C 
HETATM   29  N   UNL     1      38.030 -14.031  -0.975  1.00  0.00    -0.371 N 
HETATM   30  C   UNL     1      39.382 -14.644   1.028  1.00  0.00     0.089 A 
HETATM   31  C   UNL     1      38.039 -13.506  -2.336  1.00  0.00     0.081 C 
HETATM   32  H   UNL     1      37.116 -14.095  -0.528  1.00  0.00     0.161 HD
HETATM   33  C   UNL     1      37.386 -14.508  -3.282  1.00  0.00     0.032 C 
HETATM   34  C   UNL     1      39.438 -13.044  -2.780  1.00  0.00     0.061 C 
BRANCH  28  35
HETATM   35  C   UNL     1      40.858 -15.162  -3.021  1.00  0.00     0.409 C 
HETATM   36  F   UNL     1      42.164 -15.312  -3.342  1.00  0.00    -0.169 F 
HETATM   37  F   UNL     1      40.473 -16.280  -2.375  1.00  0.00    -0.169 F 
HETATM   38  F   UNL     1      40.178 -15.134  -4.197  1.00  0.00    -0.169 F 
ENDBRANCH  28  35
ENDBRANCH   1  24
TORSDOF 8
ENDMDL
MODEL 7
REMARK VINA RESULT:      -9.1      5.490      6.987
REMARK  8 active torsions:
REMARK  status: ('A' for Active; 'I' for Inactive)
REMARK    1  A    between atoms: C_7  and  C_8 
REMARK       I    between atoms: C_8  and  N_9 
REMARK    2  A    between atoms: N_9  and  N_10 
REMARK    3  A    between atoms: N_10  and  C_11 
REMARK    4  A    between atoms: C_11  and  N_12 
REMARK    5  A    between atoms: N_12  and  C_13 
REMARK    6  A    between atoms: N_15  and  C_16 
REMARK    7  A    between atoms: C_16  and  C_17 
REMARK    8  A    between atoms: C_29  and  C_30 
ROOT
HETATM    1  C   UNL     1      41.450 -12.207   5.312  1.00  0.00     0.290 C 
HETATM    2  N   UNL     1      41.921 -11.822   4.072  1.00  0.00    -0.262 N 
HETATM    3  O   UNL     1      40.628 -11.581   5.975  1.00  0.00    -0.264 OA
HETATM    4  H   UNL     1      42.520 -12.472   3.563  1.00  0.00     0.190 HD
ENDROOT
BRANCH   2   5
HETATM    5  N   UNL     1      41.360 -10.751   3.380  1.00  0.00    -0.273 N 
HETATM    6  H   UNL     1      41.712  -9.810   3.589  1.00  0.00     0.189 HD
BRANCH   5   7
HETATM    7  C   UNL     1      40.656 -10.937   2.220  1.00  0.00     0.192 C 
HETATM    8  S   UNL     1      40.817  -9.986   0.844  1.00  0.00    -0.039 SA
BRANCH   7   9
HETATM    9  N   UNL     1      39.755 -11.963   2.186  1.00  0.00    -0.315 N 
HETATM   10  H   UNL     1      38.805 -11.715   2.425  1.00  0.00     0.170 HD
BRANCH   9  11
HETATM   11  C   UNL     1      40.008 -13.299   1.961  1.00  0.00     0.151 A 
HETATM   12  N   UNL     1      40.724 -13.772   0.936  1.00  0.00    -0.154 NA
HETATM   13  N   UNL     1      40.744 -15.108   1.133  1.00  0.00    -0.275 N 
HETATM   14  C   UNL     1      40.048 -15.498   2.241  1.00  0.00     0.116 A 
HETATM   15  C   UNL     1      39.553 -14.343   2.798  1.00  0.00     0.071 A 
BRANCH  13  16
HETATM   16  C   UNL     1      41.399 -15.979   0.166  1.00  0.00     0.192 C 
BRANCH  16  17
HETATM   17  C   UNL     1      42.249 -17.018   0.839  1.00  0.00     0.000 A 
HETATM   18  C   UNL     1      41.701 -18.247   1.212  1.00  0.00     0.124 A 
HETATM   19  F   UNL     1      40.409 -18.503   0.955  1.00  0.00    -0.205 F 
HETATM   20  C   UNL     1      42.468 -19.223   1.842  1.00  0.00     0.043 A 
HETATM   21  C   UNL     1      43.812 -18.973   2.113  1.00  0.00     0.003 A 
HETATM   22  C   UNL     1      44.377 -17.748   1.757  1.00  0.00     0.001 A 
HETATM   23  C   UNL     1      43.600 -16.771   1.127  1.00  0.00     0.012 A 
ENDBRANCH  16  17
ENDBRANCH  13  16
ENDBRANCH   9  11
ENDBRANCH   7   9
ENDBRANCH   5   7
ENDBRANCH   2   5
BRANCH   1  24
HETATM   24  C   UNL     1      42.059 -13.468   5.761  1.00  0.00     0.150 A 
HETATM   25  N   UNL     1      41.324 -14.594   5.914  1.00  0.00    -0.165 NA
HETATM   26  N   UNL     1      42.231 -15.516   6.272  1.00  0.00    -0.240 N 
HETATM   27  C   UNL     1      43.489 -15.021   6.458  1.00  0.00     0.123 A 
HETATM   28  C   UNL     1      41.869 -16.900   6.484  1.00  0.00     0.221 C 
HETATM   29  N   UNL     1      44.496 -15.800   6.904  1.00  0.00    -0.371 N 
HETATM   30  C   UNL     1      43.424 -13.699   6.098  1.00  0.00     0.089 A 
HETATM   31  C   UNL     1      44.297 -17.168   7.370  1.00  0.00     0.081 C 
HETATM   32  H   UNL     1      45.430 -15.415   7.039  1.00  0.00     0.161 HD
HETATM   33  C   UNL     1      45.079 -18.135   6.489  1.00  0.00     0.032 C 
HETATM   34  C   UNL     1      42.809 -17.525   7.527  1.00  0.00     0.061 C 
BRANCH  28  35
HETATM   35  C   UNL     1      41.835 -17.627   5.160  1.00  0.00     0.409 C 
HETATM   36  F   UNL     1      40.573 -17.767   4.690  1.00  0.00    -0.169 F 
HETATM   37  F   UNL     1      42.561 -17.037   4.190  1.00  0.00    -0.169 F 
HETATM   38  F   UNL     1      42.327 -18.886   5.308  1.00  0.00    -0.169 F 
ENDBRANCH  28  35
ENDBRANCH   1  24
TORSDOF 8
ENDMDL
MODEL 8
REMARK VINA RESULT:      -8.9      6.412      9.849
REMARK  8 active torsions:
REMARK  status: ('A' for Active; 'I' for Inactive)
REMARK    1  A    between atoms: C_7  and  C_8 
REMARK       I    between atoms: C_8  and  N_9 
REMARK    2  A    between atoms: N_9  and  N_10 
REMARK    3  A    between atoms: N_10  and  C_11 
REMARK    4  A    between atoms: C_11  and  N_12 
REMARK    5  A    between atoms: N_12  and  C_13 
REMARK    6  A    between atoms: N_15  and  C_16 
REMARK    7  A    between atoms: C_16  and  C_17 
REMARK    8  A    between atoms: C_29  and  C_30 
ROOT
HETATM    1  C   UNL     1      42.245 -12.803   2.406  1.00  0.00     0.290 C 
HETATM    2  N   UNL     1      41.600 -11.792   3.090  1.00  0.00    -0.262 N 
HETATM    3  O   UNL     1      43.241 -13.398   2.809  1.00  0.00    -0.264 OA
HETATM    4  H   UNL     1      40.719 -11.443   2.712  1.00  0.00     0.190 HD
ENDROOT
BRANCH   2   5
HETATM    5  N   UNL     1      41.935 -11.472   4.404  1.00  0.00    -0.273 N 
HETATM    6  H   UNL     1      42.455 -10.602   4.566  1.00  0.00     0.189 HD
BRANCH   5   7
HETATM    7  C   UNL     1      41.301 -12.055   5.468  1.00  0.00     0.192 C 
HETATM    8  S   UNL     1      39.655 -11.931   5.782  1.00  0.00    -0.039 SA
BRANCH   7   9
HETATM    9  N   UNL     1      42.064 -12.780   6.338  1.00  0.00    -0.315 N 
HETATM   10  H   UNL     1      42.409 -12.272   7.141  1.00  0.00     0.170 HD
BRANCH   9  11
HETATM   11  C   UNL     1      42.494 -14.082   6.199  1.00  0.00     0.151 A 
HETATM   12  N   UNL     1      41.707 -15.105   5.852  1.00  0.00    -0.154 NA
HETATM   13  N   UNL     1      42.542 -16.165   5.801  1.00  0.00    -0.275 N 
HETATM   14  C   UNL     1      43.831 -15.848   6.122  1.00  0.00     0.116 A 
HETATM   15  C   UNL     1      43.829 -14.501   6.391  1.00  0.00     0.071 A 
BRANCH  13  16
HETATM   16  C   UNL     1      42.021 -17.493   5.503  1.00  0.00     0.192 C 
BRANCH  16  17
HETATM   17  C   UNL     1      42.564 -18.027   4.209  1.00  0.00     0.000 A 
HETATM   18  C   UNL     1      41.999 -17.639   2.992  1.00  0.00     0.124 A 
HETATM   19  F   UNL     1      40.973 -16.776   2.981  1.00  0.00    -0.205 F 
HETATM   20  C   UNL     1      42.482 -18.126   1.780  1.00  0.00     0.043 A 
HETATM   21  C   UNL     1      43.549 -19.021   1.774  1.00  0.00     0.003 A 
HETATM   22  C   UNL     1      44.122 -19.428   2.980  1.00  0.00     0.001 A 
HETATM   23  C   UNL     1      43.630 -18.939   4.193  1.00  0.00     0.012 A 
ENDBRANCH  16  17
ENDBRANCH  13  16
ENDBRANCH   9  11
ENDBRANCH   7   9
ENDBRANCH   5   7
ENDBRANCH   2   5
BRANCH   1  24
HETATM   24  C   UNL     1      41.600 -13.089   1.115  1.00  0.00     0.150 A 
HETATM   25  N   UNL     1      41.599 -12.184   0.108  1.00  0.00    -0.165 NA
HETATM   26  N   UNL     1      40.978 -12.828  -0.892  1.00  0.00    -0.240 N 
HETATM   27  C   UNL     1      40.490 -14.056  -0.551  1.00  0.00     0.123 A 
HETATM   28  C   UNL     1      40.812 -12.227  -2.198  1.00  0.00     0.221 C 
HETATM   29  N   UNL     1      39.765 -14.793  -1.417  1.00  0.00    -0.371 N 
HETATM   30  C   UNL     1      40.909 -14.275   0.737  1.00  0.00     0.089 A 
HETATM   31  C   UNL     1      39.311 -14.286  -2.707  1.00  0.00     0.081 C 
HETATM   32  H   UNL     1      39.405 -15.708  -1.146  1.00  0.00     0.161 HD
HETATM   33  C   UNL     1      39.916 -15.118  -3.833  1.00  0.00     0.032 C 
HETATM   34  C   UNL     1      39.535 -12.771  -2.856  1.00  0.00     0.061 C 
BRANCH  28  35
HETATM   35  C   UNL     1      42.068 -12.425  -3.014  1.00  0.00     0.409 C 
HETATM   36  F   UNL     1      42.684 -13.594  -2.722  1.00  0.00    -0.169 F 
HETATM   37  F   UNL     1      41.867 -12.399  -4.346  1.00  0.00    -0.169 F 
HETATM   38  F   UNL     1      42.964 -11.443  -2.733  1.00  0.00    -0.169 F 
ENDBRANCH  28  35
ENDBRANCH   1  24
TORSDOF 8
ENDMDL
MODEL 9
REMARK VINA RESULT:      -8.8      6.086      9.500
REMARK  8 active torsions:
REMARK  status: ('A' for Active; 'I' for Inactive)
REMARK    1  A    between atoms: C_7  and  C_8 
REMARK       I    between atoms: C_8  and  N_9 
REMARK    2  A    between atoms: N_9  and  N_10 
REMARK    3  A    between atoms: N_10  and  C_11 
REMARK    4  A    between atoms: C_11  and  N_12 
REMARK    5  A    between atoms: N_12  and  C_13 
REMARK    6  A    between atoms: N_15  and  C_16 
REMARK    7  A    between atoms: C_16  and  C_17 
REMARK    8  A    between atoms: C_29  and  C_30 
ROOT
HETATM    1  C   UNL     1      39.357 -12.721   3.200  1.00  0.00     0.290 C 
HETATM    2  N   UNL     1      40.127 -13.609   3.923  1.00  0.00    -0.262 N 
HETATM    3  O   UNL     1      38.698 -11.805   3.685  1.00  0.00    -0.264 OA
HETATM    4  H   UNL     1      40.718 -14.262   3.410  1.00  0.00     0.190 HD
ENDROOT
BRANCH   2   5
HETATM    5  N   UNL     1      40.359 -13.430   5.286  1.00  0.00    -0.273 N 
HETATM    6  H   UNL     1      39.907 -14.082   5.937  1.00  0.00     0.189 HD
BRANCH   5   7
HETATM    7  C   UNL     1      41.414 -12.686   5.741  1.00  0.00     0.192 C 
HETATM    8  S   UNL     1      41.284 -11.139   6.383  1.00  0.00    -0.039 SA
BRANCH   7   9
HETATM    9  N   UNL     1      42.660 -13.240   5.657  1.00  0.00    -0.315 N 
HETATM   10  H   UNL     1      43.376 -12.643   5.266  1.00  0.00     0.170 HD
BRANCH   9  11
HETATM   11  C   UNL     1      43.027 -14.536   5.949  1.00  0.00     0.151 A 
HETATM   12  N   UNL     1      42.315 -15.617   5.616  1.00  0.00    -0.154 NA
HETATM   13  N   UNL     1      43.058 -16.654   6.060  1.00  0.00    -0.275 N 
HETATM   14  C   UNL     1      44.210 -16.263   6.679  1.00  0.00     0.116 A 
HETATM   15  C   UNL     1      44.215 -14.889   6.628  1.00  0.00     0.071 A 
BRANCH  13  16
HETATM   16  C   UNL     1      42.566 -18.019   5.920  1.00  0.00     0.192 C 
BRANCH  16  17
HETATM   17  C   UNL     1      43.237 -18.740   4.787  1.00  0.00     0.000 A 
HETATM   18  C   UNL     1      42.792 -18.564   3.475  1.00  0.00     0.124 A 
HETATM   19  F   UNL     1      41.767 -17.735   3.227  1.00  0.00    -0.205 F 
HETATM   20  C   UNL     1      43.395 -19.227   2.409  1.00  0.00     0.043 A 
HETATM   21  C   UNL     1      44.463 -20.088   2.650  1.00  0.00     0.003 A 
HETATM   22  C   UNL     1      44.916 -20.285   3.955  1.00  0.00     0.001 A 
HETATM   23  C   UNL     1      44.304 -19.619   5.021  1.00  0.00     0.012 A 
ENDBRANCH  16  17
ENDBRANCH  13  16
ENDBRANCH   9  11
ENDBRANCH   7   9
ENDBRANCH   5   7
ENDBRANCH   2   5
BRANCH   1  24
HETATM   24  C   UNL     1      39.408 -13.001   1.756  1.00  0.00     0.150 A 
HETATM   25  N   UNL     1      40.129 -12.228   0.910  1.00  0.00    -0.165 NA
HETATM   26  N   UNL     1      39.970 -12.831  -0.278  1.00  0.00    -0.240 N 
HETATM   27  C   UNL     1      39.105 -13.886  -0.260  1.00  0.00     0.123 A 
HETATM   28  C   UNL     1      40.633 -12.351  -1.471  1.00  0.00     0.221 C 
HETATM   29  N   UNL     1      38.769 -14.544  -1.389  1.00  0.00    -0.371 N 
HETATM   30  C   UNL     1      38.749 -14.050   1.054  1.00  0.00     0.089 A 
HETATM   31  C   UNL     1      39.164 -14.094  -2.719  1.00  0.00     0.081 C 
HETATM   32  H   UNL     1      38.120 -15.329  -1.359  1.00  0.00     0.161 HD
HETATM   33  C   UNL     1      40.042 -15.148  -3.384  1.00  0.00     0.032 C 
HETATM   34  C   UNL     1      39.779 -12.683  -2.705  1.00  0.00     0.061 C 
BRANCH  28  35
HETATM   35  C   UNL     1      42.043 -12.892  -1.524  1.00  0.00     0.409 C 
HETATM   36  F   UNL     1      42.925 -12.071  -0.908  1.00  0.00    -0.169 F 
HETATM   37  F   UNL     1      42.183 -14.115  -0.976  1.00  0.00    -0.169 F 
HETATM   38  F   UNL     1      42.455 -12.991  -2.815  1.00  0.00    -0.169 F 
ENDBRANCH  28  35
ENDBRANCH   1  24
TORSDOF 8
ENDMDL
MODEL 10
REMARK VINA RESULT:      -8.7      2.696      3.524
REMARK  8 active torsions:
REMARK  status: ('A' for Active; 'I' for Inactive)
REMARK    1  A    between atoms: C_7  and  C_8 
REMARK       I    between atoms: C_8  and  N_9 
REMARK    2  A    between atoms: N_9  and  N_10 
REMARK    3  A    between atoms: N_10  and  C_11 
REMARK    4  A    between atoms: C_11  and  N_12 
REMARK    5  A    between atoms: N_12  and  C_13 
REMARK    6  A    between atoms: N_15  and  C_16 
REMARK    7  A    between atoms: C_16  and  C_17 
REMARK    8  A    between atoms: C_29  and  C_30 
ROOT
HETATM    1  C   UNL     1      40.247 -10.452   7.208  1.00  0.00     0.290 C 
HETATM    2  N   UNL     1      41.387 -10.631   6.451  1.00  0.00    -0.262 N 
HETATM    3  O   UNL     1      39.129 -10.226   6.752  1.00  0.00    -0.264 OA
HETATM    4  H   UNL     1      42.240 -10.921   6.929  1.00  0.00     0.190 HD
ENDROOT
BRANCH   2   5
HETATM    5  N   UNL     1      41.330 -10.741   5.063  1.00  0.00    -0.273 N 
HETATM    6  H   UNL     1      41.700  -9.963   4.507  1.00  0.00     0.189 HD
BRANCH   5   7
HETATM    7  C   UNL     1      41.152 -11.951   4.447  1.00  0.00     0.192 C 
HETATM    8  S   UNL     1      39.681 -12.519   3.867  1.00  0.00    -0.039 SA
BRANCH   7   9
HETATM    9  N   UNL     1      42.247 -12.754   4.304  1.00  0.00    -0.315 N 
HETATM   10  H   UNL     1      42.917 -12.457   3.608  1.00  0.00     0.170 HD
BRANCH   9  11
HETATM   11  C   UNL     1      42.493 -13.962   4.923  1.00  0.00     0.151 A 
HETATM   12  N   UNL     1      41.820 -15.090   4.673  1.00  0.00    -0.154 NA
HETATM   13  N   UNL     1      42.413 -16.012   5.463  1.00  0.00    -0.275 N 
HETATM   14  C   UNL     1      43.429 -15.499   6.217  1.00  0.00     0.116 A 
HETATM   15  C   UNL     1      43.501 -14.165   5.891  1.00  0.00     0.071 A 
BRANCH  13  16
HETATM   16  C   UNL     1      41.903 -17.376   5.502  1.00  0.00     0.192 C 
BRANCH  16  17
HETATM   17  C   UNL     1      42.841 -18.340   4.835  1.00  0.00     0.000 A 
HETATM   18  C   UNL     1      43.657 -19.178   5.600  1.00  0.00     0.124 A 
HETATM   19  F   UNL     1      43.591 -19.126   6.939  1.00  0.00    -0.205 F 
HETATM   20  C   UNL     1      44.538 -20.075   5.003  1.00  0.00     0.043 A 
HETATM   21  C   UNL     1      44.617 -20.142   3.614  1.00  0.00     0.003 A 
HETATM   22  C   UNL     1      43.817 -19.308   2.832  1.00  0.00     0.001 A 
HETATM   23  C   UNL     1      42.937 -18.407   3.437  1.00  0.00     0.012 A 
ENDBRANCH  16  17
ENDBRANCH  13  16
ENDBRANCH   9  11
ENDBRANCH   7   9
ENDBRANCH   5   7
ENDBRANCH   2   5
BRANCH   1  24
HETATM   24  C   UNL     1      40.524 -10.556   8.649  1.00  0.00     0.150 A 
HETATM   25  N   UNL     1      41.737 -10.943   9.110  1.00  0.00    -0.165 NA
HETATM   26  N   UNL     1      41.607 -10.858  10.443  1.00  0.00    -0.240 N 
HETATM   27  C   UNL     1      40.350 -10.538  10.865  1.00  0.00     0.123 A 
HETATM   28  C   UNL     1      42.712 -11.134  11.335  1.00  0.00     0.221 C 
HETATM   29  N   UNL     1      40.033 -10.498  12.176  1.00  0.00    -0.371 N 
HETATM   30  C   UNL     1      39.627 -10.297   9.724  1.00  0.00     0.089 A 
HETATM   31  C   UNL     1      40.941 -10.941  13.228  1.00  0.00     0.081 C 
HETATM   32  H   UNL     1      39.088 -10.259  12.475  1.00  0.00     0.161 HD
HETATM   33  C   UNL     1      41.276  -9.774  14.150  1.00  0.00     0.032 C 
HETATM   34  C   UNL     1      42.174 -11.674  12.670  1.00  0.00     0.061 C 
BRANCH  28  35
HETATM   35  C   UNL     1      43.584  -9.907  11.465  1.00  0.00     0.409 C 
HETATM   36  F   UNL     1      44.162  -9.822  12.685  1.00  0.00    -0.169 F 
HETATM   37  F   UNL     1      44.569  -9.834  10.548  1.00  0.00    -0.169 F 
HETATM   38  F   UNL     1      42.831  -8.785  11.322  1.00  0.00    -0.169 F 
ENDBRANCH  28  35
ENDBRANCH   1  24
TORSDOF 8
ENDMDL
