MODEL 1
REMARK VINA RESULT:      -7.9      0.000      0.000
REMARK  7 active torsions:
REMARK  status: ('A' for Active; 'I' for Inactive)
REMARK       I    between atoms: C_2  and  N_3 
REMARK    1  A    between atoms: N_3  and  C_4 
REMARK    2  A    between atoms: N_9  and  C_10 
REMARK    3  A    between atoms: C_10  and  C_11 
REMARK    4  A    between atoms: C_11  and  C_12 
REMARK    5  A    between atoms: C_12  and  O_13 
REMARK    6  A    between atoms: O_13  and  C_14 
REMARK    7  A    between atoms: C_17  and  C_18 
REMARK       I    between atoms: N_30  and  C_31 
ROOT
HETATM    1  C   UNL     1      40.325 -11.820  -0.981  1.00  0.00     0.191 C 
HETATM    2  S   UNL     1      41.919 -12.336  -0.527  1.00  0.00    -0.042 SA
HETATM    3  C   UNL     1      41.132 -13.326   0.806  1.00  0.00     0.224 A 
HETATM    4  C   UNL     1      41.232 -12.502   2.120  1.00  0.00     0.271 A 
HETATM    5  O   UNL     1      40.691 -11.422   2.322  1.00  0.00    -0.269 OA
HETATM    6  N   UNL     1      42.072 -13.219   2.992  1.00  0.00    -0.314 N 
HETATM    7  C   UNL     1      42.435 -14.454   2.415  1.00  0.00     0.047 A 
HETATM    8  C   UNL     1      41.898 -14.571   1.126  1.00  0.00     0.019 A 
HETATM    9  C   UNL     1      43.192 -15.470   2.971  1.00  0.00     0.030 A 
HETATM   10  C   UNL     1      43.409 -16.621   2.208  1.00  0.00     0.002 A 
HETATM   11  C   UNL     1      42.873 -16.740   0.917  1.00  0.00     0.001 A 
HETATM   12  C   UNL     1      42.109 -15.711   0.363  1.00  0.00     0.013 A 
HETATM   13  N   UNL     1      39.735 -13.430   0.391  1.00  0.00    -0.201 N 
HETATM   14  C   UNL     1      38.809 -14.167   1.111  1.00  0.00     0.238 C 
HETATM   15  C   UNL     1      37.383 -14.066   0.629  1.00  0.00     0.119 C 
HETATM   16  O   UNL     1      39.101 -14.858   2.085  1.00  0.00    -0.272 OA
HETATM   17  N   UNL     1      39.310 -12.468  -0.518  1.00  0.00    -0.141 NA
ENDROOT
BRANCH   6  18
HETATM   18  C   UNL     1      42.396 -12.870   4.371  1.00  0.00     0.134 C 
BRANCH  18  19
HETATM   19  C   UNL     1      41.204 -12.776   5.317  1.00  0.00     0.047 C 
BRANCH  19  20
HETATM   20  C   UNL     1      40.247 -13.955   5.188  1.00  0.00     0.177 C 
BRANCH  20  21
HETATM   21  O   UNL     1      40.525 -14.819   6.290  1.00  0.00    -0.351 OA
BRANCH  21  22
HETATM   22  C   UNL     1      41.306 -15.912   6.062  1.00  0.00     0.068 A 
HETATM   23  C   UNL     1      40.935 -17.057   5.369  1.00  0.00     0.037 A 
HETATM   24  C   UNL     1      41.848 -18.109   5.201  1.00  0.00     0.011 A 
HETATM   25  C   UNL     1      43.153 -18.040   5.718  1.00  0.00    -0.050 A 
HETATM   26  C   UNL     1      43.506 -16.869   6.413  1.00  0.00     0.011 A 
HETATM   27  C   UNL     1      42.596 -15.822   6.577  1.00  0.00     0.037 A 
BRANCH  25  28
HETATM   28  C   UNL     1      44.180 -19.174   5.552  1.00  0.00    -0.024 C 
HETATM   29  C   UNL     1      44.248 -19.747   4.118  1.00  0.00     0.019 C 
HETATM   30  C   UNL     1      45.589 -18.652   5.904  1.00  0.00     0.019 C 
HETATM   31  C   UNL     1      43.820 -20.342   6.495  1.00  0.00     0.019 C 
ENDBRANCH  25  28
ENDBRANCH  21  22
ENDBRANCH  20  21
ENDBRANCH  19  20
ENDBRANCH  18  19
ENDBRANCH   6  18
BRANCH   1  32
HETATM   32  N   UNL     1      40.303 -10.742  -1.816  1.00  0.00    -0.305 N 
HETATM   33  C   UNL     1      40.389 -10.681  -3.186  1.00  0.00     0.219 C 
HETATM   34  C   UNL     1      40.362 -11.964  -3.971  1.00  0.00     0.117 C 
HETATM   35  O   UNL     1      40.474  -9.584  -3.738  1.00  0.00    -0.274 OA
HETATM   36  H   UNL     1      40.199  -9.839  -1.377  1.00  0.00     0.171 HD
ENDBRANCH   1  32
TORSDOF 7
ENDMDL
MODEL 2
REMARK VINA RESULT:      -7.8      2.143      4.512
REMARK  7 active torsions:
REMARK  status: ('A' for Active; 'I' for Inactive)
REMARK       I    between atoms: C_2  and  N_3 
REMARK    1  A    between atoms: N_3  and  C_4 
REMARK    2  A    between atoms: N_9  and  C_10 
REMARK    3  A    between atoms: C_10  and  C_11 
REMARK    4  A    between atoms: C_11  and  C_12 
REMARK    5  A    between atoms: C_12  and  O_13 
REMARK    6  A    between atoms: O_13  and  C_14 
REMARK    7  A    between atoms: C_17  and  C_18 
REMARK       I    between atoms: N_30  and  C_31 
ROOT
HETATM    1  C   UNL     1      41.456 -15.859   0.516  1.00  0.00     0.191 C 
HETATM    2  S   UNL     1      40.177 -15.433   1.609  1.00  0.00    -0.042 SA
HETATM    3  C   UNL     1      40.435 -13.686   1.103  1.00  0.00     0.224 A 
HETATM    4  C   UNL     1      41.325 -13.013   2.185  1.00  0.00     0.271 A 
HETATM    5  O   UNL     1      42.482 -13.324   2.444  1.00  0.00    -0.269 OA
HETATM    6  N   UNL     1      40.541 -12.024   2.807  1.00  0.00    -0.314 N 
HETATM    7  C   UNL     1      39.285 -11.926   2.172  1.00  0.00     0.047 A 
HETATM    8  C   UNL     1      39.175 -12.881   1.151  1.00  0.00     0.019 A 
HETATM    9  C   UNL     1      38.258 -11.038   2.437  1.00  0.00     0.030 A 
HETATM   10  C   UNL     1      37.100 -11.120   1.657  1.00  0.00     0.002 A 
HETATM   11  C   UNL     1      36.987 -12.076   0.635  1.00  0.00     0.001 A 
HETATM   12  C   UNL     1      38.029 -12.967   0.374  1.00  0.00     0.013 A 
HETATM   13  N   UNL     1      41.174 -13.787  -0.153  1.00  0.00    -0.201 N 
HETATM   14  C   UNL     1      41.511 -12.670  -0.899  1.00  0.00     0.238 C 
HETATM   15  C   UNL     1      42.389 -12.929  -2.098  1.00  0.00     0.119 C 
HETATM   16  O   UNL     1      41.143 -11.530  -0.619  1.00  0.00    -0.272 OA
HETATM   17  N   UNL     1      41.836 -14.992  -0.360  1.00  0.00    -0.141 NA
ENDROOT
BRANCH   6  18
HETATM   18  C   UNL     1      40.979 -11.083   3.832  1.00  0.00     0.134 C 
BRANCH  18  19
HETATM   19  C   UNL     1      40.627 -11.469   5.265  1.00  0.00     0.047 C 
BRANCH  19  20
HETATM   20  C   UNL     1      41.496 -12.597   5.808  1.00  0.00     0.177 C 
BRANCH  20  21
HETATM   21  O   UNL     1      40.792 -13.810   5.542  1.00  0.00    -0.351 OA
BRANCH  21  22
HETATM   22  C   UNL     1      41.478 -14.982   5.653  1.00  0.00     0.068 A 
HETATM   23  C   UNL     1      40.967 -16.256   5.438  1.00  0.00     0.037 A 
HETATM   24  C   UNL     1      41.793 -17.382   5.581  1.00  0.00     0.011 A 
HETATM   25  C   UNL     1      43.146 -17.261   5.939  1.00  0.00    -0.050 A 
HETATM   26  C   UNL     1      43.640 -15.960   6.148  1.00  0.00     0.011 A 
HETATM   27  C   UNL     1      42.818 -14.841   6.003  1.00  0.00     0.037 A 
BRANCH  25  28
HETATM   28  C   UNL     1      44.080 -18.472   6.103  1.00  0.00    -0.024 C 
HETATM   29  C   UNL     1      43.666 -19.428   7.244  1.00  0.00     0.019 C 
HETATM   30  C   UNL     1      44.092 -19.297   4.798  1.00  0.00     0.019 C 
HETATM   31  C   UNL     1      45.512 -17.986   6.410  1.00  0.00     0.019 C 
ENDBRANCH  25  28
ENDBRANCH  21  22
ENDBRANCH  20  21
ENDBRANCH  19  20
ENDBRANCH  18  19
ENDBRANCH   6  18
BRANCH   1  32
HETATM   32  N   UNL     1      41.949 -17.118   0.698  1.00  0.00    -0.305 N 
HETATM   33  C   UNL     1      43.033 -17.550   1.423  1.00  0.00     0.219 C 
HETATM   34  C   UNL     1      43.757 -16.563   2.297  1.00  0.00     0.117 C 
HETATM   35  O   UNL     1      43.377 -18.730   1.352  1.00  0.00    -0.274 OA
HETATM   36  H   UNL     1      41.444 -17.865   0.242  1.00  0.00     0.171 HD
ENDBRANCH   1  32
TORSDOF 7
ENDMDL
MODEL 3
REMARK VINA RESULT:      -7.6      3.198      4.656
REMARK  7 active torsions:
REMARK  status: ('A' for Active; 'I' for Inactive)
REMARK       I    between atoms: C_2  and  N_3 
REMARK    1  A    between atoms: N_3  and  C_4 
REMARK    2  A    between atoms: N_9  and  C_10 
REMARK    3  A    between atoms: C_10  and  C_11 
REMARK    4  A    between atoms: C_11  and  C_12 
REMARK    5  A    between atoms: C_12  and  O_13 
REMARK    6  A    between atoms: O_13  and  C_14 
REMARK    7  A    between atoms: C_17  and  C_18 
REMARK       I    between atoms: N_30  and  C_31 
ROOT
HETATM    1  C   UNL     1      36.768 -13.390  -3.894  1.00  0.00     0.191 C 
HETATM    2  S   UNL     1      37.633 -12.031  -3.247  1.00  0.00    -0.042 SA
HETATM    3  C   UNL     1      38.954 -13.209  -2.755  1.00  0.00     0.224 A 
HETATM    4  C   UNL     1      38.743 -13.546  -1.253  1.00  0.00     0.271 A 
HETATM    5  O   UNL     1      37.770 -14.126  -0.787  1.00  0.00    -0.269 OA
HETATM    6  N   UNL     1      39.854 -13.036  -0.556  1.00  0.00    -0.314 N 
HETATM    7  C   UNL     1      40.795 -12.501  -1.462  1.00  0.00     0.047 A 
HETATM    8  C   UNL     1      40.315 -12.587  -2.776  1.00  0.00     0.019 A 
HETATM    9  C   UNL     1      42.041 -11.966  -1.187  1.00  0.00     0.030 A 
HETATM   10  C   UNL     1      42.811 -11.509  -2.260  1.00  0.00     0.002 A 
HETATM   11  C   UNL     1      42.333 -11.594  -3.577  1.00  0.00     0.001 A 
HETATM   12  C   UNL     1      41.075 -12.136  -3.846  1.00  0.00     0.013 A 
HETATM   13  N   UNL     1      38.694 -14.393  -3.570  1.00  0.00    -0.201 N 
HETATM   14  C   UNL     1      39.523 -15.502  -3.539  1.00  0.00     0.238 C 
HETATM   15  C   UNL     1      39.046 -16.693  -4.333  1.00  0.00     0.119 C 
HETATM   16  O   UNL     1      40.578 -15.544  -2.907  1.00  0.00    -0.272 OA
HETATM   17  N   UNL     1      37.402 -14.500  -4.072  1.00  0.00    -0.141 NA
ENDROOT
BRANCH   6  18
HETATM   18  C   UNL     1      40.130 -13.181   0.868  1.00  0.00     0.134 C 
BRANCH  18  19
HETATM   19  C   UNL     1      40.867 -14.457   1.263  1.00  0.00     0.047 C 
BRANCH  19  20
HETATM   20  C   UNL     1      40.021 -15.392   2.120  1.00  0.00     0.177 C 
BRANCH  20  21
HETATM   21  O   UNL     1      40.506 -16.711   1.873  1.00  0.00    -0.351 OA
BRANCH  21  22
HETATM   22  C   UNL     1      41.346 -17.263   2.793  1.00  0.00     0.068 A 
HETATM   23  C   UNL     1      41.287 -17.086   4.170  1.00  0.00     0.037 A 
HETATM   24  C   UNL     1      42.217 -17.725   5.005  1.00  0.00     0.011 A 
HETATM   25  C   UNL     1      43.224 -18.556   4.485  1.00  0.00    -0.050 A 
HETATM   26  C   UNL     1      43.261 -18.721   3.089  1.00  0.00     0.011 A 
HETATM   27  C   UNL     1      42.333 -18.087   2.259  1.00  0.00     0.037 A 
BRANCH  25  28
HETATM   28  C   UNL     1      44.258 -19.272   5.371  1.00  0.00    -0.024 C 
HETATM   29  C   UNL     1      43.630 -20.112   6.507  1.00  0.00     0.019 C 
HETATM   30  C   UNL     1      45.104 -20.231   4.507  1.00  0.00     0.019 C 
HETATM   31  C   UNL     1      45.186 -18.230   6.031  1.00  0.00     0.019 C 
ENDBRANCH  25  28
ENDBRANCH  21  22
ENDBRANCH  20  21
ENDBRANCH  19  20
ENDBRANCH  18  19
ENDBRANCH   6  18
BRANCH   1  32
HETATM   32  N   UNL     1      35.454 -13.139  -4.163  1.00  0.00    -0.305 N 
HETATM   33  C   UNL     1      34.833 -12.855  -5.355  1.00  0.00     0.219 C 
HETATM   34  C   UNL     1      35.628 -12.957  -6.628  1.00  0.00     0.117 C 
HETATM   35  O   UNL     1      33.643 -12.537  -5.356  1.00  0.00    -0.274 OA
HETATM   36  H   UNL     1      34.823 -13.173  -3.376  1.00  0.00     0.171 HD
ENDBRANCH   1  32
TORSDOF 7
ENDMDL
MODEL 4
REMARK VINA RESULT:      -7.6      1.942      2.931
REMARK  7 active torsions:
REMARK  status: ('A' for Active; 'I' for Inactive)
REMARK       I    between atoms: C_2  and  N_3 
REMARK    1  A    between atoms: N_3  and  C_4 
REMARK    2  A    between atoms: N_9  and  C_10 
REMARK    3  A    between atoms: C_10  and  C_11 
REMARK    4  A    between atoms: C_11  and  C_12 
REMARK    5  A    between atoms: C_12  and  O_13 
REMARK    6  A    between atoms: O_13  and  C_14 
REMARK    7  A    between atoms: C_17  and  C_18 
REMARK       I    between atoms: N_30  and  C_31 
ROOT
HETATM    1  C   UNL     1      41.408 -12.357  -2.999  1.00  0.00     0.191 C 
HETATM    2  S   UNL     1      42.157 -12.859  -1.515  1.00  0.00    -0.042 SA
HETATM    3  C   UNL     1      40.494 -13.406  -0.956  1.00  0.00     0.224 A 
HETATM    4  C   UNL     1      39.911 -12.280  -0.057  1.00  0.00     0.271 A 
HETATM    5  O   UNL     1      39.636 -11.146  -0.431  1.00  0.00    -0.269 OA
HETATM    6  N   UNL     1      39.793 -12.808   1.242  1.00  0.00    -0.314 N 
HETATM    7  C   UNL     1      40.144 -14.175   1.245  1.00  0.00     0.047 A 
HETATM    8  C   UNL     1      40.558 -14.580  -0.031  1.00  0.00     0.019 A 
HETATM    9  C   UNL     1      40.100 -15.067   2.302  1.00  0.00     0.030 A 
HETATM   10  C   UNL     1      40.484 -16.390   2.061  1.00  0.00     0.002 A 
HETATM   11  C   UNL     1      40.899 -16.798   0.784  1.00  0.00     0.001 A 
HETATM   12  C   UNL     1      40.939 -15.892  -0.277  1.00  0.00     0.013 A 
HETATM   13  N   UNL     1      39.721 -13.505  -2.191  1.00  0.00    -0.201 N 
HETATM   14  C   UNL     1      38.412 -13.958  -2.202  1.00  0.00     0.238 C 
HETATM   15  C   UNL     1      37.707 -13.875  -3.534  1.00  0.00     0.119 C 
HETATM   16  O   UNL     1      37.835 -14.393  -1.207  1.00  0.00    -0.272 OA
HETATM   17  N   UNL     1      40.221 -12.782  -3.268  1.00  0.00    -0.141 NA
ENDROOT
BRANCH   6  18
HETATM   18  C   UNL     1      39.220 -12.141   2.404  1.00  0.00     0.134 C 
BRANCH  18  19
HETATM   19  C   UNL     1      40.130 -11.125   3.087  1.00  0.00     0.047 C 
BRANCH  19  20
HETATM   20  C   UNL     1      40.527 -11.537   4.500  1.00  0.00     0.177 C 
BRANCH  20  21
HETATM   21  O   UNL     1      41.925 -11.823   4.456  1.00  0.00    -0.351 OA
BRANCH  21  22
HETATM   22  C   UNL     1      42.308 -13.130   4.416  1.00  0.00     0.068 A 
HETATM   23  C   UNL     1      43.184 -13.702   3.502  1.00  0.00     0.037 A 
HETATM   24  C   UNL     1      43.497 -15.067   3.582  1.00  0.00     0.011 A 
HETATM   25  C   UNL     1      42.945 -15.891   4.577  1.00  0.00    -0.050 A 
HETATM   26  C   UNL     1      42.063 -15.288   5.492  1.00  0.00     0.011 A 
HETATM   27  C   UNL     1      41.754 -13.929   5.413  1.00  0.00     0.037 A 
BRANCH  25  28
HETATM   28  C   UNL     1      43.267 -17.391   4.694  1.00  0.00    -0.024 C 
HETATM   29  C   UNL     1      44.269 -17.727   5.822  1.00  0.00     0.019 C 
HETATM   30  C   UNL     1      41.971 -18.178   4.985  1.00  0.00     0.019 C 
HETATM   31  C   UNL     1      43.881 -17.895   3.371  1.00  0.00     0.019 C 
ENDBRANCH  25  28
ENDBRANCH  21  22
ENDBRANCH  20  21
ENDBRANCH  19  20
ENDBRANCH  18  19
ENDBRANCH   6  18
BRANCH   1  32
HETATM   32  N   UNL     1      42.182 -11.534  -3.764  1.00  0.00    -0.305 N 
HETATM   33  C   UNL     1      42.154 -10.167  -3.901  1.00  0.00     0.219 C 
HETATM   34  C   UNL     1      41.258  -9.367  -2.996  1.00  0.00     0.117 C 
HETATM   35  O   UNL     1      42.869  -9.630  -4.748  1.00  0.00    -0.274 OA
HETATM   36  H   UNL     1      42.899 -11.981  -4.316  1.00  0.00     0.171 HD
ENDBRANCH   1  32
TORSDOF 7
ENDMDL
MODEL 5
REMARK VINA RESULT:      -7.5      5.264      8.772
REMARK  7 active torsions:
REMARK  status: ('A' for Active; 'I' for Inactive)
REMARK       I    between atoms: C_2  and  N_3 
REMARK    1  A    between atoms: N_3  and  C_4 
REMARK    2  A    between atoms: N_9  and  C_10 
REMARK    3  A    between atoms: C_10  and  C_11 
REMARK    4  A    between atoms: C_11  and  C_12 
REMARK    5  A    between atoms: C_12  and  O_13 
REMARK    6  A    between atoms: O_13  and  C_14 
REMARK    7  A    between atoms: C_17  and  C_18 
REMARK       I    between atoms: N_30  and  C_31 
ROOT
HETATM    1  C   UNL     1      42.625 -18.184   5.365  1.00  0.00     0.191 C 
HETATM    2  S   UNL     1      41.678 -17.078   6.310  1.00  0.00    -0.042 SA
HETATM    3  C   UNL     1      42.362 -15.728   5.267  1.00  0.00     0.224 A 
HETATM    4  C   UNL     1      43.543 -15.087   6.050  1.00  0.00     0.271 A 
HETATM    5  O   UNL     1      44.584 -15.658   6.354  1.00  0.00    -0.269 OA
HETATM    6  N   UNL     1      43.167 -13.766   6.353  1.00  0.00    -0.314 N 
HETATM    7  C   UNL     1      41.921 -13.465   5.763  1.00  0.00     0.047 A 
HETATM    8  C   UNL     1      41.406 -14.589   5.102  1.00  0.00     0.019 A 
HETATM    9  C   UNL     1      41.238 -12.262   5.768  1.00  0.00     0.030 A 
HETATM   10  C   UNL     1      40.014 -12.197   5.096  1.00  0.00     0.002 A 
HETATM   11  C   UNL     1      39.497 -13.322   4.433  1.00  0.00     0.001 A 
HETATM   12  C   UNL     1      40.193 -14.532   4.432  1.00  0.00     0.013 A 
HETATM   13  N   UNL     1      42.869 -16.418   4.084  1.00  0.00    -0.201 N 
HETATM   14  C   UNL     1      43.414 -15.731   3.011  1.00  0.00     0.238 C 
HETATM   15  C   UNL     1      44.014 -16.591   1.926  1.00  0.00     0.119 C 
HETATM   16  O   UNL     1      43.430 -14.504   2.928  1.00  0.00    -0.272 OA
HETATM   17  N   UNL     1      43.121 -17.775   4.246  1.00  0.00    -0.141 NA
ENDROOT
BRANCH   6  18
HETATM   18  C   UNL     1      43.988 -12.756   7.011  1.00  0.00     0.134 C 
BRANCH  18  19
HETATM   19  C   UNL     1      45.218 -13.289   7.739  1.00  0.00     0.047 C 
BRANCH  19  20
HETATM   20  C   UNL     1      45.790 -12.298   8.744  1.00  0.00     0.177 C 
BRANCH  20  21
HETATM   21  O   UNL     1      45.498 -12.825  10.038  1.00  0.00    -0.351 OA
BRANCH  21  22
HETATM   22  C   UNL     1      44.677 -12.102  10.850  1.00  0.00     0.068 A 
HETATM   23  C   UNL     1      43.937 -12.594  11.918  1.00  0.00     0.037 A 
HETATM   24  C   UNL     1      43.134 -11.731  12.679  1.00  0.00     0.011 A 
HETATM   25  C   UNL     1      43.052 -10.358  12.392  1.00  0.00    -0.050 A 
HETATM   26  C   UNL     1      43.812  -9.883  11.307  1.00  0.00     0.011 A 
HETATM   27  C   UNL     1      44.614 -10.743  10.553  1.00  0.00     0.037 A 
BRANCH  25  28
HETATM   28  C   UNL     1      42.183  -9.383  13.205  1.00  0.00    -0.024 C 
HETATM   29  C   UNL     1      42.617  -7.905  13.078  1.00  0.00     0.019 C 
HETATM   30  C   UNL     1      40.718  -9.472  12.725  1.00  0.00     0.019 C 
HETATM   31  C   UNL     1      42.251  -9.753  14.702  1.00  0.00     0.019 C 
ENDBRANCH  25  28
ENDBRANCH  21  22
ENDBRANCH  20  21
ENDBRANCH  19  20
ENDBRANCH  18  19
ENDBRANCH   6  18
BRANCH   1  32
HETATM   32  N   UNL     1      42.752 -19.425   5.918  1.00  0.00    -0.305 N 
HETATM   33  C   UNL     1      43.597 -19.873   6.904  1.00  0.00     0.219 C 
HETATM   34  C   UNL     1      44.448 -18.872   7.637  1.00  0.00     0.117 C 
HETATM   35  O   UNL     1      43.631 -21.074   7.171  1.00  0.00    -0.274 OA
HETATM   36  H   UNL     1      42.127 -20.136   5.567  1.00  0.00     0.171 HD
ENDBRANCH   1  32
TORSDOF 7
ENDMDL
MODEL 6
REMARK VINA RESULT:      -7.5      4.698      7.007
REMARK  7 active torsions:
REMARK  status: ('A' for Active; 'I' for Inactive)
REMARK       I    between atoms: C_2  and  N_3 
REMARK    1  A    between atoms: N_3  and  C_4 
REMARK    2  A    between atoms: N_9  and  C_10 
REMARK    3  A    between atoms: C_10  and  C_11 
REMARK    4  A    between atoms: C_11  and  C_12 
REMARK    5  A    between atoms: C_12  and  O_13 
REMARK    6  A    between atoms: O_13  and  C_14 
REMARK    7  A    between atoms: C_17  and  C_18 
REMARK       I    between atoms: N_30  and  C_31 
ROOT
HETATM    1  C   UNL     1      41.919 -14.133   2.133  1.00  0.00     0.191 C 
HETATM    2  S   UNL     1      43.215 -15.207   2.557  1.00  0.00    -0.042 SA
HETATM    3  C   UNL     1      42.605 -15.130   4.289  1.00  0.00     0.224 A 
HETATM    4  C   UNL     1      43.477 -14.089   5.044  1.00  0.00     0.271 A 
HETATM    5  O   UNL     1      43.527 -12.891   4.792  1.00  0.00    -0.269 OA
HETATM    6  N   UNL     1      44.197 -14.791   6.029  1.00  0.00    -0.314 N 
HETATM    7  C   UNL     1      43.804 -16.146   6.047  1.00  0.00     0.047 A 
HETATM    8  C   UNL     1      42.858 -16.397   5.044  1.00  0.00     0.019 A 
HETATM    9  C   UNL     1      44.223 -17.147   6.905  1.00  0.00     0.030 A 
HETATM   10  C   UNL     1      43.677 -18.424   6.741  1.00  0.00     0.002 A 
HETATM   11  C   UNL     1      42.729 -18.678   5.737  1.00  0.00     0.001 A 
HETATM   12  C   UNL     1      42.311 -17.661   4.877  1.00  0.00     0.013 A 
HETATM   13  N   UNL     1      41.238 -14.632   4.160  1.00  0.00    -0.201 N 
HETATM   14  C   UNL     1      40.402 -14.492   5.256  1.00  0.00     0.238 C 
HETATM   15  C   UNL     1      39.071 -13.839   4.978  1.00  0.00     0.119 C 
HETATM   16  O   UNL     1      40.704 -14.856   6.391  1.00  0.00    -0.272 OA
HETATM   17  N   UNL     1      40.956 -13.963   2.975  1.00  0.00    -0.141 NA
ENDROOT
BRANCH   6  18
HETATM   18  C   UNL     1      45.088 -14.217   7.031  1.00  0.00     0.134 C 
BRANCH  18  19
HETATM   19  C   UNL     1      44.396 -13.612   8.248  1.00  0.00     0.047 C 
BRANCH  19  20
HETATM   20  C   UNL     1      44.929 -12.232   8.611  1.00  0.00     0.177 C 
BRANCH  20  21
HETATM   21  O   UNL     1      43.834 -11.328   8.466  1.00  0.00    -0.351 OA
BRANCH  21  22
HETATM   22  C   UNL     1      43.299 -10.789   9.597  1.00  0.00     0.068 A 
HETATM   23  C   UNL     1      41.973 -10.416   9.783  1.00  0.00     0.037 A 
HETATM   24  C   UNL     1      41.555  -9.878  11.009  1.00  0.00     0.011 A 
HETATM   25  C   UNL     1      42.450  -9.701  12.078  1.00  0.00    -0.050 A 
HETATM   26  C   UNL     1      43.786 -10.087  11.866  1.00  0.00     0.011 A 
HETATM   27  C   UNL     1      44.200 -10.626  10.646  1.00  0.00     0.037 A 
BRANCH  25  28
HETATM   28  C   UNL     1      42.025  -9.115  13.435  1.00  0.00    -0.024 C 
HETATM   29  C   UNL     1      42.554  -7.684  13.689  1.00  0.00     0.019 C 
HETATM   30  C   UNL     1      40.485  -9.054  13.514  1.00  0.00     0.019 C 
HETATM   31  C   UNL     1      42.558 -10.008  14.576  1.00  0.00     0.019 C 
ENDBRANCH  25  28
ENDBRANCH  21  22
ENDBRANCH  20  21
ENDBRANCH  19  20
ENDBRANCH  18  19
ENDBRANCH   6  18
BRANCH   1  32
HETATM   32  N   UNL     1      42.051 -13.556   0.905  1.00  0.00    -0.305 N 
HETATM   33  C   UNL     1      41.712 -14.032  -0.339  1.00  0.00     0.219 C 
HETATM   34  C   UNL     1      40.942 -15.319  -0.435  1.00  0.00     0.117 C 
HETATM   35  O   UNL     1      42.034 -13.391  -1.340  1.00  0.00    -0.274 OA
HETATM   36  H   UNL     1      42.451 -12.628   0.887  1.00  0.00     0.171 HD
ENDBRANCH   1  32
TORSDOF 7
ENDMDL
MODEL 7
REMARK VINA RESULT:      -7.4      1.887      2.348
REMARK  7 active torsions:
REMARK  status: ('A' for Active; 'I' for Inactive)
REMARK       I    between atoms: C_2  and  N_3 
REMARK    1  A    between atoms: N_3  and  C_4 
REMARK    2  A    between atoms: N_9  and  C_10 
REMARK    3  A    between atoms: C_10  and  C_11 
REMARK    4  A    between atoms: C_11  and  C_12 
REMARK    5  A    between atoms: C_12  and  O_13 
REMARK    6  A    between atoms: O_13  and  C_14 
REMARK    7  A    between atoms: C_17  and  C_18 
REMARK       I    between atoms: N_30  and  C_31 
ROOT
HETATM    1  C   UNL     1      41.166 -10.664  -0.793  1.00  0.00     0.191 C 
HETATM    2  S   UNL     1      42.052 -11.832   0.137  1.00  0.00    -0.042 SA
HETATM    3  C   UNL     1      40.480 -12.767   0.309  1.00  0.00     0.224 A 
HETATM    4  C   UNL     1      39.872 -12.408   1.695  1.00  0.00     0.271 A 
HETATM    5  O   UNL     1      39.485 -11.295   2.031  1.00  0.00    -0.269 OA
HETATM    6  N   UNL     1      39.886 -13.583   2.468  1.00  0.00    -0.314 N 
HETATM    7  C   UNL     1      40.343 -14.671   1.694  1.00  0.00     0.047 A 
HETATM    8  C   UNL     1      40.698 -14.244   0.407  1.00  0.00     0.019 A 
HETATM    9  C   UNL     1      40.442 -16.001   2.061  1.00  0.00     0.030 A 
HETATM   10  C   UNL     1      40.911 -16.913   1.110  1.00  0.00     0.002 A 
HETATM   11  C   UNL     1      41.268 -16.487  -0.179  1.00  0.00     0.001 A 
HETATM   12  C   UNL     1      41.164 -15.143  -0.541  1.00  0.00     0.013 A 
HETATM   13  N   UNL     1      39.634 -12.236  -0.755  1.00  0.00    -0.201 N 
HETATM   14  C   UNL     1      38.366 -12.736  -1.005  1.00  0.00     0.238 C 
HETATM   15  C   UNL     1      37.568 -11.994  -2.047  1.00  0.00     0.119 C 
HETATM   16  O   UNL     1      37.895 -13.712  -0.423  1.00  0.00    -0.272 OA
HETATM   17  N   UNL     1      40.000 -10.986  -1.241  1.00  0.00    -0.141 NA
ENDROOT
BRANCH   6  18
HETATM   18  C   UNL     1      39.344 -13.747   3.812  1.00  0.00     0.134 C 
BRANCH  18  19
HETATM   19  C   UNL     1      40.330 -13.498   4.949  1.00  0.00     0.047 C 
BRANCH  19  20
HETATM   20  C   UNL     1      40.270 -14.566   6.033  1.00  0.00     0.177 C 
BRANCH  20  21
HETATM   21  O   UNL     1      41.608 -15.030   6.215  1.00  0.00    -0.351 OA
BRANCH  21  22
HETATM   22  C   UNL     1      42.048 -16.036   5.409  1.00  0.00     0.068 A 
HETATM   23  C   UNL     1      41.538 -17.327   5.355  1.00  0.00     0.037 A 
HETATM   24  C   UNL     1      42.086 -18.267   4.468  1.00  0.00     0.011 A 
HETATM   25  C   UNL     1      43.153 -17.938   3.614  1.00  0.00    -0.050 A 
HETATM   26  C   UNL     1      43.650 -16.624   3.687  1.00  0.00     0.011 A 
HETATM   27  C   UNL     1      43.102 -15.689   4.568  1.00  0.00     0.037 A 
BRANCH  25  28
HETATM   28  C   UNL     1      43.776 -18.942   2.630  1.00  0.00    -0.024 C 
HETATM   29  C   UNL     1      42.761 -19.945   2.036  1.00  0.00     0.019 C 
HETATM   30  C   UNL     1      44.412 -18.181   1.447  1.00  0.00     0.019 C 
HETATM   31  C   UNL     1      44.866 -19.766   3.349  1.00  0.00     0.019 C 
ENDBRANCH  25  28
ENDBRANCH  21  22
ENDBRANCH  20  21
ENDBRANCH  19  20
ENDBRANCH  18  19
ENDBRANCH   6  18
BRANCH   1  32
HETATM   32  N   UNL     1      41.818  -9.479  -0.968  1.00  0.00    -0.305 N 
HETATM   33  C   UNL     1      42.616  -9.050  -2.001  1.00  0.00     0.219 C 
HETATM   34  C   UNL     1      42.724  -9.904  -3.234  1.00  0.00     0.117 C 
HETATM   35  O   UNL     1      43.212  -7.977  -1.900  1.00  0.00    -0.274 OA
HETATM   36  H   UNL     1      41.699  -8.792  -0.237  1.00  0.00     0.171 HD
ENDBRANCH   1  32
TORSDOF 7
ENDMDL
MODEL 8
REMARK VINA RESULT:      -7.2      4.326      7.911
REMARK  7 active torsions:
REMARK  status: ('A' for Active; 'I' for Inactive)
REMARK       I    between atoms: C_2  and  N_3 
REMARK    1  A    between atoms: N_3  and  C_4 
REMARK    2  A    between atoms: N_9  and  C_10 
REMARK    3  A    between atoms: C_10  and  C_11 
REMARK    4  A    between atoms: C_11  and  C_12 
REMARK    5  A    between atoms: C_12  and  O_13 
REMARK    6  A    between atoms: O_13  and  C_14 
REMARK    7  A    between atoms: C_17  and  C_18 
REMARK       I    between atoms: N_30  and  C_31 
ROOT
HETATM    1  C   UNL     1      42.526 -18.258   4.847  1.00  0.00     0.191 C 
HETATM    2  S   UNL     1      41.133 -17.266   5.141  1.00  0.00    -0.042 SA
HETATM    3  C   UNL     1      41.731 -16.168   3.794  1.00  0.00     0.224 A 
HETATM    4  C   UNL     1      42.481 -14.979   4.460  1.00  0.00     0.271 A 
HETATM    5  O   UNL     1      43.509 -15.071   5.121  1.00  0.00    -0.269 OA
HETATM    6  N   UNL     1      41.740 -13.816   4.180  1.00  0.00    -0.314 N 
HETATM    7  C   UNL     1      40.658 -14.121   3.327  1.00  0.00     0.047 A 
HETATM    8  C   UNL     1      40.613 -15.496   3.061  1.00  0.00     0.019 A 
HETATM    9  C   UNL     1      39.736 -13.252   2.770  1.00  0.00     0.030 A 
HETATM   10  C   UNL     1      38.752 -13.787   1.932  1.00  0.00     0.002 A 
HETATM   11  C   UNL     1      38.705 -15.164   1.665  1.00  0.00     0.001 A 
HETATM   12  C   UNL     1      39.640 -16.033   2.231  1.00  0.00     0.013 A 
HETATM   13  N   UNL     1      42.678 -16.999   3.055  1.00  0.00    -0.201 N 
HETATM   14  C   UNL     1      43.309 -16.548   1.908  1.00  0.00     0.238 C 
HETATM   15  C   UNL     1      44.357 -17.471   1.337  1.00  0.00     0.119 C 
HETATM   16  O   UNL     1      43.059 -15.468   1.374  1.00  0.00    -0.272 OA
HETATM   17  N   UNL     1      43.189 -18.087   3.753  1.00  0.00    -0.141 NA
ENDROOT
BRANCH   6  18
HETATM   18  C   UNL     1      42.099 -12.449   4.536  1.00  0.00     0.134 C 
BRANCH  18  19
HETATM   19  C   UNL     1      41.658 -11.999   5.925  1.00  0.00     0.047 C 
BRANCH  19  20
HETATM   20  C   UNL     1      40.311 -11.287   5.921  1.00  0.00     0.177 C 
BRANCH  20  21
HETATM   21  O   UNL     1      40.490 -10.084   6.668  1.00  0.00    -0.351 OA
BRANCH  21  22
HETATM   22  C   UNL     1      40.794 -10.196   7.992  1.00  0.00     0.068 A 
HETATM   23  C   UNL     1      41.977  -9.794   8.599  1.00  0.00     0.037 A 
HETATM   24  C   UNL     1      42.156  -9.963   9.980  1.00  0.00     0.011 A 
HETATM   25  C   UNL     1      41.156 -10.533  10.787  1.00  0.00    -0.050 A 
HETATM   26  C   UNL     1      39.966 -10.929  10.149  1.00  0.00     0.011 A 
HETATM   27  C   UNL     1      39.789 -10.758   8.774  1.00  0.00     0.037 A 
BRANCH  25  28
HETATM   28  C   UNL     1      41.317 -10.731  12.304  1.00  0.00    -0.024 C 
HETATM   29  C   UNL     1      42.731 -11.192  12.726  1.00  0.00     0.019 C 
HETATM   30  C   UNL     1      41.033  -9.400  13.033  1.00  0.00     0.019 C 
HETATM   31  C   UNL     1      40.321 -11.803  12.796  1.00  0.00     0.019 C 
ENDBRANCH  25  28
ENDBRANCH  21  22
ENDBRANCH  20  21
ENDBRANCH  19  20
ENDBRANCH  18  19
ENDBRANCH   6  18
BRANCH   1  32
HETATM   32  N   UNL     1      42.790 -19.158   5.838  1.00  0.00    -0.305 N 
HETATM   33  C   UNL     1      43.637 -19.066   6.916  1.00  0.00     0.219 C 
HETATM   34  C   UNL     1      44.307 -17.750   7.199  1.00  0.00     0.117 C 
HETATM   35  O   UNL     1      43.818 -20.054   7.628  1.00  0.00    -0.274 OA
HETATM   36  H   UNL     1      42.285 -20.031   5.794  1.00  0.00     0.171 HD
ENDBRANCH   1  32
TORSDOF 7
ENDMDL
MODEL 9
REMARK VINA RESULT:      -7.2      2.498      4.041
REMARK  7 active torsions:
REMARK  status: ('A' for Active; 'I' for Inactive)
REMARK       I    between atoms: C_2  and  N_3 
REMARK    1  A    between atoms: N_3  and  C_4 
REMARK    2  A    between atoms: N_9  and  C_10 
REMARK    3  A    between atoms: C_10  and  C_11 
REMARK    4  A    between atoms: C_11  and  C_12 
REMARK    5  A    between atoms: C_12  and  O_13 
REMARK    6  A    between atoms: O_13  and  C_14 
REMARK    7  A    between atoms: C_17  and  C_18 
REMARK       I    between atoms: N_30  and  C_31 
ROOT
HETATM    1  C   UNL     1      38.500 -13.045  -2.867  1.00  0.00     0.191 C 
HETATM    2  S   UNL     1      38.294 -13.324  -1.166  1.00  0.00    -0.042 SA
HETATM    3  C   UNL     1      40.101 -13.041  -0.984  1.00  0.00     0.224 A 
HETATM    4  C   UNL     1      40.788 -14.435  -0.934  1.00  0.00     0.271 A 
HETATM    5  O   UNL     1      40.801 -15.251  -1.848  1.00  0.00    -0.269 OA
HETATM    6  N   UNL     1      41.350 -14.572   0.349  1.00  0.00    -0.314 N 
HETATM    7  C   UNL     1      41.182 -13.380   1.085  1.00  0.00     0.047 A 
HETATM    8  C   UNL     1      40.457 -12.440   0.340  1.00  0.00     0.019 A 
HETATM    9  C   UNL     1      41.645 -13.085   2.355  1.00  0.00     0.030 A 
HETATM   10  C   UNL     1      41.367 -11.819   2.878  1.00  0.00     0.002 A 
HETATM   11  C   UNL     1      40.641 -10.876   2.134  1.00  0.00     0.001 A 
HETATM   12  C   UNL     1      40.178 -11.181   0.853  1.00  0.00     0.013 A 
HETATM   13  N   UNL     1      40.476 -12.347  -2.212  1.00  0.00    -0.201 N 
HETATM   14  C   UNL     1      41.766 -11.894  -2.434  1.00  0.00     0.238 C 
HETATM   15  C   UNL     1      42.025 -11.317  -3.804  1.00  0.00     0.119 C 
HETATM   16  O   UNL     1      42.661 -11.954  -1.593  1.00  0.00    -0.272 OA
HETATM   17  N   UNL     1      39.595 -12.499  -3.277  1.00  0.00    -0.141 NA
ENDROOT
BRANCH   6  18
HETATM   18  C   UNL     1      42.160 -15.684   0.829  1.00  0.00     0.134 C 
BRANCH  18  19
HETATM   19  C   UNL     1      41.448 -17.032   0.891  1.00  0.00     0.047 C 
BRANCH  19  20
HETATM   20  C   UNL     1      40.245 -17.026   1.825  1.00  0.00     0.177 C 
BRANCH  20  21
HETATM   21  O   UNL     1      40.615 -16.232   2.952  1.00  0.00    -0.351 OA
BRANCH  21  22
HETATM   22  C   UNL     1      41.411 -16.801   3.899  1.00  0.00     0.068 A 
HETATM   23  C   UNL     1      42.119 -17.989   3.771  1.00  0.00     0.037 A 
HETATM   24  C   UNL     1      42.911 -18.458   4.830  1.00  0.00     0.011 A 
HETATM   25  C   UNL     1      43.016 -17.750   6.040  1.00  0.00    -0.050 A 
HETATM   26  C   UNL     1      42.291 -16.549   6.144  1.00  0.00     0.011 A 
HETATM   27  C   UNL     1      41.506 -16.082   5.088  1.00  0.00     0.037 A 
BRANCH  25  28
HETATM   28  C   UNL     1      43.875 -18.234   7.221  1.00  0.00    -0.024 C 
HETATM   29  C   UNL     1      43.673 -19.726   7.568  1.00  0.00     0.019 C 
HETATM   30  C   UNL     1      45.370 -18.040   6.887  1.00  0.00     0.019 C 
HETATM   31  C   UNL     1      43.526 -17.419   8.485  1.00  0.00     0.019 C 
ENDBRANCH  25  28
ENDBRANCH  21  22
ENDBRANCH  20  21
ENDBRANCH  19  20
ENDBRANCH  18  19
ENDBRANCH   6  18
BRANCH   1  32
HETATM   32  N   UNL     1      37.441 -13.442  -3.630  1.00  0.00    -0.305 N 
HETATM   33  C   UNL     1      37.216 -14.630  -4.283  1.00  0.00     0.219 C 
HETATM   34  C   UNL     1      38.168 -15.772  -4.057  1.00  0.00     0.117 C 
HETATM   35  O   UNL     1      36.239 -14.735  -5.026  1.00  0.00    -0.274 OA
HETATM   36  H   UNL     1      36.691 -12.774  -3.735  1.00  0.00     0.171 HD
ENDBRANCH   1  32
TORSDOF 7
ENDMDL
MODEL 10
REMARK VINA RESULT:      -7.2      2.660      4.840
REMARK  7 active torsions:
REMARK  status: ('A' for Active; 'I' for Inactive)
REMARK       I    between atoms: C_2  and  N_3 
REMARK    1  A    between atoms: N_3  and  C_4 
REMARK    2  A    between atoms: N_9  and  C_10 
REMARK    3  A    between atoms: C_10  and  C_11 
REMARK    4  A    between atoms: C_11  and  C_12 
REMARK    5  A    between atoms: C_12  and  O_13 
REMARK    6  A    between atoms: O_13  and  C_14 
REMARK    7  A    between atoms: C_17  and  C_18 
REMARK       I    between atoms: N_30  and  C_31 
ROOT
HETATM    1  C   UNL     1      42.258 -10.260  -4.243  1.00  0.00     0.191 C 
HETATM    2  S   UNL     1      40.786 -11.177  -4.300  1.00  0.00    -0.042 SA
HETATM    3  C   UNL     1      41.057 -11.568  -2.525  1.00  0.00     0.224 A 
HETATM    4  C   UNL     1      41.707 -12.978  -2.452  1.00  0.00     0.271 A 
HETATM    5  O   UNL     1      42.811 -13.273  -2.896  1.00  0.00    -0.269 OA
HETATM    6  N   UNL     1      40.782 -13.826  -1.815  1.00  0.00    -0.314 N 
HETATM    7  C   UNL     1      39.658 -13.089  -1.387  1.00  0.00     0.047 A 
HETATM    8  C   UNL     1      39.774 -11.747  -1.774  1.00  0.00     0.019 A 
HETATM    9  C   UNL     1      38.563 -13.536  -0.670  1.00  0.00     0.030 A 
HETATM   10  C   UNL     1      37.569 -12.609  -0.341  1.00  0.00     0.002 A 
HETATM   11  C   UNL     1      37.683 -11.264  -0.728  1.00  0.00     0.001 A 
HETATM   12  C   UNL     1      38.792 -10.821  -1.451  1.00  0.00     0.013 A 
HETATM   13  N   UNL     1      42.013 -10.557  -2.082  1.00  0.00    -0.201 N 
HETATM   14  C   UNL     1      42.431 -10.470  -0.764  1.00  0.00     0.238 C 
HETATM   15  C   UNL     1      43.520  -9.462  -0.493  1.00  0.00     0.119 C 
HETATM   16  O   UNL     1      41.969 -11.162   0.142  1.00  0.00    -0.272 OA
HETATM   17  N   UNL     1      42.752  -9.952  -3.092  1.00  0.00    -0.141 NA
ENDROOT
BRANCH   6  18
HETATM   18  C   UNL     1      40.987 -15.225  -1.458  1.00  0.00     0.134 C 
BRANCH  18  19
HETATM   19  C   UNL     1      41.508 -15.468  -0.045  1.00  0.00     0.047 C 
BRANCH  19  20
HETATM   20  C   UNL     1      41.314 -16.905   0.422  1.00  0.00     0.177 C 
BRANCH  20  21
HETATM   21  O   UNL     1      40.842 -16.830   1.767  1.00  0.00    -0.351 OA
BRANCH  21  22
HETATM   22  C   UNL     1      41.620 -17.371   2.747  1.00  0.00     0.068 A 
HETATM   23  C   UNL     1      41.377 -17.314   4.113  1.00  0.00     0.037 A 
HETATM   24  C   UNL     1      42.263 -17.925   5.014  1.00  0.00     0.011 A 
HETATM   25  C   UNL     1      43.408 -18.608   4.571  1.00  0.00    -0.050 A 
HETATM   26  C   UNL     1      43.631 -18.653   3.183  1.00  0.00     0.011 A 
HETATM   27  C   UNL     1      42.747 -18.047   2.287  1.00  0.00     0.037 A 
BRANCH  25  28
HETATM   28  C   UNL     1      44.399 -19.289   5.530  1.00  0.00    -0.024 C 
HETATM   29  C   UNL     1      45.352 -18.305   6.246  1.00  0.00     0.019 C 
HETATM   30  C   UNL     1      43.621 -20.049   6.626  1.00  0.00     0.019 C 
HETATM   31  C   UNL     1      45.278 -20.288   4.746  1.00  0.00     0.019 C 
ENDBRANCH  25  28
ENDBRANCH  21  22
ENDBRANCH  20  21
ENDBRANCH  19  20
ENDBRANCH  18  19
ENDBRANCH   6  18
BRANCH   1  32
HETATM   32  N   UNL     1      42.764  -9.939  -5.469  1.00  0.00    -0.305 N 
HETATM   33  C   UNL     1      42.727  -8.752  -6.160  1.00  0.00     0.219 C 
HETATM   34  C   UNL     1      42.188  -7.530  -5.470  1.00  0.00     0.117 C 
HETATM   35  O   UNL     1      43.143  -8.714  -7.319  1.00  0.00    -0.274 OA
HETATM   36  H   UNL     1      43.255 -10.675  -5.956  1.00  0.00     0.171 HD
ENDBRANCH   1  32
TORSDOF 7
ENDMDL
