MODEL 1
REMARK VINA RESULT:     -10.5      0.000      0.000
REMARK  7 active torsions:
REMARK  status: ('A' for Active; 'I' for Inactive)
REMARK    1  A    between atoms: C_4  and  N_5 
REMARK       I    between atoms: N_5  and  C_6 
REMARK    2  A    between atoms: C_6  and  C_7 
REMARK    3  A    between atoms: C_7  and  N_8 
REMARK    4  A    between atoms: N_11  and  C_12 
REMARK    5  A    between atoms: C_12  and  C_13 
REMARK    6  A    between atoms: C_28  and  C_29 
REMARK       I    between atoms: C_29  and  N_30 
REMARK    7  A    between atoms: N_30  and  C_31 
ROOT
HETATM    1  N   UNL     1      41.684 -14.423   2.822  1.00  0.00    -0.290 N 
HETATM    2  C   UNL     1      41.862 -14.558   1.448  1.00  0.00     0.332 C 
HETATM    3  O   UNL     1      42.570 -15.469   1.005  1.00  0.00    -0.246 OA
HETATM    4  N   UNL     1      41.263 -13.612   0.630  1.00  0.00    -0.261 N 
HETATM    5  C   UNL     1      40.613 -12.490   1.125  1.00  0.00     0.264 C 
HETATM    6  O   UNL     1      40.415 -11.459   0.488  1.00  0.00    -0.267 OA
HETATM    7  C   UNL     1      40.213 -12.525   2.538  1.00  0.00     0.059 A 
HETATM    8  C   UNL     1      40.785 -13.476   3.380  1.00  0.00     0.056 A 
HETATM    9  C   UNL     1      39.353 -11.541   3.034  1.00  0.00     0.020 A 
HETATM   10  C   UNL     1      39.089 -11.479   4.399  1.00  0.00     0.018 A 
HETATM   11  C   UNL     1      39.671 -12.402   5.279  1.00  0.00     0.034 A 
HETATM   12  C   UNL     1      40.485 -13.424   4.755  1.00  0.00     0.048 A 
ENDROOT
BRANCH   1  13
HETATM   13  C   UNL     1      42.596 -15.184   3.682  1.00  0.00     0.237 C 
BRANCH  13  14
HETATM   14  C   UNL     1      42.489 -16.704   3.548  1.00  0.00     0.240 C 
HETATM   15  N   UNL     1      43.704 -17.301   3.259  1.00  0.00    -0.325 N 
HETATM   16  H   UNL     1      44.436 -16.671   2.930  1.00  0.00     0.169 HD
HETATM   17  O   UNL     1      41.409 -17.266   3.715  1.00  0.00    -0.271 OA
BRANCH  15  18
HETATM   18  C   UNL     1      44.056 -18.662   3.388  1.00  0.00     0.041 A 
HETATM   19  C   UNL     1      43.928 -19.564   2.322  1.00  0.00     0.037 A 
HETATM   20  C   UNL     1      44.182 -20.933   2.492  1.00  0.00    -0.060 A 
HETATM   21  C   UNL     1      43.971 -21.901   1.364  1.00  0.00     0.048 C 
HETATM   22  C   UNL     1      44.573 -21.403   3.747  1.00  0.00     0.007 A 
HETATM   23  C   UNL     1      44.721 -20.515   4.812  1.00  0.00     0.009 A 
HETATM   24  C   UNL     1      44.468 -19.143   4.649  1.00  0.00    -0.035 A 
HETATM   25  C   UNL     1      44.639 -18.239   5.840  1.00  0.00     0.050 C 
ENDBRANCH  15  18
ENDBRANCH  13  14
ENDBRANCH   1  13
BRANCH   4  26
HETATM   26  C   UNL     1      41.692 -13.568  -0.766  1.00  0.00     0.175 C 
BRANCH  26  27
HETATM   27  C   UNL     1      40.726 -14.192  -1.751  1.00  0.00    -0.037 A 
HETATM   28  C   UNL     1      39.556 -13.520  -2.134  1.00  0.00     0.048 A 
HETATM   29  C   UNL     1      38.690 -14.167  -2.994  1.00  0.00     0.105 A 
HETATM   30  C   UNL     1      38.953 -15.425  -3.483  1.00  0.00     0.105 A 
HETATM   31  O   UNL     1      37.505 -13.676  -3.447  1.00  0.00    -0.323 OA
HETATM   32  O   UNL     1      37.971 -15.883  -4.304  1.00  0.00    -0.323 OA
HETATM   33  C   UNL     1      40.095 -16.110  -3.144  1.00  0.00     0.040 A 
HETATM   34  C   UNL     1      37.047 -14.777  -4.261  1.00  0.00     0.352 A 
HETATM   35  C   UNL     1      40.985 -15.486  -2.268  1.00  0.00     0.012 A 
ENDBRANCH  26  27
ENDBRANCH   4  26
BRANCH  11  36
HETATM   36  C   UNL     1      39.471 -12.156   6.743  1.00  0.00     0.252 C 
HETATM   37  N   UNL     1      39.862 -10.938   7.264  1.00  0.00    -0.352 N 
HETATM   38  H   UNL     1      40.299 -10.247   6.677  1.00  0.00     0.163 HD
HETATM   39  O   UNL     1      38.900 -13.007   7.420  1.00  0.00    -0.268 OA
BRANCH  37  40
HETATM   40  C   UNL     1      39.287 -10.452   8.519  1.00  0.00     0.084 C 
HETATM   41  C   UNL     1      40.079 -10.954   9.730  1.00  0.00     0.025 C 
HETATM   42  C   UNL     1      41.447 -10.289   9.869  1.00  0.00     0.002 C 
HETATM   43  C   UNL     1      41.346  -8.767   9.845  1.00  0.00     0.000 C 
HETATM   44  C   UNL     1      40.595  -8.268   8.615  1.00  0.00     0.002 C 
HETATM   45  C   UNL     1      39.215  -8.916   8.499  1.00  0.00     0.025 C 
ENDBRANCH  37  40
ENDBRANCH  11  36
TORSDOF 7
ENDMDL
MODEL 2
REMARK VINA RESULT:     -10.4      1.815      2.544
REMARK  7 active torsions:
REMARK  status: ('A' for Active; 'I' for Inactive)
REMARK    1  A    between atoms: C_4  and  N_5 
REMARK       I    between atoms: N_5  and  C_6 
REMARK    2  A    between atoms: C_6  and  C_7 
REMARK    3  A    between atoms: C_7  and  N_8 
REMARK    4  A    between atoms: N_11  and  C_12 
REMARK    5  A    between atoms: C_12  and  C_13 
REMARK    6  A    between atoms: C_28  and  C_29 
REMARK       I    between atoms: C_29  and  N_30 
REMARK    7  A    between atoms: N_30  and  C_31 
ROOT
HETATM    1  N   UNL     1      40.343 -14.353   5.046  1.00  0.00    -0.290 N 
HETATM    2  C   UNL     1      40.560 -14.649   3.703  1.00  0.00     0.332 C 
HETATM    3  O   UNL     1      40.640 -15.826   3.337  1.00  0.00    -0.246 OA
HETATM    4  N   UNL     1      40.729 -13.583   2.833  1.00  0.00    -0.261 N 
HETATM    5  C   UNL     1      40.813 -12.265   3.262  1.00  0.00     0.264 C 
HETATM    6  O   UNL     1      41.334 -11.355   2.623  1.00  0.00    -0.267 OA
HETATM    7  C   UNL     1      40.314 -11.975   4.612  1.00  0.00     0.059 A 
HETATM    8  C   UNL     1      40.119 -13.028   5.503  1.00  0.00     0.056 A 
HETATM    9  C   UNL     1      40.150 -10.645   5.014  1.00  0.00     0.020 A 
HETATM   10  C   UNL     1      39.822 -10.358   6.335  1.00  0.00     0.018 A 
HETATM   11  C   UNL     1      39.646 -11.394   7.265  1.00  0.00     0.034 A 
HETATM   12  C   UNL     1      39.755 -12.727   6.830  1.00  0.00     0.048 A 
ENDROOT
BRANCH   1  13
HETATM   13  C   UNL     1      40.528 -15.451   6.000  1.00  0.00     0.237 C 
BRANCH  13  14
HETATM   14  C   UNL     1      41.886 -16.149   5.923  1.00  0.00     0.240 C 
HETATM   15  N   UNL     1      41.778 -17.493   5.608  1.00  0.00    -0.325 N 
HETATM   16  H   UNL     1      40.847 -17.897   5.715  1.00  0.00     0.169 HD
HETATM   17  O   UNL     1      42.921 -15.514   6.110  1.00  0.00    -0.271 OA
BRANCH  15  18
HETATM   18  C   UNL     1      42.789 -18.359   5.136  1.00  0.00     0.041 A 
HETATM   19  C   UNL     1      42.928 -18.661   3.774  1.00  0.00     0.037 A 
HETATM   20  C   UNL     1      43.868 -19.603   3.328  1.00  0.00    -0.060 A 
HETATM   21  C   UNL     1      43.958 -19.974   1.877  1.00  0.00     0.048 C 
HETATM   22  C   UNL     1      44.682 -20.246   4.262  1.00  0.00     0.007 A 
HETATM   23  C   UNL     1      44.567 -19.942   5.618  1.00  0.00     0.009 A 
HETATM   24  C   UNL     1      43.628 -19.001   6.071  1.00  0.00    -0.035 A 
HETATM   25  C   UNL     1      43.549 -18.725   7.548  1.00  0.00     0.050 C 
ENDBRANCH  15  18
ENDBRANCH  13  14
ENDBRANCH   1  13
BRANCH   4  26
HETATM   26  C   UNL     1      41.255 -13.883   1.503  1.00  0.00     0.175 C 
BRANCH  26  27
HETATM   27  C   UNL     1      40.212 -13.973   0.409  1.00  0.00    -0.037 A 
HETATM   28  C   UNL     1      40.565 -14.368  -0.890  1.00  0.00     0.048 A 
HETATM   29  C   UNL     1      39.577 -14.377  -1.855  1.00  0.00     0.105 A 
HETATM   30  C   UNL     1      38.278 -14.026  -1.571  1.00  0.00     0.105 A 
HETATM   31  O   UNL     1      39.747 -14.706  -3.164  1.00  0.00    -0.323 OA
HETATM   32  O   UNL     1      37.468 -14.093  -2.661  1.00  0.00    -0.323 OA
HETATM   33  C   UNL     1      37.888 -13.649  -0.308  1.00  0.00     0.040 A 
HETATM   34  C   UNL     1      38.410 -14.507  -3.671  1.00  0.00     0.352 A 
HETATM   35  C   UNL     1      38.867 -13.620   0.687  1.00  0.00     0.012 A 
ENDBRANCH  26  27
ENDBRANCH   4  26
BRANCH  11  36
HETATM   36  C   UNL     1      39.467 -10.990   8.696  1.00  0.00     0.252 C 
HETATM   37  N   UNL     1      40.576 -10.974   9.519  1.00  0.00    -0.352 N 
HETATM   38  H   UNL     1      41.477 -11.258   9.170  1.00  0.00     0.163 HD
HETATM   39  O   UNL     1      38.362 -10.613   9.077  1.00  0.00    -0.268 OA
BRANCH  37  40
HETATM   40  C   UNL     1      40.582 -10.167  10.739  1.00  0.00     0.084 C 
HETATM   41  C   UNL     1      40.691 -11.043  11.991  1.00  0.00     0.025 C 
HETATM   42  C   UNL     1      42.073 -11.670  12.164  1.00  0.00     0.002 C 
HETATM   43  C   UNL     1      43.185 -10.627  12.099  1.00  0.00     0.000 C 
HETATM   44  C   UNL     1      43.099  -9.786  10.829  1.00  0.00     0.002 C 
HETATM   45  C   UNL     1      41.722  -9.137  10.679  1.00  0.00     0.025 C 
ENDBRANCH  37  40
ENDBRANCH  11  36
TORSDOF 7
ENDMDL
MODEL 3
REMARK VINA RESULT:     -10.4      2.171      8.974
REMARK  7 active torsions:
REMARK  status: ('A' for Active; 'I' for Inactive)
REMARK    1  A    between atoms: C_4  and  N_5 
REMARK       I    between atoms: N_5  and  C_6 
REMARK    2  A    between atoms: C_6  and  C_7 
REMARK    3  A    between atoms: C_7  and  N_8 
REMARK    4  A    between atoms: N_11  and  C_12 
REMARK    5  A    between atoms: C_12  and  C_13 
REMARK    6  A    between atoms: C_28  and  C_29 
REMARK       I    between atoms: C_29  and  N_30 
REMARK    7  A    between atoms: N_30  and  C_31 
ROOT
HETATM    1  N   UNL     1      40.423 -13.220   4.291  1.00  0.00    -0.290 N 
HETATM    2  C   UNL     1      40.118 -12.738   5.561  1.00  0.00     0.332 C 
HETATM    3  O   UNL     1      39.907 -13.529   6.486  1.00  0.00    -0.246 OA
HETATM    4  N   UNL     1      40.015 -11.364   5.715  1.00  0.00    -0.261 N 
HETATM    5  C   UNL     1      40.079 -10.478   4.648  1.00  0.00     0.264 C 
HETATM    6  O   UNL     1      39.622  -9.339   4.657  1.00  0.00    -0.267 OA
HETATM    7  C   UNL     1      40.665 -10.985   3.400  1.00  0.00     0.059 A 
HETATM    8  C   UNL     1      40.797 -12.361   3.224  1.00  0.00     0.056 A 
HETATM    9  C   UNL     1      40.976 -10.090   2.372  1.00  0.00     0.020 A 
HETATM   10  C   UNL     1      41.390 -10.574   1.136  1.00  0.00     0.018 A 
HETATM   11  C   UNL     1      41.506 -11.955   0.915  1.00  0.00     0.034 A 
HETATM   12  C   UNL     1      41.248 -12.839   1.979  1.00  0.00     0.048 A 
ENDROOT
BRANCH   1  13
HETATM   13  C   UNL     1      40.176 -14.645   4.051  1.00  0.00     0.237 C 
BRANCH  13  14
HETATM   14  C   UNL     1      41.407 -15.543   4.177  1.00  0.00     0.240 C 
HETATM   15  N   UNL     1      41.227 -16.781   3.585  1.00  0.00    -0.325 N 
HETATM   16  H   UNL     1      40.260 -17.032   3.374  1.00  0.00     0.169 HD
HETATM   17  O   UNL     1      42.419 -15.131   4.739  1.00  0.00    -0.271 OA
BRANCH  15  18
HETATM   18  C   UNL     1      42.216 -17.720   3.216  1.00  0.00     0.041 A 
HETATM   19  C   UNL     1      42.887 -18.499   4.170  1.00  0.00     0.037 A 
HETATM   20  C   UNL     1      43.939 -19.352   3.802  1.00  0.00    -0.060 A 
HETATM   21  C   UNL     1      44.701 -20.126   4.839  1.00  0.00     0.048 C 
HETATM   22  C   UNL     1      44.318 -19.428   2.461  1.00  0.00     0.007 A 
HETATM   23  C   UNL     1      43.647 -18.672   1.500  1.00  0.00     0.009 A 
HETATM   24  C   UNL     1      42.594 -17.816   1.861  1.00  0.00    -0.035 A 
HETATM   25  C   UNL     1      41.916 -17.022   0.776  1.00  0.00     0.050 C 
ENDBRANCH  15  18
ENDBRANCH  13  14
ENDBRANCH   1  13
BRANCH   4  26
HETATM   26  C   UNL     1      39.402 -10.874   6.947  1.00  0.00     0.175 C 
BRANCH  26  27
HETATM   27  C   UNL     1      40.333 -10.804   8.140  1.00  0.00    -0.037 A 
HETATM   28  C   UNL     1      41.715 -10.638   7.964  1.00  0.00     0.048 A 
HETATM   29  C   UNL     1      42.515 -10.638   9.091  1.00  0.00     0.105 A 
HETATM   30  C   UNL     1      41.993 -10.780  10.355  1.00  0.00     0.105 A 
HETATM   31  O   UNL     1      43.870 -10.514   9.104  1.00  0.00    -0.323 OA
HETATM   32  O   UNL     1      42.950 -10.762  11.321  1.00  0.00    -0.323 OA
HETATM   33  C   UNL     1      40.644 -10.930  10.570  1.00  0.00     0.040 A 
HETATM   34  C   UNL     1      44.139 -10.612  10.519  1.00  0.00     0.352 A 
HETATM   35  C   UNL     1      39.811 -10.945   9.451  1.00  0.00     0.012 A 
ENDBRANCH  26  27
ENDBRANCH   4  26
BRANCH  11  36
HETATM   36  C   UNL     1      41.789 -12.390  -0.489  1.00  0.00     0.252 C 
HETATM   37  N   UNL     1      40.786 -13.026  -1.195  1.00  0.00    -0.352 N 
HETATM   38  H   UNL     1      39.897 -13.216  -0.763  1.00  0.00     0.163 HD
HETATM   39  O   UNL     1      42.871 -12.106  -0.998  1.00  0.00    -0.268 OA
BRANCH  37  40
HETATM   40  C   UNL     1      40.810 -13.048  -2.658  1.00  0.00     0.084 C 
HETATM   41  C   UNL     1      41.602 -14.247  -3.187  1.00  0.00     0.025 C 
HETATM   42  C   UNL     1      40.880 -15.579  -2.983  1.00  0.00     0.002 C 
HETATM   43  C   UNL     1      39.457 -15.546  -3.532  1.00  0.00     0.000 C 
HETATM   44  C   UNL     1      38.659 -14.375  -2.969  1.00  0.00     0.002 C 
HETATM   45  C   UNL     1      39.374 -13.043  -3.205  1.00  0.00     0.025 C 
ENDBRANCH  37  40
ENDBRANCH  11  36
TORSDOF 7
ENDMDL
MODEL 4
REMARK VINA RESULT:     -10.3      1.995      8.729
REMARK  7 active torsions:
REMARK  status: ('A' for Active; 'I' for Inactive)
REMARK    1  A    between atoms: C_4  and  N_5 
REMARK       I    between atoms: N_5  and  C_6 
REMARK    2  A    between atoms: C_6  and  C_7 
REMARK    3  A    between atoms: C_7  and  N_8 
REMARK    4  A    between atoms: N_11  and  C_12 
REMARK    5  A    between atoms: C_12  and  C_13 
REMARK    6  A    between atoms: C_28  and  C_29 
REMARK       I    between atoms: C_29  and  N_30 
REMARK    7  A    between atoms: N_30  and  C_31 
ROOT
HETATM    1  N   UNL     1      40.805 -14.087   3.719  1.00  0.00    -0.290 N 
HETATM    2  C   UNL     1      40.372 -13.795   5.010  1.00  0.00     0.332 C 
HETATM    3  O   UNL     1      40.297 -14.695   5.853  1.00  0.00    -0.246 OA
HETATM    4  N   UNL     1      39.989 -12.489   5.275  1.00  0.00    -0.261 N 
HETATM    5  C   UNL     1      39.905 -11.513   4.292  1.00  0.00     0.264 C 
HETATM    6  O   UNL     1      39.227 -10.493   4.376  1.00  0.00    -0.267 OA
HETATM    7  C   UNL     1      40.617 -11.776   3.034  1.00  0.00     0.059 A 
HETATM    8  C   UNL     1      41.029 -13.076   2.749  1.00  0.00     0.056 A 
HETATM    9  C   UNL     1      40.772 -10.745   2.103  1.00  0.00     0.020 A 
HETATM   10  C   UNL     1      41.311 -11.021   0.850  1.00  0.00     0.018 A 
HETATM   11  C   UNL     1      41.710 -12.324   0.519  1.00  0.00     0.034 A 
HETATM   12  C   UNL     1      41.604 -13.337   1.490  1.00  0.00     0.048 A 
ENDROOT
BRANCH   1  13
HETATM   13  C   UNL     1      40.857 -15.504   3.348  1.00  0.00     0.237 C 
BRANCH  13  14
HETATM   14  C   UNL     1      42.216 -16.175   3.554  1.00  0.00     0.240 C 
HETATM   15  N   UNL     1      42.104 -17.506   3.917  1.00  0.00    -0.325 N 
HETATM   16  H   UNL     1      41.181 -17.798   4.241  1.00  0.00     0.169 HD
HETATM   17  O   UNL     1      43.253 -15.542   3.375  1.00  0.00    -0.271 OA
BRANCH  15  18
HETATM   18  C   UNL     1      43.099 -18.507   3.869  1.00  0.00     0.041 A 
HETATM   19  C   UNL     1      43.193 -19.407   2.798  1.00  0.00     0.037 A 
HETATM   20  C   UNL     1      44.119 -20.461   2.811  1.00  0.00    -0.060 A 
HETATM   21  C   UNL     1      44.161 -21.463   1.694  1.00  0.00     0.048 C 
HETATM   22  C   UNL     1      44.964 -20.611   3.911  1.00  0.00     0.007 A 
HETATM   23  C   UNL     1      44.895 -19.713   4.975  1.00  0.00     0.009 A 
HETATM   24  C   UNL     1      43.969 -18.656   4.969  1.00  0.00    -0.035 A 
HETATM   25  C   UNL     1      43.940 -17.726   6.153  1.00  0.00     0.050 C 
ENDBRANCH  15  18
ENDBRANCH  13  14
ENDBRANCH   1  13
BRANCH   4  26
HETATM   26  C   UNL     1      39.255 -12.247   6.515  1.00  0.00     0.175 C 
BRANCH  26  27
HETATM   27  C   UNL     1      40.044 -11.544   7.599  1.00  0.00    -0.037 A 
HETATM   28  C   UNL     1      39.460 -11.256   8.842  1.00  0.00     0.048 A 
HETATM   29  C   UNL     1      40.217 -10.564   9.767  1.00  0.00     0.105 A 
HETATM   30  C   UNL     1      41.508 -10.170   9.505  1.00  0.00     0.105 A 
HETATM   31  O   UNL     1      39.804 -10.182  11.006  1.00  0.00    -0.323 OA
HETATM   32  O   UNL     1      42.070  -9.495  10.543  1.00  0.00    -0.323 OA
HETATM   33  C   UNL     1      42.121 -10.446   8.306  1.00  0.00     0.040 A 
HETATM   34  C   UNL     1      40.977  -9.490  11.484  1.00  0.00     0.352 A 
HETATM   35  C   UNL     1      41.378 -11.135   7.346  1.00  0.00     0.012 A 
ENDBRANCH  26  27
ENDBRANCH   4  26
BRANCH  11  36
HETATM   36  C   UNL     1      42.116 -12.563  -0.902  1.00  0.00     0.252 C 
HETATM   37  N   UNL     1      41.656 -13.702  -1.535  1.00  0.00    -0.352 N 
HETATM   38  H   UNL     1      41.087 -14.368  -1.040  1.00  0.00     0.163 HD
HETATM   39  O   UNL     1      42.779 -11.710  -1.487  1.00  0.00    -0.268 OA
BRANCH  37  40
HETATM   40  C   UNL     1      41.604 -13.767  -2.996  1.00  0.00     0.084 C 
HETATM   41  C   UNL     1      41.527 -15.215  -3.490  1.00  0.00     0.025 C 
HETATM   42  C   UNL     1      40.174 -15.870  -3.216  1.00  0.00     0.002 C 
HETATM   43  C   UNL     1      39.015 -15.025  -3.738  1.00  0.00     0.000 C 
HETATM   44  C   UNL     1      39.072 -13.596  -3.209  1.00  0.00     0.002 C 
HETATM   45  C   UNL     1      40.418 -12.937  -3.514  1.00  0.00     0.025 C 
ENDBRANCH  37  40
ENDBRANCH  11  36
TORSDOF 7
ENDMDL
MODEL 5
REMARK VINA RESULT:     -10.1      1.299      2.136
REMARK  7 active torsions:
REMARK  status: ('A' for Active; 'I' for Inactive)
REMARK    1  A    between atoms: C_4  and  N_5 
REMARK       I    between atoms: N_5  and  C_6 
REMARK    2  A    between atoms: C_6  and  C_7 
REMARK    3  A    between atoms: C_7  and  N_8 
REMARK    4  A    between atoms: N_11  and  C_12 
REMARK    5  A    between atoms: C_12  and  C_13 
REMARK    6  A    between atoms: C_28  and  C_29 
REMARK       I    between atoms: C_29  and  N_30 
REMARK    7  A    between atoms: N_30  and  C_31 
ROOT
HETATM    1  N   UNL     1      41.781 -13.687   3.878  1.00  0.00    -0.290 N 
HETATM    2  C   UNL     1      42.006 -13.640   2.505  1.00  0.00     0.332 C 
HETATM    3  O   UNL     1      42.657 -14.535   1.957  1.00  0.00    -0.246 OA
HETATM    4  N   UNL     1      41.519 -12.540   1.815  1.00  0.00    -0.261 N 
HETATM    5  C   UNL     1      40.939 -11.449   2.447  1.00  0.00     0.264 C 
HETATM    6  O   UNL     1      40.851 -10.325   1.961  1.00  0.00    -0.267 OA
HETATM    7  C   UNL     1      40.478 -11.651   3.828  1.00  0.00     0.059 A 
HETATM    8  C   UNL     1      40.937 -12.756   4.540  1.00  0.00     0.056 A 
HETATM    9  C   UNL     1      39.679 -10.677   4.435  1.00  0.00     0.020 A 
HETATM   10  C   UNL     1      39.363 -10.788   5.785  1.00  0.00     0.018 A 
HETATM   11  C   UNL     1      39.833 -11.873   6.540  1.00  0.00     0.034 A 
HETATM   12  C   UNL     1      40.584 -12.875   5.898  1.00  0.00     0.048 A 
ENDROOT
BRANCH   1  13
HETATM   13  C   UNL     1      42.592 -14.637   4.645  1.00  0.00     0.237 C 
BRANCH  13  14
HETATM   14  C   UNL     1      42.354 -16.108   4.306  1.00  0.00     0.240 C 
HETATM   15  N   UNL     1      43.452 -16.703   3.708  1.00  0.00    -0.325 N 
HETATM   16  H   UNL     1      44.157 -16.060   3.346  1.00  0.00     0.169 HD
HETATM   17  O   UNL     1      41.284 -16.643   4.586  1.00  0.00    -0.271 OA
BRANCH  15  18
HETATM   18  C   UNL     1      43.722 -18.082   3.562  1.00  0.00     0.041 A 
HETATM   19  C   UNL     1      43.929 -18.916   4.670  1.00  0.00     0.037 A 
HETATM   20  C   UNL     1      44.299 -20.260   4.510  1.00  0.00    -0.060 A 
HETATM   21  C   UNL     1      44.591 -21.125   5.701  1.00  0.00     0.048 C 
HETATM   22  C   UNL     1      44.459 -20.773   3.222  1.00  0.00     0.007 A 
HETATM   23  C   UNL     1      44.239 -19.960   2.111  1.00  0.00     0.009 A 
HETATM   24  C   UNL     1      43.869 -18.613   2.264  1.00  0.00    -0.035 A 
HETATM   25  C   UNL     1      43.654 -17.787   1.024  1.00  0.00     0.050 C 
ENDBRANCH  15  18
ENDBRANCH  13  14
ENDBRANCH   1  13
BRANCH   4  26
HETATM   26  C   UNL     1      42.009 -12.335   0.454  1.00  0.00     0.175 C 
BRANCH  26  27
HETATM   27  C   UNL     1      41.134 -12.918  -0.635  1.00  0.00    -0.037 A 
HETATM   28  C   UNL     1      41.384 -14.199  -1.150  1.00  0.00     0.048 A 
HETATM   29  C   UNL     1      40.583 -14.651  -2.181  1.00  0.00     0.105 A 
HETATM   30  C   UNL     1      39.558 -13.891  -2.693  1.00  0.00     0.105 A 
HETATM   31  O   UNL     1      40.699 -15.850  -2.812  1.00  0.00    -0.323 OA
HETATM   32  O   UNL     1      38.900 -14.515  -3.707  1.00  0.00    -0.323 OA
HETATM   33  C   UNL     1      39.270 -12.638  -2.206  1.00  0.00     0.040 A 
HETATM   34  C   UNL     1      39.642 -15.749  -3.789  1.00  0.00     0.352 A 
HETATM   35  C   UNL     1      40.069 -12.150  -1.171  1.00  0.00     0.012 A 
ENDBRANCH  26  27
ENDBRANCH   4  26
BRANCH  11  36
HETATM   36  C   UNL     1      39.591 -11.821   8.017  1.00  0.00     0.252 C 
HETATM   37  N   UNL     1      40.397 -11.006   8.787  1.00  0.00    -0.352 N 
HETATM   38  H   UNL     1      41.148 -10.483   8.366  1.00  0.00     0.163 HD
HETATM   39  O   UNL     1      38.642 -12.441   8.490  1.00  0.00    -0.268 OA
BRANCH  37  40
HETATM   40  C   UNL     1      39.943 -10.542  10.099  1.00  0.00     0.084 C 
HETATM   41  C   UNL     1      40.840 -11.073  11.221  1.00  0.00     0.025 C 
HETATM   42  C   UNL     1      42.219 -10.417  11.247  1.00  0.00     0.002 C 
HETATM   43  C   UNL     1      42.126  -8.894  11.263  1.00  0.00     0.000 C 
HETATM   44  C   UNL     1      41.268  -8.367  10.117  1.00  0.00     0.002 C 
HETATM   45  C   UNL     1      39.879  -9.007  10.116  1.00  0.00     0.025 C 
ENDBRANCH  37  40
ENDBRANCH  11  36
TORSDOF 7
ENDMDL
MODEL 6
REMARK VINA RESULT:     -10.1      3.198      8.131
REMARK  7 active torsions:
REMARK  status: ('A' for Active; 'I' for Inactive)
REMARK    1  A    between atoms: C_4  and  N_5 
REMARK       I    between atoms: N_5  and  C_6 
REMARK    2  A    between atoms: C_6  and  C_7 
REMARK    3  A    between atoms: C_7  and  N_8 
REMARK    4  A    between atoms: N_11  and  C_12 
REMARK    5  A    between atoms: C_12  and  C_13 
REMARK    6  A    between atoms: C_28  and  C_29 
REMARK       I    between atoms: C_29  and  N_30 
REMARK    7  A    between atoms: N_30  and  C_31 
ROOT
HETATM    1  N   UNL     1      40.412 -15.911   2.858  1.00  0.00    -0.290 N 
HETATM    2  C   UNL     1      39.484 -14.878   2.756  1.00  0.00     0.332 C 
HETATM    3  O   UNL     1      38.632 -14.903   1.862  1.00  0.00    -0.246 OA
HETATM    4  N   UNL     1      39.597 -13.825   3.651  1.00  0.00    -0.261 N 
HETATM    5  C   UNL     1      40.653 -13.704   4.543  1.00  0.00     0.264 C 
HETATM    6  O   UNL     1      41.012 -12.652   5.063  1.00  0.00    -0.267 OA
HETATM    7  C   UNL     1      41.438 -14.917   4.809  1.00  0.00     0.059 A 
HETATM    8  C   UNL     1      41.332 -15.998   3.937  1.00  0.00     0.056 A 
HETATM    9  C   UNL     1      42.355 -14.926   5.865  1.00  0.00     0.020 A 
HETATM   10  C   UNL     1      43.207 -16.013   6.032  1.00  0.00     0.018 A 
HETATM   11  C   UNL     1      43.146 -17.105   5.153  1.00  0.00     0.034 A 
HETATM   12  C   UNL     1      42.177 -17.107   4.134  1.00  0.00     0.048 A 
ENDROOT
BRANCH   1  13
HETATM   13  C   UNL     1      40.518 -16.816   1.711  1.00  0.00     0.237 C 
BRANCH  13  14
HETATM   14  C   UNL     1      41.410 -16.315   0.574  1.00  0.00     0.240 C 
HETATM   15  N   UNL     1      40.728 -15.517  -0.328  1.00  0.00    -0.325 N 
HETATM   16  H   UNL     1      39.710 -15.567  -0.277  1.00  0.00     0.169 HD
HETATM   17  O   UNL     1      42.602 -16.612   0.545  1.00  0.00    -0.271 OA
BRANCH  15  18
HETATM   18  C   UNL     1      41.267 -14.630  -1.286  1.00  0.00     0.041 A 
HETATM   19  C   UNL     1      42.043 -13.523  -0.914  1.00  0.00     0.037 A 
HETATM   20  C   UNL     1      42.486 -12.592  -1.866  1.00  0.00    -0.060 A 
HETATM   21  C   UNL     1      43.252 -11.370  -1.449  1.00  0.00     0.048 C 
HETATM   22  C   UNL     1      42.149 -12.777  -3.207  1.00  0.00     0.007 A 
HETATM   23  C   UNL     1      41.393 -13.883  -3.594  1.00  0.00     0.009 A 
HETATM   24  C   UNL     1      40.946 -14.819  -2.646  1.00  0.00    -0.035 A 
HETATM   25  C   UNL     1      40.127 -15.987  -3.127  1.00  0.00     0.050 C 
ENDBRANCH  15  18
ENDBRANCH  13  14
ENDBRANCH   1  13
BRANCH   4  26
HETATM   26  C   UNL     1      38.835 -12.614   3.358  1.00  0.00     0.175 C 
BRANCH  26  27
HETATM   27  C   UNL     1      39.395 -11.762   2.238  1.00  0.00    -0.037 A 
HETATM   28  C   UNL     1      40.282 -10.710   2.510  1.00  0.00     0.048 A 
HETATM   29  C   UNL     1      40.713  -9.935   1.451  1.00  0.00     0.105 A 
HETATM   30  C   UNL     1      40.308 -10.179   0.159  1.00  0.00     0.105 A 
HETATM   31  O   UNL     1      41.550  -8.867   1.535  1.00  0.00    -0.323 OA
HETATM   32  O   UNL     1      40.839  -9.297  -0.730  1.00  0.00    -0.323 OA
HETATM   33  C   UNL     1      39.452 -11.208  -0.151  1.00  0.00     0.040 A 
HETATM   34  C   UNL     1      41.610  -8.457   0.152  1.00  0.00     0.352 A 
HETATM   35  C   UNL     1      38.991 -12.002   0.900  1.00  0.00     0.012 A 
ENDBRANCH  26  27
ENDBRANCH   4  26
BRANCH  11  36
HETATM   36  C   UNL     1      44.211 -18.148   5.301  1.00  0.00     0.252 C 
HETATM   37  N   UNL     1      44.092 -19.317   4.575  1.00  0.00    -0.352 N 
HETATM   38  H   UNL     1      43.291 -19.473   3.984  1.00  0.00     0.163 HD
HETATM   39  O   UNL     1      45.192 -17.906   6.000  1.00  0.00    -0.268 OA
BRANCH  37  40
HETATM   40  C   UNL     1      45.270 -20.140   4.298  1.00  0.00     0.084 C 
HETATM   41  C   UNL     1      45.204 -21.479   5.038  1.00  0.00     0.025 C 
HETATM   42  C   UNL     1      44.159 -22.432   4.461  1.00  0.00     0.002 C 
HETATM   43  C   UNL     1      44.327 -22.619   2.957  1.00  0.00     0.000 C 
HETATM   44  C   UNL     1      44.347 -21.285   2.218  1.00  0.00     0.002 C 
HETATM   45  C   UNL     1      45.417 -20.348   2.782  1.00  0.00     0.025 C 
ENDBRANCH  37  40
ENDBRANCH  11  36
TORSDOF 7
ENDMDL
MODEL 7
REMARK VINA RESULT:     -10.1      2.709      3.654
REMARK  7 active torsions:
REMARK  status: ('A' for Active; 'I' for Inactive)
REMARK    1  A    between atoms: C_4  and  N_5 
REMARK       I    between atoms: N_5  and  C_6 
REMARK    2  A    between atoms: C_6  and  C_7 
REMARK    3  A    between atoms: C_7  and  N_8 
REMARK    4  A    between atoms: N_11  and  C_12 
REMARK    5  A    between atoms: C_12  and  C_13 
REMARK    6  A    between atoms: C_28  and  C_29 
REMARK       I    between atoms: C_29  and  N_30 
REMARK    7  A    between atoms: N_30  and  C_31 
ROOT
HETATM    1  N   UNL     1      41.929 -15.547   3.170  1.00  0.00    -0.290 N 
HETATM    2  C   UNL     1      40.799 -15.682   2.369  1.00  0.00     0.332 C 
HETATM    3  O   UNL     1      40.768 -16.551   1.491  1.00  0.00    -0.246 OA
HETATM    4  N   UNL     1      39.762 -14.783   2.567  1.00  0.00    -0.261 N 
HETATM    5  C   UNL     1      39.859 -13.700   3.430  1.00  0.00     0.264 C 
HETATM    6  O   UNL     1      39.166 -12.689   3.362  1.00  0.00    -0.267 OA
HETATM    7  C   UNL     1      40.927 -13.747   4.437  1.00  0.00     0.059 A 
HETATM    8  C   UNL     1      41.973 -14.653   4.273  1.00  0.00     0.056 A 
HETATM    9  C   UNL     1      40.933 -12.814   5.478  1.00  0.00     0.020 A 
HETATM   10  C   UNL     1      42.017 -12.756   6.348  1.00  0.00     0.018 A 
HETATM   11  C   UNL     1      43.100 -13.634   6.194  1.00  0.00     0.034 A 
HETATM   12  C   UNL     1      43.050 -14.607   5.179  1.00  0.00     0.048 A 
ENDROOT
BRANCH   1  13
HETATM   13  C   UNL     1      43.140 -16.242   2.724  1.00  0.00     0.237 C 
BRANCH  13  14
HETATM   14  C   UNL     1      43.236 -17.707   3.151  1.00  0.00     0.240 C 
HETATM   15  N   UNL     1      44.043 -17.888   4.260  1.00  0.00    -0.325 N 
HETATM   16  H   UNL     1      44.654 -17.104   4.492  1.00  0.00     0.169 HD
HETATM   17  O   UNL     1      42.614 -18.573   2.539  1.00  0.00    -0.271 OA
BRANCH  15  18
HETATM   18  C   UNL     1      44.105 -19.009   5.118  1.00  0.00     0.041 A 
HETATM   19  C   UNL     1      44.626 -20.238   4.691  1.00  0.00     0.037 A 
HETATM   20  C   UNL     1      44.587 -21.372   5.517  1.00  0.00    -0.060 A 
HETATM   21  C   UNL     1      45.080 -22.701   5.024  1.00  0.00     0.048 C 
HETATM   22  C   UNL     1      44.020 -21.268   6.789  1.00  0.00     0.007 A 
HETATM   23  C   UNL     1      43.514 -20.048   7.232  1.00  0.00     0.009 A 
HETATM   24  C   UNL     1      43.549 -18.909   6.411  1.00  0.00    -0.035 A 
HETATM   25  C   UNL     1      42.979 -17.623   6.946  1.00  0.00     0.050 C 
ENDBRANCH  15  18
ENDBRANCH  13  14
ENDBRANCH   1  13
BRANCH   4  26
HETATM   26  C   UNL     1      38.723 -14.725   1.543  1.00  0.00     0.175 C 
BRANCH  26  27
HETATM   27  C   UNL     1      39.083 -13.920   0.312  1.00  0.00    -0.037 A 
HETATM   28  C   UNL     1      40.011 -14.407  -0.621  1.00  0.00     0.048 A 
HETATM   29  C   UNL     1      40.337 -13.600  -1.693  1.00  0.00     0.105 A 
HETATM   30  C   UNL     1      39.772 -12.358  -1.868  1.00  0.00     0.105 A 
HETATM   31  O   UNL     1      41.230 -13.902  -2.673  1.00  0.00    -0.323 OA
HETATM   32  O   UNL     1      40.235 -11.724  -2.978  1.00  0.00    -0.323 OA
HETATM   33  C   UNL     1      38.848 -11.850  -0.985  1.00  0.00     0.040 A 
HETATM   34  C   UNL     1      41.173 -12.701  -3.473  1.00  0.00     0.352 A 
HETATM   35  C   UNL     1      38.506 -12.640   0.114  1.00  0.00     0.012 A 
ENDBRANCH  26  27
ENDBRANCH   4  26
BRANCH  11  36
HETATM   36  C   UNL     1      44.295 -13.388   7.062  1.00  0.00     0.252 C 
HETATM   37  N   UNL     1      44.145 -12.581   8.173  1.00  0.00    -0.352 N 
HETATM   38  H   UNL     1      43.260 -12.146   8.374  1.00  0.00     0.163 HD
HETATM   39  O   UNL     1      45.349 -13.966   6.809  1.00  0.00    -0.268 OA
BRANCH  37  40
HETATM   40  C   UNL     1      45.087 -12.676   9.290  1.00  0.00     0.084 C 
HETATM   41  C   UNL     1      45.895 -11.385   9.452  1.00  0.00     0.025 C 
HETATM   42  C   UNL     1      45.064 -10.222   9.994  1.00  0.00     0.002 C 
HETATM   43  C   UNL     1      44.325 -10.598  11.274  1.00  0.00     0.000 C 
HETATM   44  C   UNL     1      43.486 -11.859  11.095  1.00  0.00     0.002 C 
HETATM   45  C   UNL     1      44.331 -13.026  10.582  1.00  0.00     0.025 C 
ENDBRANCH  37  40
ENDBRANCH  11  36
TORSDOF 7
ENDMDL
MODEL 8
REMARK VINA RESULT:      -9.9      2.199      3.086
REMARK  7 active torsions:
REMARK  status: ('A' for Active; 'I' for Inactive)
REMARK    1  A    between atoms: C_4  and  N_5 
REMARK       I    between atoms: N_5  and  C_6 
REMARK    2  A    between atoms: C_6  and  C_7 
REMARK    3  A    between atoms: C_7  and  N_8 
REMARK    4  A    between atoms: N_11  and  C_12 
REMARK    5  A    between atoms: C_12  and  C_13 
REMARK    6  A    between atoms: C_28  and  C_29 
REMARK       I    between atoms: C_29  and  N_30 
REMARK    7  A    between atoms: N_30  and  C_31 
ROOT
HETATM    1  N   UNL     1      41.212 -14.350   4.280  1.00  0.00    -0.290 N 
HETATM    2  C   UNL     1      40.460 -14.962   3.280  1.00  0.00     0.332 C 
HETATM    3  O   UNL     1      40.792 -16.073   2.854  1.00  0.00    -0.246 OA
HETATM    4  N   UNL     1      39.384 -14.256   2.766  1.00  0.00    -0.261 N 
HETATM    5  C   UNL     1      39.109 -12.941   3.114  1.00  0.00     0.264 C 
HETATM    6  O   UNL     1      38.444 -12.162   2.437  1.00  0.00    -0.267 OA
HETATM    7  C   UNL     1      39.735 -12.436   4.344  1.00  0.00     0.059 A 
HETATM    8  C   UNL     1      40.808 -13.134   4.893  1.00  0.00     0.056 A 
HETATM    9  C   UNL     1      39.317 -11.213   4.877  1.00  0.00     0.020 A 
HETATM   10  C   UNL     1      40.004 -10.657   5.952  1.00  0.00     0.018 A 
HETATM   11  C   UNL     1      41.107 -11.319   6.510  1.00  0.00     0.034 A 
HETATM   12  C   UNL     1      41.476 -12.578   6.001  1.00  0.00     0.048 A 
ENDROOT
BRANCH   1  13
HETATM   13  C   UNL     1      42.532 -14.924   4.556  1.00  0.00     0.237 C 
BRANCH  13  14
HETATM   14  C   UNL     1      42.555 -16.447   4.695  1.00  0.00     0.240 C 
HETATM   15  N   UNL     1      43.407 -17.052   3.788  1.00  0.00    -0.325 N 
HETATM   16  H   UNL     1      43.703 -16.468   3.005  1.00  0.00     0.169 HD
HETATM   17  O   UNL     1      41.881 -17.000   5.560  1.00  0.00    -0.271 OA
BRANCH  15  18
HETATM   18  C   UNL     1      43.932 -18.363   3.828  1.00  0.00     0.041 A 
HETATM   19  C   UNL     1      43.693 -19.287   2.801  1.00  0.00     0.037 A 
HETATM   20  C   UNL     1      44.131 -20.616   2.902  1.00  0.00    -0.060 A 
HETATM   21  C   UNL     1      43.806 -21.617   1.831  1.00  0.00     0.048 C 
HETATM   22  C   UNL     1      44.820 -21.021   4.045  1.00  0.00     0.007 A 
HETATM   23  C   UNL     1      45.080 -20.109   5.067  1.00  0.00     0.009 A 
HETATM   24  C   UNL     1      44.644 -18.776   4.973  1.00  0.00    -0.035 A 
HETATM   25  C   UNL     1      44.950 -17.843   6.114  1.00  0.00     0.050 C 
ENDBRANCH  15  18
ENDBRANCH  13  14
ENDBRANCH   1  13
BRANCH   4  26
HETATM   26  C   UNL     1      38.790 -14.751   1.526  1.00  0.00     0.175 C 
BRANCH  26  27
HETATM   27  C   UNL     1      39.332 -14.120   0.261  1.00  0.00    -0.037 A 
HETATM   28  C   UNL     1      40.714 -14.027   0.039  1.00  0.00     0.048 A 
HETATM   29  C   UNL     1      41.144 -13.391  -1.110  1.00  0.00     0.105 A 
HETATM   30  C   UNL     1      40.262 -12.869  -2.026  1.00  0.00     0.105 A 
HETATM   31  O   UNL     1      42.440 -13.191  -1.471  1.00  0.00    -0.323 OA
HETATM   32  O   UNL     1      40.890 -12.277  -3.078  1.00  0.00    -0.323 OA
HETATM   33  C   UNL     1      38.901 -12.952  -1.853  1.00  0.00     0.040 A 
HETATM   34  C   UNL     1      42.271 -12.469  -2.709  1.00  0.00     0.352 A 
HETATM   35  C   UNL     1      38.436 -13.581  -0.697  1.00  0.00     0.012 A 
ENDBRANCH  26  27
ENDBRANCH   4  26
BRANCH  11  36
HETATM   36  C   UNL     1      41.888 -10.571   7.546  1.00  0.00     0.252 C 
HETATM   37  N   UNL     1      42.522 -11.291   8.539  1.00  0.00    -0.352 N 
HETATM   38  H   UNL     1      42.434 -12.294   8.580  1.00  0.00     0.163 HD
HETATM   39  O   UNL     1      42.006  -9.353   7.441  1.00  0.00    -0.268 OA
BRANCH  37  40
HETATM   40  C   UNL     1      43.650 -10.711   9.269  1.00  0.00     0.084 C 
HETATM   41  C   UNL     1      43.229 -10.233  10.662  1.00  0.00     0.025 C 
HETATM   42  C   UNL     1      42.940 -11.381  11.628  1.00  0.00     0.002 C 
HETATM   43  C   UNL     1      44.093 -12.378  11.691  1.00  0.00     0.000 C 
HETATM   44  C   UNL     1      44.480 -12.885  10.305  1.00  0.00     0.002 C 
HETATM   45  C   UNL     1      44.797 -11.731   9.353  1.00  0.00     0.025 C 
ENDBRANCH  37  40
ENDBRANCH  11  36
TORSDOF 7
ENDMDL
MODEL 9
REMARK VINA RESULT:      -9.9      2.576      8.403
REMARK  7 active torsions:
REMARK  status: ('A' for Active; 'I' for Inactive)
REMARK    1  A    between atoms: C_4  and  N_5 
REMARK       I    between atoms: N_5  and  C_6 
REMARK    2  A    between atoms: C_6  and  C_7 
REMARK    3  A    between atoms: C_7  and  N_8 
REMARK    4  A    between atoms: N_11  and  C_12 
REMARK    5  A    between atoms: C_12  and  C_13 
REMARK    6  A    between atoms: C_28  and  C_29 
REMARK       I    between atoms: C_29  and  N_30 
REMARK    7  A    between atoms: N_30  and  C_31 
ROOT
HETATM    1  N   UNL     1      40.345 -14.645   2.385  1.00  0.00    -0.290 N 
HETATM    2  C   UNL     1      40.192 -14.475   3.758  1.00  0.00     0.332 C 
HETATM    3  O   UNL     1      40.398 -15.423   4.523  1.00  0.00    -0.246 OA
HETATM    4  N   UNL     1      39.758 -13.236   4.204  1.00  0.00    -0.261 N 
HETATM    5  C   UNL     1      39.358 -12.222   3.344  1.00  0.00     0.264 C 
HETATM    6  O   UNL     1      38.624 -11.290   3.657  1.00  0.00    -0.267 OA
HETATM    7  C   UNL     1      39.786 -12.334   1.943  1.00  0.00     0.059 A 
HETATM    8  C   UNL     1      40.244 -13.563   1.472  1.00  0.00     0.056 A 
HETATM    9  C   UNL     1      39.625 -11.242   1.085  1.00  0.00     0.020 A 
HETATM   10  C   UNL     1      39.888 -11.387  -0.273  1.00  0.00     0.018 A 
HETATM   11  C   UNL     1      40.322 -12.618  -0.787  1.00  0.00     0.034 A 
HETATM   12  C   UNL     1      40.538 -13.689   0.100  1.00  0.00     0.048 A 
ENDROOT
BRANCH   1  13
HETATM   13  C   UNL     1      40.445 -16.025   1.900  1.00  0.00     0.237 C 
BRANCH  13  14
HETATM   14  C   UNL     1      41.845 -16.636   1.981  1.00  0.00     0.240 C 
HETATM   15  N   UNL     1      41.957 -17.579   2.988  1.00  0.00    -0.325 N 
HETATM   16  H   UNL     1      41.214 -17.567   3.687  1.00  0.00     0.169 HD
HETATM   17  O   UNL     1      42.717 -16.294   1.187  1.00  0.00    -0.271 OA
BRANCH  15  18
HETATM   18  C   UNL     1      42.957 -18.563   3.150  1.00  0.00     0.041 A 
HETATM   19  C   UNL     1      43.117 -19.613   2.234  1.00  0.00     0.037 A 
HETATM   20  C   UNL     1      44.044 -20.641   2.460  1.00  0.00    -0.060 A 
HETATM   21  C   UNL     1      44.155 -21.799   1.511  1.00  0.00     0.048 C 
HETATM   22  C   UNL     1      44.824 -20.614   3.617  1.00  0.00     0.007 A 
HETATM   23  C   UNL     1      44.688 -19.567   4.528  1.00  0.00     0.009 A 
HETATM   24  C   UNL     1      43.761 -18.534   4.309  1.00  0.00    -0.035 A 
HETATM   25  C   UNL     1      43.659 -17.437   5.334  1.00  0.00     0.050 C 
ENDBRANCH  15  18
ENDBRANCH  13  14
ENDBRANCH   1  13
BRANCH   4  26
HETATM   26  C   UNL     1      39.306 -13.146   5.591  1.00  0.00     0.175 C 
BRANCH  26  27
HETATM   27  C   UNL     1      40.170 -12.287   6.490  1.00  0.00    -0.037 A 
HETATM   28  C   UNL     1      39.598 -11.513   7.510  1.00  0.00     0.048 A 
HETATM   29  C   UNL     1      40.435 -10.708   8.259  1.00  0.00     0.105 A 
HETATM   30  C   UNL     1      41.792 -10.663   8.037  1.00  0.00     0.105 A 
HETATM   31  O   UNL     1      40.050  -9.879   9.266  1.00  0.00    -0.323 OA
HETATM   32  O   UNL     1      42.430  -9.803   8.876  1.00  0.00    -0.323 OA
HETATM   33  C   UNL     1      42.393 -11.417   7.058  1.00  0.00     0.040 A 
HETATM   34  C   UNL     1      41.317  -9.296   9.639  1.00  0.00     0.352 A 
HETATM   35  C   UNL     1      41.571 -12.232   6.278  1.00  0.00     0.012 A 
ENDBRANCH  26  27
ENDBRANCH   4  26
BRANCH  11  36
HETATM   36  C   UNL     1      40.413 -12.731  -2.277  1.00  0.00     0.252 C 
HETATM   37  N   UNL     1      40.200 -11.597  -3.037  1.00  0.00    -0.352 N 
HETATM   38  H   UNL     1      39.960 -10.723  -2.597  1.00  0.00     0.163 HD
HETATM   39  O   UNL     1      40.747 -13.802  -2.777  1.00  0.00    -0.268 OA
BRANCH  37  40
HETATM   40  C   UNL     1      40.723 -11.510  -4.401  1.00  0.00     0.084 C 
HETATM   41  C   UNL     1      40.013 -10.417  -5.205  1.00  0.00     0.025 C 
HETATM   42  C   UNL     1      40.390  -9.005  -4.760  1.00  0.00     0.002 C 
HETATM   43  C   UNL     1      41.902  -8.801  -4.731  1.00  0.00     0.000 C 
HETATM   44  C   UNL     1      42.602  -9.867  -3.893  1.00  0.00     0.002 C 
HETATM   45  C   UNL     1      42.242 -11.277  -4.364  1.00  0.00     0.025 C 
ENDBRANCH  37  40
ENDBRANCH  11  36
TORSDOF 7
ENDMDL
MODEL 10
REMARK VINA RESULT:      -9.6      1.319      2.048
REMARK  7 active torsions:
REMARK  status: ('A' for Active; 'I' for Inactive)
REMARK    1  A    between atoms: C_4  and  N_5 
REMARK       I    between atoms: N_5  and  C_6 
REMARK    2  A    between atoms: C_6  and  C_7 
REMARK    3  A    between atoms: C_7  and  N_8 
REMARK    4  A    between atoms: N_11  and  C_12 
REMARK    5  A    between atoms: C_12  and  C_13 
REMARK    6  A    between atoms: C_28  and  C_29 
REMARK       I    between atoms: C_29  and  N_30 
REMARK    7  A    between atoms: N_30  and  C_31 
ROOT
HETATM    1  N   UNL     1      41.316 -13.114   2.542  1.00  0.00    -0.290 N 
HETATM    2  C   UNL     1      41.564 -13.530   1.236  1.00  0.00     0.332 C 
HETATM    3  O   UNL     1      42.195 -14.573   1.032  1.00  0.00    -0.246 OA
HETATM    4  N   UNL     1      41.125 -12.710   0.209  1.00  0.00    -0.261 N 
HETATM    5  C   UNL     1      40.571 -11.456   0.429  1.00  0.00     0.264 C 
HETATM    6  O   UNL     1      40.529 -10.554  -0.403  1.00  0.00    -0.267 OA
HETATM    7  C   UNL     1      40.082 -11.177   1.786  1.00  0.00     0.059 A 
HETATM    8  C   UNL     1      40.492 -11.995   2.836  1.00  0.00     0.056 A 
HETATM    9  C   UNL     1      39.305 -10.037   2.016  1.00  0.00     0.020 A 
HETATM   10  C   UNL     1      38.963  -9.686   3.318  1.00  0.00     0.018 A 
HETATM   11  C   UNL     1      39.384 -10.471   4.401  1.00  0.00     0.034 A 
HETATM   12  C   UNL     1      40.113 -11.648   4.147  1.00  0.00     0.048 A 
ENDROOT
BRANCH   1  13
HETATM   13  C   UNL     1      42.082 -13.777   3.601  1.00  0.00     0.237 C 
BRANCH  13  14
HETATM   14  C   UNL     1      41.918 -15.296   3.661  1.00  0.00     0.240 C 
HETATM   15  N   UNL     1      43.080 -15.971   3.331  1.00  0.00    -0.325 N 
HETATM   16  H   UNL     1      43.794 -15.415   2.860  1.00  0.00     0.169 HD
HETATM   17  O   UNL     1      40.844 -15.790   3.997  1.00  0.00    -0.271 OA
BRANCH  15  18
HETATM   18  C   UNL     1      43.403 -17.322   3.588  1.00  0.00     0.041 A 
HETATM   19  C   UNL     1      43.426 -17.842   4.890  1.00  0.00     0.037 A 
HETATM   20  C   UNL     1      43.850 -19.156   5.142  1.00  0.00    -0.060 A 
HETATM   21  C   UNL     1      43.942 -19.679   6.546  1.00  0.00     0.048 C 
HETATM   22  C   UNL     1      44.250 -19.959   4.073  1.00  0.00     0.007 A 
HETATM   23  C   UNL     1      44.215 -19.461   2.772  1.00  0.00     0.009 A 
HETATM   24  C   UNL     1      43.793 -18.146   2.512  1.00  0.00    -0.035 A 
HETATM   25  C   UNL     1      43.787 -17.667   1.085  1.00  0.00     0.050 C 
ENDBRANCH  15  18
ENDBRANCH  13  14
ENDBRANCH   1  13
BRANCH   4  26
HETATM   26  C   UNL     1      41.644 -12.979  -1.130  1.00  0.00     0.175 C 
BRANCH  26  27
HETATM   27  C   UNL     1      40.697 -13.730  -2.043  1.00  0.00    -0.037 A 
HETATM   28  C   UNL     1      39.434 -13.207  -2.356  1.00  0.00     0.048 A 
HETATM   29  C   UNL     1      38.597 -13.966  -3.150  1.00  0.00     0.105 A 
HETATM   30  C   UNL     1      38.975 -15.194  -3.640  1.00  0.00     0.105 A 
HETATM   31  O   UNL     1      37.336 -13.626  -3.530  1.00  0.00    -0.323 OA
HETATM   32  O   UNL     1      38.003 -15.780  -4.390  1.00  0.00    -0.323 OA
HETATM   33  C   UNL     1      40.209 -15.735  -3.369  1.00  0.00     0.040 A 
HETATM   34  C   UNL     1      36.960 -14.788  -4.299  1.00  0.00     0.352 A 
HETATM   35  C   UNL     1      41.074 -14.995  -2.561  1.00  0.00     0.012 A 
ENDBRANCH  26  27
ENDBRANCH   4  26
BRANCH  11  36
HETATM   36  C   UNL     1      39.120  -9.927   5.771  1.00  0.00     0.252 C 
HETATM   37  N   UNL     1      40.060 -10.147   6.759  1.00  0.00    -0.352 N 
HETATM   38  H   UNL     1      40.888 -10.687   6.566  1.00  0.00     0.163 HD
HETATM   39  O   UNL     1      38.119  -9.240   5.959  1.00  0.00    -0.268 OA
BRANCH  37  40
HETATM   40  C   UNL     1      40.113  -9.281   7.936  1.00  0.00     0.084 C 
HETATM   41  C   UNL     1      39.277  -9.848   9.087  1.00  0.00     0.025 C 
HETATM   42  C   UNL     1      39.901 -11.087   9.727  1.00  0.00     0.002 C 
HETATM   43  C   UNL     1      41.350 -10.848  10.139  1.00  0.00     0.000 C 
HETATM   44  C   UNL     1      42.190 -10.325   8.977  1.00  0.00     0.002 C 
HETATM   45  C   UNL     1      41.575  -9.067   8.362  1.00  0.00     0.025 C 
ENDBRANCH  37  40
ENDBRANCH  11  36
TORSDOF 7
ENDMDL
