MODEL 1
REMARK VINA RESULT:      -8.5      0.000      0.000
REMARK  8 active torsions:
REMARK  status: ('A' for Active; 'I' for Inactive)
REMARK    1  A    between atoms: N_5  and  C_7 
REMARK    2  A    between atoms: C_7  and  C_8 
REMARK    3  A    between atoms: N_9  and  C_10 
REMARK    4  A    between atoms: C_14  and  N_15 
REMARK    5  A    between atoms: C_18  and  C_19 
REMARK       I    between atoms: C_19  and  N_20 
REMARK    6  A    between atoms: N_20  and  N_21 
REMARK    7  A    between atoms: C_22  and  C_23 
REMARK    8  A    between atoms: C_24  and  O_25 
ROOT
HETATM    1  C   UNL     1      43.330 -11.573   9.043  1.00  0.00     0.096 A 
HETATM    2  N   UNL     1      43.154 -11.134  10.356  1.00  0.00    -0.215 N 
HETATM    3  N   UNL     1      44.094 -11.736  11.138  1.00  0.00     0.012 NA
HETATM    4  N   UNL     1      44.781 -12.604  10.415  1.00  0.00    -0.152 NA
HETATM    5  C   UNL     1      44.323 -12.539   9.135  1.00  0.00     0.170 A 
ENDROOT
BRANCH   5   6
HETATM    6  C   UNL     1      44.821 -13.375   8.052  1.00  0.00     0.293 C 
HETATM    7  N   UNL     1      44.036 -14.482   7.795  1.00  0.00    -0.242 N 
HETATM    8  H   UNL     1      43.193 -14.643   8.345  1.00  0.00     0.192 HD
HETATM    9  O   UNL     1      45.844 -13.051   7.449  1.00  0.00    -0.264 OA
BRANCH   7  10
HETATM   10  N   UNL     1      44.407 -15.374   6.836  1.00  0.00    -0.183 NA
HETATM   11  C   UNL     1      43.438 -16.048   6.297  1.00  0.00     0.153 C 
BRANCH  11  12
HETATM   12  C   UNL     1      43.697 -17.066   5.258  1.00  0.00     0.017 A 
HETATM   13  C   UNL     1      44.281 -18.305   5.555  1.00  0.00     0.077 A 
HETATM   14  C   UNL     1      44.497 -19.239   4.545  1.00  0.00     0.039 A 
HETATM   15  C   UNL     1      44.132 -18.942   3.231  1.00  0.00     0.022 A 
HETATM   16  C   UNL     1      43.553 -17.708   2.937  1.00  0.00     0.012 A 
HETATM   17 BR   UNL     1      43.063 -17.306   1.155  1.00  0.00    -0.051 Br
HETATM   18  C   UNL     1      43.331 -16.766   3.941  1.00  0.00     0.034 A 
BRANCH  13  19
HETATM   19  O   UNL     1      44.663 -18.670   6.816  1.00  0.00    -0.360 OA
HETATM   20  H   UNL     1      43.898 -19.107   7.248  1.00  0.00     0.217 HD
ENDBRANCH  13  19
ENDBRANCH  11  12
ENDBRANCH   7  10
ENDBRANCH   5   6
BRANCH   1  21
HETATM   21  C   UNL     1      42.650 -11.046   7.836  1.00  0.00     0.296 C 
BRANCH  21  22
HETATM   22  N   UNL     1      41.597 -11.967   7.261  1.00  0.00    -0.066 N 
HETATM   23  C   UNL     1      40.201 -11.409   7.358  1.00  0.00     0.235 C 
HETATM   24  C   UNL     1      39.194 -12.427   6.842  1.00  0.00     0.032 C 
HETATM   25  C   UNL     1      39.498 -12.901   5.417  1.00  0.00    -0.016 C 
HETATM   26  C   UNL     1      39.199 -11.813   4.381  1.00  0.00     0.010 C 
HETATM   27  C   UNL     1      40.947 -13.393   5.329  1.00  0.00     0.032 C 
HETATM   28  C   UNL     1      41.956 -12.379   5.851  1.00  0.00     0.235 C 
HETATM   29  H   UNL     1      41.651 -12.838   7.829  1.00  0.00     0.280 HD
ENDBRANCH  21  22
ENDBRANCH   1  21
BRANCH   2  30
HETATM   30  C   UNL     1      42.171 -10.274  10.898  1.00  0.00     0.225 A 
HETATM   31  N   UNL     1      42.475  -9.010  11.199  1.00  0.00    -0.081 NA
HETATM   32  O   UNL     1      41.271  -8.479  11.670  1.00  0.00    -0.103 OA
HETATM   33  N   UNL     1      40.256  -9.424  11.622  1.00  0.00    -0.083 NA
HETATM   34  C   UNL     1      40.811 -10.534  11.142  1.00  0.00     0.201 A 
BRANCH  34  35
HETATM   35  N   UNL     1      40.153 -11.687  10.941  1.00  0.00    -0.379 N 
HETATM   36  H   UNL     1      39.311 -11.701  10.370  1.00  0.00     0.158 HD
HETATM   37  H   UNL     1      40.539 -12.604  11.152  1.00  0.00     0.158 HD
ENDBRANCH  34  35
ENDBRANCH   2  30
TORSDOF 8
ENDMDL
MODEL 2
REMARK VINA RESULT:      -8.1      5.503      9.782
REMARK  8 active torsions:
REMARK  status: ('A' for Active; 'I' for Inactive)
REMARK    1  A    between atoms: N_5  and  C_7 
REMARK    2  A    between atoms: C_7  and  C_8 
REMARK    3  A    between atoms: N_9  and  C_10 
REMARK    4  A    between atoms: C_14  and  N_15 
REMARK    5  A    between atoms: C_18  and  C_19 
REMARK       I    between atoms: C_19  and  N_20 
REMARK    6  A    between atoms: N_20  and  N_21 
REMARK    7  A    between atoms: C_22  and  C_23 
REMARK    8  A    between atoms: C_24  and  O_25 
ROOT
HETATM    1  C   UNL     1      41.661 -14.101   1.113  1.00  0.00     0.096 A 
HETATM    2  N   UNL     1      41.682 -13.495  -0.144  1.00  0.00    -0.215 N 
HETATM    3  N   UNL     1      42.320 -12.296  -0.030  1.00  0.00     0.012 NA
HETATM    4  N   UNL     1      42.607 -12.067   1.240  1.00  0.00    -0.152 NA
HETATM    5  C   UNL     1      42.199 -13.146   1.963  1.00  0.00     0.170 A 
ENDROOT
BRANCH   5   6
HETATM    6  C   UNL     1      42.322 -13.245   3.411  1.00  0.00     0.293 C 
HETATM    7  N   UNL     1      41.556 -12.325   4.100  1.00  0.00    -0.242 N 
HETATM    8  H   UNL     1      40.973 -11.666   3.586  1.00  0.00     0.192 HD
HETATM    9  O   UNL     1      43.045 -14.109   3.907  1.00  0.00    -0.264 OA
BRANCH   7  10
HETATM   10  N   UNL     1      41.607 -12.277   5.460  1.00  0.00    -0.183 NA
HETATM   11  C   UNL     1      41.304 -11.131   5.988  1.00  0.00     0.153 C 
BRANCH  11  12
HETATM   12  C   UNL     1      41.339 -10.927   7.451  1.00  0.00     0.017 A 
HETATM   13  C   UNL     1      40.173 -10.754   8.209  1.00  0.00     0.077 A 
HETATM   14  C   UNL     1      40.253 -10.576   9.588  1.00  0.00     0.039 A 
HETATM   15  C   UNL     1      41.497 -10.566  10.219  1.00  0.00     0.022 A 
HETATM   16  C   UNL     1      42.657 -10.735   9.463  1.00  0.00     0.012 A 
HETATM   17 BR   UNL     1      44.343 -10.718  10.319  1.00  0.00    -0.051 Br
HETATM   18  C   UNL     1      42.588 -10.917   8.082  1.00  0.00     0.034 A 
BRANCH  13  19
HETATM   19  O   UNL     1      38.918 -10.754   7.665  1.00  0.00    -0.360 OA
HETATM   20  H   UNL     1      38.787  -9.894   7.212  1.00  0.00     0.217 HD
ENDBRANCH  13  19
ENDBRANCH  11  12
ENDBRANCH   7  10
ENDBRANCH   5   6
BRANCH   1  21
HETATM   21  C   UNL     1      41.229 -15.486   1.419  1.00  0.00     0.296 C 
BRANCH  21  22
HETATM   22  N   UNL     1      42.303 -16.354   2.036  1.00  0.00    -0.066 N 
HETATM   23  C   UNL     1      41.765 -17.357   3.021  1.00  0.00     0.235 C 
HETATM   24  C   UNL     1      42.910 -18.128   3.661  1.00  0.00     0.032 C 
HETATM   25  C   UNL     1      43.826 -18.803   2.634  1.00  0.00    -0.016 C 
HETATM   26  C   UNL     1      43.147 -20.007   1.974  1.00  0.00     0.010 C 
HETATM   27  C   UNL     1      44.298 -17.774   1.601  1.00  0.00     0.032 C 
HETATM   28  C   UNL     1      43.154 -16.997   0.965  1.00  0.00     0.235 C 
HETATM   29  H   UNL     1      42.936 -15.696   2.537  1.00  0.00     0.280 HD
ENDBRANCH  21  22
ENDBRANCH   1  21
BRANCH   2  30
HETATM   30  C   UNL     1      41.117 -13.927  -1.367  1.00  0.00     0.225 A 
HETATM   31  N   UNL     1      39.851 -14.345  -1.412  1.00  0.00    -0.081 NA
HETATM   32  O   UNL     1      39.648 -14.653  -2.760  1.00  0.00    -0.103 OA
HETATM   33  N   UNL     1      40.787 -14.394  -3.509  1.00  0.00    -0.083 NA
HETATM   34  C   UNL     1      41.696 -13.942  -2.648  1.00  0.00     0.201 A 
BRANCH  34  35
HETATM   35  N   UNL     1      42.943 -13.574  -2.982  1.00  0.00    -0.379 N 
HETATM   36  H   UNL     1      43.246 -12.614  -2.840  1.00  0.00     0.158 HD
HETATM   37  H   UNL     1      43.692 -14.231  -3.189  1.00  0.00     0.158 HD
ENDBRANCH  34  35
ENDBRANCH   2  30
TORSDOF 8
ENDMDL
MODEL 3
REMARK VINA RESULT:      -7.9      2.255      4.313
REMARK  8 active torsions:
REMARK  status: ('A' for Active; 'I' for Inactive)
REMARK    1  A    between atoms: N_5  and  C_7 
REMARK    2  A    between atoms: C_7  and  C_8 
REMARK    3  A    between atoms: N_9  and  C_10 
REMARK    4  A    between atoms: C_14  and  N_15 
REMARK    5  A    between atoms: C_18  and  C_19 
REMARK       I    between atoms: C_19  and  N_20 
REMARK    6  A    between atoms: N_20  and  N_21 
REMARK    7  A    between atoms: C_22  and  C_23 
REMARK    8  A    between atoms: C_24  and  O_25 
ROOT
HETATM    1  C   UNL     1      41.015 -11.320   6.921  1.00  0.00     0.096 A 
HETATM    2  N   UNL     1      39.738 -10.756   6.963  1.00  0.00    -0.215 N 
HETATM    3  N   UNL     1      38.867 -11.624   6.376  1.00  0.00     0.012 NA
HETATM    4  N   UNL     1      39.535 -12.648   5.874  1.00  0.00    -0.152 NA
HETATM    5  C   UNL     1      40.851 -12.480   6.176  1.00  0.00     0.170 A 
ENDROOT
BRANCH   5   6
HETATM    6  C   UNL     1      41.903 -13.397   5.761  1.00  0.00     0.293 C 
HETATM    7  N   UNL     1      41.786 -14.662   6.302  1.00  0.00    -0.242 N 
HETATM    8  H   UNL     1      41.009 -14.876   6.925  1.00  0.00     0.192 HD
HETATM    9  O   UNL     1      42.774 -13.017   4.978  1.00  0.00    -0.264 OA
BRANCH   7  10
HETATM   10  N   UNL     1      42.726 -15.610   6.032  1.00  0.00    -0.183 NA
HETATM   11  C   UNL     1      42.293 -16.664   5.411  1.00  0.00     0.153 C 
BRANCH  11  12
HETATM   12  C   UNL     1      43.198 -17.782   5.073  1.00  0.00     0.017 A 
HETATM   13  C   UNL     1      44.245 -18.176   5.916  1.00  0.00     0.077 A 
HETATM   14  C   UNL     1      45.067 -19.243   5.562  1.00  0.00     0.039 A 
HETATM   15  C   UNL     1      44.851 -19.921   4.362  1.00  0.00     0.022 A 
HETATM   16  C   UNL     1      43.810 -19.525   3.522  1.00  0.00     0.012 A 
HETATM   17 BR   UNL     1      43.520 -20.444   1.895  1.00  0.00    -0.051 Br
HETATM   18  C   UNL     1      42.979 -18.460   3.869  1.00  0.00     0.034 A 
BRANCH  13  19
HETATM   19  O   UNL     1      44.519 -17.563   7.108  1.00  0.00    -0.360 OA
HETATM   20  H   UNL     1      43.813 -16.903   7.276  1.00  0.00     0.217 HD
ENDBRANCH  13  19
ENDBRANCH  11  12
ENDBRANCH   7  10
ENDBRANCH   5   6
BRANCH   1  21
HETATM   21  C   UNL     1      42.230 -10.808   7.598  1.00  0.00     0.296 C 
BRANCH  21  22
HETATM   22  N   UNL     1      42.436 -11.342   8.998  1.00  0.00    -0.066 N 
HETATM   23  C   UNL     1      43.887 -11.446   9.387  1.00  0.00     0.235 C 
HETATM   24  C   UNL     1      44.014 -12.071  10.769  1.00  0.00     0.032 C 
HETATM   25  C   UNL     1      43.210 -11.326  11.840  1.00  0.00    -0.016 C 
HETATM   26  C   UNL     1      43.847  -9.980  12.194  1.00  0.00     0.010 C 
HETATM   27  C   UNL     1      41.755 -11.169  11.384  1.00  0.00     0.032 C 
HETATM   28  C   UNL     1      41.626 -10.550   9.999  1.00  0.00     0.235 C 
HETATM   29  H   UNL     1      42.019 -12.296   8.994  1.00  0.00     0.280 HD
ENDBRANCH  21  22
ENDBRANCH   1  21
BRANCH   2  30
HETATM   30  C   UNL     1      39.323  -9.493   7.447  1.00  0.00     0.225 A 
HETATM   31  N   UNL     1      39.532  -8.393   6.721  1.00  0.00    -0.081 NA
HETATM   32  O   UNL     1      38.972  -7.372   7.493  1.00  0.00    -0.103 OA
HETATM   33  N   UNL     1      38.414  -7.875   8.659  1.00  0.00    -0.083 NA
HETATM   34  C   UNL     1      38.628  -9.188   8.630  1.00  0.00     0.201 A 
BRANCH  34  35
HETATM   35  N   UNL     1      38.234 -10.044   9.587  1.00  0.00    -0.379 N 
HETATM   36  H   UNL     1      37.403 -10.614   9.451  1.00  0.00     0.158 HD
HETATM   37  H   UNL     1      38.817 -10.322  10.373  1.00  0.00     0.158 HD
ENDBRANCH  34  35
ENDBRANCH   2  30
TORSDOF 8
ENDMDL
MODEL 4
REMARK VINA RESULT:      -7.8      4.202      8.863
REMARK  8 active torsions:
REMARK  status: ('A' for Active; 'I' for Inactive)
REMARK    1  A    between atoms: N_5  and  C_7 
REMARK    2  A    between atoms: C_7  and  C_8 
REMARK    3  A    between atoms: N_9  and  C_10 
REMARK    4  A    between atoms: C_14  and  N_15 
REMARK    5  A    between atoms: C_18  and  C_19 
REMARK       I    between atoms: C_19  and  N_20 
REMARK    6  A    between atoms: N_20  and  N_21 
REMARK    7  A    between atoms: C_22  and  C_23 
REMARK    8  A    between atoms: C_24  and  O_25 
ROOT
HETATM    1  C   UNL     1      41.414 -14.436   4.430  1.00  0.00     0.096 A 
HETATM    2  N   UNL     1      41.622 -14.451   3.049  1.00  0.00    -0.215 N 
HETATM    3  N   UNL     1      41.780 -13.165   2.627  1.00  0.00     0.012 NA
HETATM    4  N   UNL     1      41.580 -12.339   3.639  1.00  0.00    -0.152 NA
HETATM    5  C   UNL     1      41.336 -13.088   4.749  1.00  0.00     0.170 A 
ENDROOT
BRANCH   5   6
HETATM    6  C   UNL     1      41.038 -12.524   6.058  1.00  0.00     0.293 C 
HETATM    7  N   UNL     1      42.109 -11.877   6.644  1.00  0.00    -0.242 N 
HETATM    8  H   UNL     1      43.000 -11.828   6.153  1.00  0.00     0.192 HD
HETATM    9  O   UNL     1      39.906 -12.632   6.529  1.00  0.00    -0.264 OA
BRANCH   7  10
HETATM   10  N   UNL     1      41.983 -11.340   7.889  1.00  0.00    -0.183 NA
HETATM   11  C   UNL     1      43.034 -11.433   8.645  1.00  0.00     0.153 C 
BRANCH  11  12
HETATM   12  C   UNL     1      43.033 -10.913  10.028  1.00  0.00     0.017 A 
HETATM   13  C   UNL     1      43.497 -11.671  11.111  1.00  0.00     0.077 A 
HETATM   14  C   UNL     1      43.488 -11.136  12.397  1.00  0.00     0.039 A 
HETATM   15  C   UNL     1      43.013  -9.841  12.610  1.00  0.00     0.022 A 
HETATM   16  C   UNL     1      42.548  -9.089  11.531  1.00  0.00     0.012 A 
HETATM   17 BR   UNL     1      41.902  -7.336  11.822  1.00  0.00    -0.051 Br
HETATM   18  C   UNL     1      42.556  -9.615  10.239  1.00  0.00     0.034 A 
BRANCH  13  19
HETATM   19  O   UNL     1      43.980 -12.944  10.983  1.00  0.00    -0.360 OA
HETATM   20  H   UNL     1      43.344 -13.453  10.435  1.00  0.00     0.217 HD
ENDBRANCH  13  19
ENDBRANCH  11  12
ENDBRANCH   7  10
ENDBRANCH   5   6
BRANCH   1  21
HETATM   21  C   UNL     1      41.372 -15.613   5.330  1.00  0.00     0.296 C 
BRANCH  21  22
HETATM   22  N   UNL     1      42.655 -16.413   5.372  1.00  0.00    -0.066 N 
HETATM   23  C   UNL     1      43.314 -16.411   6.726  1.00  0.00     0.235 C 
HETATM   24  C   UNL     1      44.637 -17.160   6.664  1.00  0.00     0.032 C 
HETATM   25  C   UNL     1      44.494 -18.587   6.125  1.00  0.00    -0.016 C 
HETATM   26  C   UNL     1      43.813 -19.511   7.139  1.00  0.00     0.010 C 
HETATM   27  C   UNL     1      43.754 -18.565   4.783  1.00  0.00     0.032 C 
HETATM   28  C   UNL     1      42.433 -17.811   4.841  1.00  0.00     0.235 C 
HETATM   29  H   UNL     1      43.290 -15.953   4.688  1.00  0.00     0.280 HD
ENDBRANCH  21  22
ENDBRANCH   1  21
BRANCH   2  30
HETATM   30  C   UNL     1      41.623 -15.540   2.147  1.00  0.00     0.225 A 
HETATM   31  N   UNL     1      42.769 -15.975   1.619  1.00  0.00    -0.081 NA
HETATM   32  O   UNL     1      42.381 -17.054   0.821  1.00  0.00    -0.103 OA
HETATM   33  N   UNL     1      41.012 -17.268   0.899  1.00  0.00    -0.083 NA
HETATM   34  C   UNL     1      40.543 -16.333   1.721  1.00  0.00     0.201 A 
BRANCH  34  35
HETATM   35  N   UNL     1      39.251 -16.199   2.062  1.00  0.00    -0.379 N 
HETATM   36  H   UNL     1      38.656 -15.545   1.559  1.00  0.00     0.158 HD
HETATM   37  H   UNL     1      38.753 -16.850   2.665  1.00  0.00     0.158 HD
ENDBRANCH  34  35
ENDBRANCH   2  30
TORSDOF 8
ENDMDL
MODEL 5
REMARK VINA RESULT:      -7.8      1.559      1.931
REMARK  8 active torsions:
REMARK  status: ('A' for Active; 'I' for Inactive)
REMARK    1  A    between atoms: N_5  and  C_7 
REMARK    2  A    between atoms: C_7  and  C_8 
REMARK    3  A    between atoms: N_9  and  C_10 
REMARK    4  A    between atoms: C_14  and  N_15 
REMARK    5  A    between atoms: C_18  and  C_19 
REMARK       I    between atoms: C_19  and  N_20 
REMARK    6  A    between atoms: N_20  and  N_21 
REMARK    7  A    between atoms: C_22  and  C_23 
REMARK    8  A    between atoms: C_24  and  O_25 
ROOT
HETATM    1  C   UNL     1      43.489 -11.745   8.756  1.00  0.00     0.096 A 
HETATM    2  N   UNL     1      43.425 -11.312  10.081  1.00  0.00    -0.215 N 
HETATM    3  N   UNL     1      44.423 -11.923  10.780  1.00  0.00     0.012 NA
HETATM    4  N   UNL     1      45.042 -12.791   9.998  1.00  0.00    -0.152 NA
HETATM    5  C   UNL     1      44.480 -12.717   8.761  1.00  0.00     0.170 A 
ENDROOT
BRANCH   5   6
HETATM    6  C   UNL     1      44.882 -13.550   7.636  1.00  0.00     0.293 C 
HETATM    7  N   UNL     1      44.176 -14.733   7.539  1.00  0.00    -0.242 N 
HETATM    8  H   UNL     1      43.448 -14.946   8.219  1.00  0.00     0.192 HD
HETATM    9  O   UNL     1      45.763 -13.162   6.870  1.00  0.00    -0.264 OA
BRANCH   7  10
HETATM   10  N   UNL     1      44.477 -15.629   6.558  1.00  0.00    -0.183 NA
HETATM   11  C   UNL     1      43.558 -16.510   6.306  1.00  0.00     0.153 C 
BRANCH  11  12
HETATM   12  C   UNL     1      43.758 -17.556   5.282  1.00  0.00     0.017 A 
HETATM   13  C   UNL     1      43.643 -17.291   3.911  1.00  0.00     0.077 A 
HETATM   14  C   UNL     1      43.850 -18.305   2.980  1.00  0.00     0.039 A 
HETATM   15  C   UNL     1      44.170 -19.593   3.412  1.00  0.00     0.022 A 
HETATM   16  C   UNL     1      44.280 -19.856   4.778  1.00  0.00     0.012 A 
HETATM   17 BR   UNL     1      44.712 -21.602   5.361  1.00  0.00    -0.051 Br
HETATM   18  C   UNL     1      44.078 -18.846   5.718  1.00  0.00     0.034 A 
BRANCH  13  19
HETATM   19  O   UNL     1      43.334 -16.056   3.410  1.00  0.00    -0.360 OA
HETATM   20  H   UNL     1      42.684 -15.639   4.015  1.00  0.00     0.217 HD
ENDBRANCH  13  19
ENDBRANCH  11  12
ENDBRANCH   7  10
ENDBRANCH   5   6
BRANCH   1  21
HETATM   21  C   UNL     1      42.714 -11.208   7.612  1.00  0.00     0.296 C 
BRANCH  21  22
HETATM   22  N   UNL     1      41.612 -12.120   7.122  1.00  0.00    -0.066 N 
HETATM   23  C   UNL     1      40.269 -11.442   7.043  1.00  0.00     0.235 C 
HETATM   24  C   UNL     1      39.201 -12.444   6.629  1.00  0.00     0.032 C 
HETATM   25  C   UNL     1      39.531 -13.163   5.316  1.00  0.00    -0.016 C 
HETATM   26  C   UNL     1      39.383 -12.234   4.107  1.00  0.00     0.010 C 
HETATM   27  C   UNL     1      40.932 -13.779   5.398  1.00  0.00     0.032 C 
HETATM   28  C   UNL     1      42.001 -12.780   5.819  1.00  0.00     0.235 C 
HETATM   29  H   UNL     1      41.559 -12.890   7.820  1.00  0.00     0.280 HD
ENDBRANCH  21  22
ENDBRANCH   1  21
BRANCH   2  30
HETATM   30  C   UNL     1      42.495 -10.449  10.707  1.00  0.00     0.225 A 
HETATM   31  N   UNL     1      41.284 -10.268  10.178  1.00  0.00    -0.081 NA
HETATM   32  O   UNL     1      40.656  -9.395  11.070  1.00  0.00    -0.103 OA
HETATM   33  N   UNL     1      41.490  -9.082  12.134  1.00  0.00    -0.083 NA
HETATM   34  C   UNL     1      42.628  -9.736  11.912  1.00  0.00     0.201 A 
BRANCH  34  35
HETATM   35  N   UNL     1      43.698  -9.696  12.721  1.00  0.00    -0.379 N 
HETATM   36  H   UNL     1      43.954  -8.829  13.186  1.00  0.00     0.158 HD
HETATM   37  H   UNL     1      44.174 -10.524  13.073  1.00  0.00     0.158 HD
ENDBRANCH  34  35
ENDBRANCH   2  30
TORSDOF 8
ENDMDL
MODEL 6
REMARK VINA RESULT:      -7.7      7.449      9.926
REMARK  8 active torsions:
REMARK  status: ('A' for Active; 'I' for Inactive)
REMARK    1  A    between atoms: N_5  and  C_7 
REMARK    2  A    between atoms: C_7  and  C_8 
REMARK    3  A    between atoms: N_9  and  C_10 
REMARK    4  A    between atoms: C_14  and  N_15 
REMARK    5  A    between atoms: C_18  and  C_19 
REMARK       I    between atoms: C_19  and  N_20 
REMARK    6  A    between atoms: N_20  and  N_21 
REMARK    7  A    between atoms: C_22  and  C_23 
REMARK    8  A    between atoms: C_24  and  O_25 
ROOT
HETATM    1  C   UNL     1      40.125 -14.412  -1.024  1.00  0.00     0.096 A 
HETATM    2  N   UNL     1      38.854 -13.848  -1.158  1.00  0.00    -0.215 N 
HETATM    3  N   UNL     1      38.355 -13.620   0.089  1.00  0.00     0.012 NA
HETATM    4  N   UNL     1      39.189 -14.101   0.995  1.00  0.00    -0.152 NA
HETATM    5  C   UNL     1      40.270 -14.607   0.342  1.00  0.00     0.170 A 
ENDROOT
BRANCH   5   6
HETATM    6  C   UNL     1      41.392 -15.254   1.009  1.00  0.00     0.293 C 
HETATM    7  N   UNL     1      41.382 -16.631   0.909  1.00  0.00    -0.242 N 
HETATM    8  H   UNL     1      40.634 -17.096   0.396  1.00  0.00     0.192 HD
HETATM    9  O   UNL     1      42.246 -14.570   1.574  1.00  0.00    -0.264 OA
BRANCH   7  10
HETATM   10  N   UNL     1      42.349 -17.367   1.523  1.00  0.00    -0.183 NA
HETATM   11  C   UNL     1      42.044 -17.814   2.703  1.00  0.00     0.153 C 
BRANCH  11  12
HETATM   12  C   UNL     1      43.005 -18.608   3.495  1.00  0.00     0.017 A 
HETATM   13  C   UNL     1      43.728 -19.674   2.943  1.00  0.00     0.077 A 
HETATM   14  C   UNL     1      44.632 -20.389   3.725  1.00  0.00     0.039 A 
HETATM   15  C   UNL     1      44.817 -20.047   5.065  1.00  0.00     0.022 A 
HETATM   16  C   UNL     1      44.095 -18.988   5.614  1.00  0.00     0.012 A 
HETATM   17 BR   UNL     1      44.347 -18.527   7.431  1.00  0.00    -0.051 Br
HETATM   18  C   UNL     1      43.190 -18.263   4.839  1.00  0.00     0.034 A 
BRANCH  13  19
HETATM   19  O   UNL     1      43.602 -20.069   1.639  1.00  0.00    -0.360 OA
HETATM   20  H   UNL     1      42.899 -19.523   1.226  1.00  0.00     0.217 HD
ENDBRANCH  13  19
ENDBRANCH  11  12
ENDBRANCH   7  10
ENDBRANCH   5   6
BRANCH   1  21
HETATM   21  C   UNL     1      41.101 -14.656  -2.112  1.00  0.00     0.296 C 
BRANCH  21  22
HETATM   22  N   UNL     1      41.913 -13.442  -2.508  1.00  0.00    -0.066 N 
HETATM   23  C   UNL     1      41.364 -12.727  -3.714  1.00  0.00     0.235 C 
HETATM   24  C   UNL     1      42.281 -11.576  -4.101  1.00  0.00     0.032 C 
HETATM   25  C   UNL     1      42.531 -10.596  -2.949  1.00  0.00    -0.016 C 
HETATM   26  C   UNL     1      41.294  -9.746  -2.648  1.00  0.00     0.010 C 
HETATM   27  C   UNL     1      43.017 -11.361  -1.713  1.00  0.00     0.032 C 
HETATM   28  C   UNL     1      42.105 -12.517  -1.328  1.00  0.00     0.235 C 
HETATM   29  H   UNL     1      42.862 -13.806  -2.735  1.00  0.00     0.280 HD
ENDBRANCH  21  22
ENDBRANCH   1  21
BRANCH   2  30
HETATM   30  C   UNL     1      38.101 -13.581  -2.325  1.00  0.00     0.225 A 
HETATM   31  N   UNL     1      37.846 -12.322  -2.686  1.00  0.00    -0.081 NA
HETATM   32  O   UNL     1      37.123 -12.455  -3.875  1.00  0.00    -0.103 OA
HETATM   33  N   UNL     1      36.975 -13.790  -4.223  1.00  0.00    -0.083 NA
HETATM   34  C   UNL     1      37.583 -14.487  -3.266  1.00  0.00     0.201 A 
BRANCH  34  35
HETATM   35  N   UNL     1      37.666 -15.827  -3.237  1.00  0.00    -0.379 N 
HETATM   36  H   UNL     1      38.495 -16.279  -2.859  1.00  0.00     0.158 HD
HETATM   37  H   UNL     1      36.872 -16.447  -3.383  1.00  0.00     0.158 HD
ENDBRANCH  34  35
ENDBRANCH   2  30
TORSDOF 8
ENDMDL
MODEL 7
REMARK VINA RESULT:      -7.7      1.562      2.083
REMARK  8 active torsions:
REMARK  status: ('A' for Active; 'I' for Inactive)
REMARK    1  A    between atoms: N_5  and  C_7 
REMARK    2  A    between atoms: C_7  and  C_8 
REMARK    3  A    between atoms: N_9  and  C_10 
REMARK    4  A    between atoms: C_14  and  N_15 
REMARK    5  A    between atoms: C_18  and  C_19 
REMARK       I    between atoms: C_19  and  N_20 
REMARK    6  A    between atoms: N_20  and  N_21 
REMARK    7  A    between atoms: C_22  and  C_23 
REMARK    8  A    between atoms: C_24  and  O_25 
ROOT
HETATM    1  C   UNL     1      43.430 -11.478   9.330  1.00  0.00     0.096 A 
HETATM    2  N   UNL     1      43.389 -11.021  10.648  1.00  0.00    -0.215 N 
HETATM    3  N   UNL     1      44.468 -11.526  11.309  1.00  0.00     0.012 NA
HETATM    4  N   UNL     1      45.124 -12.356  10.516  1.00  0.00    -0.152 NA
HETATM    5  C   UNL     1      44.501 -12.360   9.306  1.00  0.00     0.170 A 
ENDROOT
BRANCH   5   6
HETATM    6  C   UNL     1      44.921 -13.181   8.180  1.00  0.00     0.293 C 
HETATM    7  N   UNL     1      44.060 -14.224   7.898  1.00  0.00    -0.242 N 
HETATM    8  H   UNL     1      43.220 -14.352   8.459  1.00  0.00     0.192 HD
HETATM    9  O   UNL     1      45.951 -12.900   7.567  1.00  0.00    -0.264 OA
BRANCH   7  10
HETATM   10  N   UNL     1      44.353 -15.098   6.896  1.00  0.00    -0.183 NA
HETATM   11  C   UNL     1      43.449 -16.000   6.662  1.00  0.00     0.153 C 
BRANCH  11  12
HETATM   12  C   UNL     1      43.642 -17.028   5.618  1.00  0.00     0.017 A 
HETATM   13  C   UNL     1      44.542 -18.091   5.773  1.00  0.00     0.077 A 
HETATM   14  C   UNL     1      44.684 -19.043   4.767  1.00  0.00     0.039 A 
HETATM   15  C   UNL     1      43.931 -18.938   3.597  1.00  0.00     0.022 A 
HETATM   16  C   UNL     1      43.038 -17.877   3.442  1.00  0.00     0.012 A 
HETATM   17 BR   UNL     1      42.020 -17.736   1.855  1.00  0.00    -0.051 Br
HETATM   18  C   UNL     1      42.886 -16.920   4.445  1.00  0.00     0.034 A 
BRANCH  13  19
HETATM   19  O   UNL     1      45.313 -18.262   6.890  1.00  0.00    -0.360 OA
HETATM   20  H   UNL     1      46.041 -17.604   6.857  1.00  0.00     0.217 HD
ENDBRANCH  13  19
ENDBRANCH  11  12
ENDBRANCH   7  10
ENDBRANCH   5   6
BRANCH   1  21
HETATM   21  C   UNL     1      42.558 -11.037   8.215  1.00  0.00     0.296 C 
BRANCH  21  22
HETATM   22  N   UNL     1      41.453 -10.088   8.623  1.00  0.00    -0.066 N 
HETATM   23  C   UNL     1      41.510  -8.764   7.908  1.00  0.00     0.235 C 
HETATM   24  C   UNL     1      40.424  -7.838   8.435  1.00  0.00     0.032 C 
HETATM   25  C   UNL     1      39.021  -8.448   8.350  1.00  0.00    -0.016 C 
HETATM   26  C   UNL     1      38.516  -8.511   6.905  1.00  0.00     0.010 C 
HETATM   27  C   UNL     1      39.012  -9.827   9.020  1.00  0.00     0.032 C 
HETATM   28  C   UNL     1      40.101 -10.753   8.498  1.00  0.00     0.235 C 
HETATM   29  H   UNL     1      41.591  -9.926   9.643  1.00  0.00     0.280 HD
ENDBRANCH  21  22
ENDBRANCH   1  21
BRANCH   2  30
HETATM   30  C   UNL     1      42.418 -10.227  11.301  1.00  0.00     0.225 A 
HETATM   31  N   UNL     1      42.483  -8.896  11.237  1.00  0.00    -0.081 NA
HETATM   32  O   UNL     1      41.365  -8.470  11.959  1.00  0.00    -0.103 OA
HETATM   33  N   UNL     1      40.630  -9.551  12.426  1.00  0.00    -0.083 NA
HETATM   34  C   UNL     1      41.279 -10.638  12.017  1.00  0.00     0.201 A 
BRANCH  34  35
HETATM   35  N   UNL     1      40.886 -11.898  12.266  1.00  0.00    -0.379 N 
HETATM   36  H   UNL     1      41.361 -12.450  12.975  1.00  0.00     0.158 HD
HETATM   37  H   UNL     1      40.007 -12.293  11.937  1.00  0.00     0.158 HD
ENDBRANCH  34  35
ENDBRANCH   2  30
TORSDOF 8
ENDMDL
MODEL 8
REMARK VINA RESULT:      -7.6      4.486      8.622
REMARK  8 active torsions:
REMARK  status: ('A' for Active; 'I' for Inactive)
REMARK    1  A    between atoms: N_5  and  C_7 
REMARK    2  A    between atoms: C_7  and  C_8 
REMARK    3  A    between atoms: N_9  and  C_10 
REMARK    4  A    between atoms: C_14  and  N_15 
REMARK    5  A    between atoms: C_18  and  C_19 
REMARK       I    between atoms: C_19  and  N_20 
REMARK    6  A    between atoms: N_20  and  N_21 
REMARK    7  A    between atoms: C_22  and  C_23 
REMARK    8  A    between atoms: C_24  and  O_25 
ROOT
HETATM    1  C   UNL     1      40.679 -12.892   4.355  1.00  0.00     0.096 A 
HETATM    2  N   UNL     1      40.095 -12.945   3.088  1.00  0.00    -0.215 N 
HETATM    3  N   UNL     1      38.968 -12.180   3.104  1.00  0.00     0.012 NA
HETATM    4  N   UNL     1      38.753 -11.737   4.331  1.00  0.00    -0.152 NA
HETATM    5  C   UNL     1      39.773 -12.172   5.120  1.00  0.00     0.170 A 
ENDROOT
BRANCH   5   6
HETATM    6  C   UNL     1      39.865 -11.906   6.548  1.00  0.00     0.293 C 
HETATM    7  N   UNL     1      40.814 -10.959   6.880  1.00  0.00    -0.242 N 
HETATM    8  H   UNL     1      41.366 -10.517   6.146  1.00  0.00     0.192 HD
HETATM    9  O   UNL     1      39.117 -12.493   7.330  1.00  0.00    -0.264 OA
BRANCH   7  10
HETATM   10  N   UNL     1      41.036 -10.643   8.185  1.00  0.00    -0.183 NA
HETATM   11  C   UNL     1      42.265 -10.763   8.586  1.00  0.00     0.153 C 
BRANCH  11  12
HETATM   12  C   UNL     1      42.648 -10.476   9.984  1.00  0.00     0.017 A 
HETATM   13  C   UNL     1      43.378 -11.385  10.761  1.00  0.00     0.077 A 
HETATM   14  C   UNL     1      43.726 -11.068  12.071  1.00  0.00     0.039 A 
HETATM   15  C   UNL     1      43.345  -9.841  12.616  1.00  0.00     0.022 A 
HETATM   16  C   UNL     1      42.616  -8.938  11.842  1.00  0.00     0.012 A 
HETATM   17 BR   UNL     1      42.100  -7.277  12.583  1.00  0.00    -0.051 Br
HETATM   18  C   UNL     1      42.265  -9.245  10.528  1.00  0.00     0.034 A 
BRANCH  13  19
HETATM   19  O   UNL     1      43.788 -12.606  10.298  1.00  0.00    -0.360 OA
HETATM   20  H   UNL     1      42.987 -13.144  10.117  1.00  0.00     0.217 HD
ENDBRANCH  13  19
ENDBRANCH  11  12
ENDBRANCH   7  10
ENDBRANCH   5   6
BRANCH   1  21
HETATM   21  C   UNL     1      42.007 -13.427   4.738  1.00  0.00     0.296 C 
BRANCH  21  22
HETATM   22  N   UNL     1      41.956 -14.617   5.671  1.00  0.00    -0.066 N 
HETATM   23  C   UNL     1      41.001 -15.689   5.216  1.00  0.00     0.235 C 
HETATM   24  C   UNL     1      40.939 -16.806   6.248  1.00  0.00     0.032 C 
HETATM   25  C   UNL     1      42.315 -17.398   6.574  1.00  0.00    -0.016 C 
HETATM   26  C   UNL     1      42.854 -18.249   5.421  1.00  0.00     0.010 C 
HETATM   27  C   UNL     1      43.285 -16.276   6.961  1.00  0.00     0.032 C 
HETATM   28  C   UNL     1      43.344 -15.154   5.933  1.00  0.00     0.235 C 
HETATM   29  H   UNL     1      41.626 -14.238   6.584  1.00  0.00     0.280 HD
ENDBRANCH  21  22
ENDBRANCH   1  21
BRANCH   2  30
HETATM   30  C   UNL     1      40.483 -13.678   1.942  1.00  0.00     0.225 A 
HETATM   31  N   UNL     1      41.557 -13.311   1.240  1.00  0.00    -0.081 NA
HETATM   32  O   UNL     1      41.638 -14.269   0.226  1.00  0.00    -0.103 OA
HETATM   33  N   UNL     1      40.626 -15.212   0.347  1.00  0.00    -0.083 NA
HETATM   34  C   UNL     1      39.914 -14.849   1.411  1.00  0.00     0.201 A 
BRANCH  34  35
HETATM   35  N   UNL     1      38.838 -15.511   1.867  1.00  0.00    -0.379 N 
HETATM   36  H   UNL     1      38.928 -16.474   2.181  1.00  0.00     0.158 HD
HETATM   37  H   UNL     1      37.960 -15.062   2.117  1.00  0.00     0.158 HD
ENDBRANCH  34  35
ENDBRANCH   2  30
TORSDOF 8
ENDMDL
MODEL 9
REMARK VINA RESULT:      -7.6      6.266      9.051
REMARK  8 active torsions:
REMARK  status: ('A' for Active; 'I' for Inactive)
REMARK    1  A    between atoms: N_5  and  C_7 
REMARK    2  A    between atoms: C_7  and  C_8 
REMARK    3  A    between atoms: N_9  and  C_10 
REMARK    4  A    between atoms: C_14  and  N_15 
REMARK    5  A    between atoms: C_18  and  C_19 
REMARK       I    between atoms: C_19  and  N_20 
REMARK    6  A    between atoms: N_20  and  N_21 
REMARK    7  A    between atoms: C_22  and  C_23 
REMARK    8  A    between atoms: C_24  and  O_25 
ROOT
HETATM    1  C   UNL     1      41.565 -13.976  -0.710  1.00  0.00     0.096 A 
HETATM    2  N   UNL     1      41.428 -13.627  -2.055  1.00  0.00    -0.215 N 
HETATM    3  N   UNL     1      40.991 -14.722  -2.739  1.00  0.00     0.012 NA
HETATM    4  N   UNL     1      40.947 -15.762  -1.925  1.00  0.00    -0.152 NA
HETATM    5  C   UNL     1      41.310 -15.340  -0.683  1.00  0.00     0.170 A 
ENDROOT
BRANCH   5   6
HETATM    6  C   UNL     1      41.409 -16.216   0.476  1.00  0.00     0.293 C 
HETATM    7  N   UNL     1      42.603 -16.905   0.554  1.00  0.00    -0.242 N 
HETATM    8  H   UNL     1      43.315 -16.767  -0.161  1.00  0.00     0.192 HD
HETATM    9  O   UNL     1      40.481 -16.271   1.284  1.00  0.00    -0.264 OA
BRANCH   7  10
HETATM   10  N   UNL     1      42.814 -17.793   1.565  1.00  0.00    -0.183 NA
HETATM   11  C   UNL     1      43.473 -17.332   2.583  1.00  0.00     0.153 C 
BRANCH  11  12
HETATM   12  C   UNL     1      43.793 -18.190   3.743  1.00  0.00     0.017 A 
HETATM   13  C   UNL     1      44.301 -19.488   3.594  1.00  0.00     0.077 A 
HETATM   14  C   UNL     1      44.598 -20.258   4.716  1.00  0.00     0.039 A 
HETATM   15  C   UNL     1      44.388 -19.738   5.993  1.00  0.00     0.022 A 
HETATM   16  C   UNL     1      43.880 -18.447   6.140  1.00  0.00     0.012 A 
HETATM   17 BR   UNL     1      43.594 -17.745   7.872  1.00  0.00    -0.051 Br
HETATM   18  C   UNL     1      43.582 -17.667   5.023  1.00  0.00     0.034 A 
BRANCH  13  19
HETATM   19  O   UNL     1      44.535 -20.066   2.377  1.00  0.00    -0.360 OA
HETATM   20  H   UNL     1      45.126 -20.837   2.518  1.00  0.00     0.217 HD
ENDBRANCH  13  19
ENDBRANCH  11  12
ENDBRANCH   7  10
ENDBRANCH   5   6
BRANCH   1  21
HETATM   21  C   UNL     1      41.842 -13.055   0.418  1.00  0.00     0.296 C 
BRANCH  21  22
HETATM   22  N   UNL     1      41.500 -13.615   1.780  1.00  0.00    -0.066 N 
HETATM   23  C   UNL     1      42.660 -13.594   2.741  1.00  0.00     0.235 C 
HETATM   24  C   UNL     1      42.263 -14.252   4.054  1.00  0.00     0.032 C 
HETATM   25  C   UNL     1      41.015 -13.626   4.686  1.00  0.00    -0.016 C 
HETATM   26  C   UNL     1      41.307 -12.238   5.263  1.00  0.00     0.010 C 
HETATM   27  C   UNL     1      39.875 -13.593   3.663  1.00  0.00     0.032 C 
HETATM   28  C   UNL     1      40.271 -12.941   2.346  1.00  0.00     0.235 C 
HETATM   29  H   UNL     1      41.222 -14.604   1.610  1.00  0.00     0.280 HD
ENDBRANCH  21  22
ENDBRANCH   1  21
BRANCH   2  30
HETATM   30  C   UNL     1      41.723 -12.407  -2.708  1.00  0.00     0.225 A 
HETATM   31  N   UNL     1      42.870 -11.772  -2.461  1.00  0.00    -0.081 NA
HETATM   32  O   UNL     1      42.818 -10.651  -3.293  1.00  0.00    -0.103 OA
HETATM   33  N   UNL     1      41.652 -10.640  -4.045  1.00  0.00    -0.083 NA
HETATM   34  C   UNL     1      40.975 -11.729  -3.686  1.00  0.00     0.201 A 
BRANCH  34  35
HETATM   35  N   UNL     1      39.783 -12.084  -4.192  1.00  0.00    -0.379 N 
HETATM   36  H   UNL     1      38.930 -11.665  -3.830  1.00  0.00     0.158 HD
HETATM   37  H   UNL     1      39.667 -12.603  -5.059  1.00  0.00     0.158 HD
ENDBRANCH  34  35
ENDBRANCH   2  30
TORSDOF 8
ENDMDL
MODEL 10
REMARK VINA RESULT:      -7.6      5.273      8.397
REMARK  8 active torsions:
REMARK  status: ('A' for Active; 'I' for Inactive)
REMARK    1  A    between atoms: N_5  and  C_7 
REMARK    2  A    between atoms: C_7  and  C_8 
REMARK    3  A    between atoms: N_9  and  C_10 
REMARK    4  A    between atoms: C_14  and  N_15 
REMARK    5  A    between atoms: C_18  and  C_19 
REMARK       I    between atoms: C_19  and  N_20 
REMARK    6  A    between atoms: N_20  and  N_21 
REMARK    7  A    between atoms: C_22  and  C_23 
REMARK    8  A    between atoms: C_24  and  O_25 
ROOT
HETATM    1  C   UNL     1      42.543 -17.844   3.853  1.00  0.00     0.096 A 
HETATM    2  N   UNL     1      43.498 -18.614   4.519  1.00  0.00    -0.215 N 
HETATM    3  N   UNL     1      44.248 -19.265   3.586  1.00  0.00     0.012 NA
HETATM    4  N   UNL     1      43.754 -19.034   2.382  1.00  0.00    -0.152 NA
HETATM    5  C   UNL     1      42.701 -18.183   2.517  1.00  0.00     0.170 A 
ENDROOT
BRANCH   5   6
HETATM    6  C   UNL     1      41.882 -17.723   1.404  1.00  0.00     0.293 C 
HETATM    7  N   UNL     1      42.514 -16.804   0.589  1.00  0.00    -0.242 N 
HETATM    8  H   UNL     1      43.469 -16.516   0.797  1.00  0.00     0.192 HD
HETATM    9  O   UNL     1      40.746 -18.172   1.251  1.00  0.00    -0.264 OA
BRANCH   7  10
HETATM   10  N   UNL     1      41.850 -16.256  -0.466  1.00  0.00    -0.183 NA
HETATM   11  C   UNL     1      41.332 -15.086  -0.251  1.00  0.00     0.153 C 
BRANCH  11  12
HETATM   12  C   UNL     1      40.564 -14.383  -1.300  1.00  0.00     0.017 A 
HETATM   13  C   UNL     1      40.827 -14.560  -2.665  1.00  0.00     0.077 A 
HETATM   14  C   UNL     1      40.071 -13.884  -3.619  1.00  0.00     0.039 A 
HETATM   15  C   UNL     1      39.049 -13.024  -3.217  1.00  0.00     0.022 A 
HETATM   16  C   UNL     1      38.790 -12.846  -1.858  1.00  0.00     0.012 A 
HETATM   17 BR   UNL     1      37.406 -11.677  -1.315  1.00  0.00    -0.051 Br
HETATM   18  C   UNL     1      39.540 -13.520  -0.894  1.00  0.00     0.034 A 
BRANCH  13  19
HETATM   19  O   UNL     1      41.810 -15.387  -3.137  1.00  0.00    -0.360 OA
HETATM   20  H   UNL     1      41.473 -16.308  -3.098  1.00  0.00     0.217 HD
ENDBRANCH  13  19
ENDBRANCH  11  12
ENDBRANCH   7  10
ENDBRANCH   5   6
BRANCH   1  21
HETATM   21  C   UNL     1      41.636 -16.841   4.461  1.00  0.00     0.296 C 
BRANCH  21  22
HETATM   22  N   UNL     1      41.542 -15.539   3.696  1.00  0.00    -0.066 N 
HETATM   23  C   UNL     1      40.317 -14.734   4.041  1.00  0.00     0.235 C 
HETATM   24  C   UNL     1      40.249 -13.488   3.170  1.00  0.00     0.032 C 
HETATM   25  C   UNL     1      41.514 -12.627   3.255  1.00  0.00    -0.016 C 
HETATM   26  C   UNL     1      41.617 -11.900   4.600  1.00  0.00     0.010 C 
HETATM   27  C   UNL     1      42.750 -13.489   2.975  1.00  0.00     0.032 C 
HETATM   28  C   UNL     1      42.817 -14.739   3.840  1.00  0.00     0.235 C 
HETATM   29  H   UNL     1      41.495 -15.811   2.692  1.00  0.00     0.280 HD
ENDBRANCH  21  22
ENDBRANCH   1  21
BRANCH   2  30
HETATM   30  C   UNL     1      43.699 -18.805   5.906  1.00  0.00     0.225 A 
HETATM   31  N   UNL     1      43.497 -20.005   6.455  1.00  0.00    -0.081 NA
HETATM   32  O   UNL     1      43.818 -19.814   7.802  1.00  0.00    -0.103 OA
HETATM   33  N   UNL     1      44.230 -18.510   8.038  1.00  0.00    -0.083 NA
HETATM   34  C   UNL     1      44.160 -17.886   6.865  1.00  0.00     0.201 A 
BRANCH  34  35
HETATM   35  N   UNL     1      44.480 -16.597   6.669  1.00  0.00    -0.379 N 
HETATM   36  H   UNL     1      45.081 -16.115   7.333  1.00  0.00     0.158 HD
HETATM   37  H   UNL     1      44.332 -16.103   5.792  1.00  0.00     0.158 HD
ENDBRANCH  34  35
ENDBRANCH   2  30
TORSDOF 8
ENDMDL
