MODEL 1
REMARK VINA RESULT:      -9.1      0.000      0.000
REMARK  9 active torsions:
REMARK  status: ('A' for Active; 'I' for Inactive)
REMARK       I    between atoms: C_2  and  N_3 
REMARK    1  A    between atoms: N_3  and  C_4 
REMARK    2  A    between atoms: C_6  and  O_7 
REMARK    3  A    between atoms: O_7  and  C_8 
REMARK    4  A    between atoms: C_8  and  C_9 
REMARK    5  A    between atoms: C_9  and  C_10 
REMARK    6  A    between atoms: C_10  and  C_11 
REMARK    7  A    between atoms: C_11  and  N_12 
REMARK       I    between atoms: N_12  and  C_13 
REMARK    8  A    between atoms: C_13  and  C_14 
REMARK    9  A    between atoms: C_18  and  C_19 
ROOT
HETATM    1  C   UNL     1      44.990 -13.911   7.015  1.00  0.00     0.217 C 
ENDROOT
BRANCH   1   2
HETATM    2  C   UNL     1      44.524 -15.356   6.958  1.00  0.00    -0.085 C 
BRANCH   2   3
HETATM    3  C   UNL     1      44.124 -16.596   6.909  1.00  0.00    -0.078 C 
BRANCH   3   4
HETATM    4  C   UNL     1      43.658 -18.042   6.853  1.00  0.00     0.269 C 
BRANCH   4   5
HETATM    5  O   UNL     1      44.624 -18.842   6.178  1.00  0.00    -0.339 OA
BRANCH   5   6
HETATM    6  C   UNL     1      44.297 -19.217   4.899  1.00  0.00     0.072 A 
HETATM    7  C   UNL     1      43.425 -18.534   4.041  1.00  0.00     0.066 A 
HETATM    8  C   UNL     1      43.178 -19.001   2.746  1.00  0.00     0.037 A 
HETATM    9  C   UNL     1      43.806 -20.177   2.319  1.00  0.00     0.029 A 
HETATM   10  C   UNL     1      44.671 -20.868   3.169  1.00  0.00     0.005 A 
HETATM   11  C   UNL     1      44.916 -20.386   4.454  1.00  0.00     0.037 A 
BRANCH   8  12
HETATM   12  N   UNL     1      42.323 -18.353   1.827  1.00  0.00    -0.327 N 
HETATM   13  C   UNL     1      42.501 -17.113   1.239  1.00  0.00     0.218 C 
HETATM   14  C   UNL     1      41.382 -16.751   0.294  1.00  0.00     0.117 C 
HETATM   15  O   UNL     1      43.453 -16.354   1.394  1.00  0.00    -0.274 OA
HETATM   16  H   UNL     1      41.495 -18.870   1.559  1.00  0.00     0.169 HD
ENDBRANCH   8  12
ENDBRANCH   5   6
ENDBRANCH   4   5
ENDBRANCH   3   4
ENDBRANCH   2   3
ENDBRANCH   1   2
BRANCH   1  17
HETATM   17  N   UNL     1      44.445 -13.302   8.199  1.00  0.00    -0.345 N 
HETATM   18  C   UNL     1      45.131 -12.334   8.885  1.00  0.00     0.270 C 
HETATM   19  O   UNL     1      46.216 -11.899   8.511  1.00  0.00    -0.266 OA
HETATM   20  H   UNL     1      43.612 -13.706   8.597  1.00  0.00     0.163 HD
BRANCH  18  21
HETATM   21  C   UNL     1      44.491 -11.867  10.085  1.00  0.00     0.120 A 
HETATM   22  N   UNL     1      43.960 -12.733  10.999  1.00  0.00    -0.272 N 
HETATM   23  H   UNL     1      43.962 -13.748  10.946  1.00  0.00     0.189 HD
HETATM   24  N   UNL     1      43.378 -12.138  12.050  1.00  0.00    -0.174 NA
HETATM   25  C   UNL     1      43.550 -10.824  11.838  1.00  0.00     0.089 A 
HETATM   26  C   UNL     1      44.248 -10.614  10.614  1.00  0.00     0.071 A 
BRANCH  25  27
HETATM   27  C   UNL     1      43.047  -9.816  12.777  1.00  0.00    -0.006 A 
HETATM   28  C   UNL     1      42.828  -8.490  12.375  1.00  0.00     0.014 A 
HETATM   29  C   UNL     1      42.333  -7.541  13.276  1.00  0.00     0.001 A 
HETATM   30  C   UNL     1      42.052  -7.906  14.591  1.00  0.00     0.000 A 
HETATM   31  C   UNL     1      42.269  -9.216  15.008  1.00  0.00     0.001 A 
HETATM   32  C   UNL     1      42.765 -10.164  14.108  1.00  0.00     0.014 A 
ENDBRANCH  25  27
ENDBRANCH  18  21
ENDBRANCH   1  17
TORSDOF 9
ENDMDL
MODEL 2
REMARK VINA RESULT:      -8.9      1.283      1.571
REMARK  9 active torsions:
REMARK  status: ('A' for Active; 'I' for Inactive)
REMARK       I    between atoms: C_2  and  N_3 
REMARK    1  A    between atoms: N_3  and  C_4 
REMARK    2  A    between atoms: C_6  and  O_7 
REMARK    3  A    between atoms: O_7  and  C_8 
REMARK    4  A    between atoms: C_8  and  C_9 
REMARK    5  A    between atoms: C_9  and  C_10 
REMARK    6  A    between atoms: C_10  and  C_11 
REMARK    7  A    between atoms: C_11  and  N_12 
REMARK       I    between atoms: N_12  and  C_13 
REMARK    8  A    between atoms: C_13  and  C_14 
REMARK    9  A    between atoms: C_18  and  C_19 
ROOT
HETATM    1  C   UNL     1      45.064 -13.575   7.261  1.00  0.00     0.217 C 
ENDROOT
BRANCH   1   2
HETATM    2  C   UNL     1      44.506 -14.967   7.010  1.00  0.00    -0.085 C 
BRANCH   2   3
HETATM    3  C   UNL     1      44.027 -16.160   6.795  1.00  0.00    -0.078 C 
BRANCH   3   4
HETATM    4  C   UNL     1      43.468 -17.551   6.544  1.00  0.00     0.269 C 
BRANCH   4   5
HETATM    5  O   UNL     1      44.103 -18.138   5.413  1.00  0.00    -0.339 OA
BRANCH   5   6
HETATM    6  C   UNL     1      43.395 -18.083   4.238  1.00  0.00     0.072 A 
HETATM    7  C   UNL     1      42.196 -17.387   4.034  1.00  0.00     0.066 A 
HETATM    8  C   UNL     1      41.568 -17.389   2.785  1.00  0.00     0.037 A 
HETATM    9  C   UNL     1      42.148 -18.111   1.735  1.00  0.00     0.029 A 
HETATM   10  C   UNL     1      43.340 -18.812   1.931  1.00  0.00     0.005 A 
HETATM   11  C   UNL     1      43.960 -18.795   3.179  1.00  0.00     0.037 A 
BRANCH   8  12
HETATM   12  N   UNL     1      40.367 -16.697   2.509  1.00  0.00    -0.327 N 
HETATM   13  C   UNL     1      40.228 -15.439   1.950  1.00  0.00     0.218 C 
HETATM   14  C   UNL     1      38.785 -15.029   1.792  1.00  0.00     0.117 C 
HETATM   15  O   UNL     1      41.130 -14.697   1.570  1.00  0.00    -0.274 OA
HETATM   16  H   UNL     1      39.514 -17.194   2.731  1.00  0.00     0.169 HD
ENDBRANCH   8  12
ENDBRANCH   5   6
ENDBRANCH   4   5
ENDBRANCH   3   4
ENDBRANCH   2   3
ENDBRANCH   1   2
BRANCH   1  17
HETATM   17  N   UNL     1      44.475 -13.060   8.469  1.00  0.00    -0.345 N 
HETATM   18  C   UNL     1      45.005 -11.974   9.116  1.00  0.00     0.270 C 
HETATM   19  O   UNL     1      45.974 -11.355   8.686  1.00  0.00    -0.266 OA
HETATM   20  H   UNL     1      43.749 -13.603   8.910  1.00  0.00     0.163 HD
BRANCH  18  21
HETATM   21  C   UNL     1      44.350 -11.615  10.344  1.00  0.00     0.120 A 
HETATM   22  N   UNL     1      43.815 -12.559  11.175  1.00  0.00    -0.272 N 
HETATM   23  H   UNL     1      43.824 -13.565  11.035  1.00  0.00     0.189 HD
HETATM   24  N   UNL     1      43.218 -12.059  12.266  1.00  0.00    -0.174 NA
HETATM   25  C   UNL     1      43.385 -10.731  12.169  1.00  0.00     0.089 A 
HETATM   26  C   UNL     1      44.094 -10.413  10.975  1.00  0.00     0.071 A 
BRANCH  25  27
HETATM   27  C   UNL     1      42.865  -9.810  13.186  1.00  0.00    -0.006 A 
HETATM   28  C   UNL     1      42.724  -8.439  12.923  1.00  0.00     0.014 A 
HETATM   29  C   UNL     1      42.214  -7.572  13.896  1.00  0.00     0.001 A 
HETATM   30  C   UNL     1      41.838  -8.066  15.143  1.00  0.00     0.000 A 
HETATM   31  C   UNL     1      41.976  -9.423  15.422  1.00  0.00     0.001 A 
HETATM   32  C   UNL     1      42.488 -10.288  14.451  1.00  0.00     0.014 A 
ENDBRANCH  25  27
ENDBRANCH  18  21
ENDBRANCH   1  17
TORSDOF 9
ENDMDL
MODEL 3
REMARK VINA RESULT:      -8.9      1.428      2.777
REMARK  9 active torsions:
REMARK  status: ('A' for Active; 'I' for Inactive)
REMARK       I    between atoms: C_2  and  N_3 
REMARK    1  A    between atoms: N_3  and  C_4 
REMARK    2  A    between atoms: C_6  and  O_7 
REMARK    3  A    between atoms: O_7  and  C_8 
REMARK    4  A    between atoms: C_8  and  C_9 
REMARK    5  A    between atoms: C_9  and  C_10 
REMARK    6  A    between atoms: C_10  and  C_11 
REMARK    7  A    between atoms: C_11  and  N_12 
REMARK       I    between atoms: N_12  and  C_13 
REMARK    8  A    between atoms: C_13  and  C_14 
REMARK    9  A    between atoms: C_18  and  C_19 
ROOT
HETATM    1  C   UNL     1      45.027 -13.402   7.500  1.00  0.00     0.217 C 
ENDROOT
BRANCH   1   2
HETATM    2  C   UNL     1      44.132 -14.509   6.966  1.00  0.00    -0.085 C 
BRANCH   2   3
HETATM    3  C   UNL     1      43.365 -15.457   6.507  1.00  0.00    -0.078 C 
BRANCH   3   4
HETATM    4  C   UNL     1      42.470 -16.564   5.973  1.00  0.00     0.269 C 
BRANCH   4   5
HETATM    5  O   UNL     1      42.000 -16.229   4.671  1.00  0.00    -0.339 OA
BRANCH   5   6
HETATM    6  C   UNL     1      42.598 -16.895   3.631  1.00  0.00     0.072 A 
HETATM    7  C   UNL     1      42.848 -18.272   3.575  1.00  0.00     0.066 A 
HETATM    8  C   UNL     1      43.452 -18.848   2.453  1.00  0.00     0.037 A 
HETATM    9  C   UNL     1      43.820 -18.023   1.383  1.00  0.00     0.029 A 
HETATM   10  C   UNL     1      43.580 -16.649   1.433  1.00  0.00     0.005 A 
HETATM   11  C   UNL     1      42.969 -16.089   2.554  1.00  0.00     0.037 A 
BRANCH   8  12
HETATM   12  N   UNL     1      43.719 -20.230   2.327  1.00  0.00    -0.327 N 
HETATM   13  C   UNL     1      44.581 -20.996   3.091  1.00  0.00     0.218 C 
HETATM   14  C   UNL     1      44.596 -22.446   2.673  1.00  0.00     0.117 C 
HETATM   15  O   UNL     1      45.261 -20.616   4.039  1.00  0.00    -0.274 OA
HETATM   16  H   UNL     1      43.200 -20.712   1.603  1.00  0.00     0.169 HD
ENDBRANCH   8  12
ENDBRANCH   5   6
ENDBRANCH   4   5
ENDBRANCH   3   4
ENDBRANCH   2   3
ENDBRANCH   1   2
BRANCH   1  17
HETATM   17  N   UNL     1      44.443 -12.889   8.711  1.00  0.00    -0.345 N 
HETATM   18  C   UNL     1      44.917 -11.749   9.305  1.00  0.00     0.270 C 
HETATM   19  O   UNL     1      45.825 -11.079   8.823  1.00  0.00    -0.266 OA
HETATM   20  H   UNL     1      43.771 -13.466   9.193  1.00  0.00     0.163 HD
BRANCH  18  21
HETATM   21  C   UNL     1      44.278 -11.395  10.544  1.00  0.00     0.120 A 
HETATM   22  N   UNL     1      43.840 -12.345  11.422  1.00  0.00    -0.272 N 
HETATM   23  H   UNL     1      43.916 -13.353  11.314  1.00  0.00     0.189 HD
HETATM   24  N   UNL     1      43.244 -11.852  12.517  1.00  0.00    -0.174 NA
HETATM   25  C   UNL     1      43.313 -10.519  12.372  1.00  0.00     0.089 A 
HETATM   26  C   UNL     1      43.958 -10.193  11.145  1.00  0.00     0.071 A 
BRANCH  25  27
HETATM   27  C   UNL     1      42.762  -9.602  13.377  1.00  0.00    -0.006 A 
HETATM   28  C   UNL     1      42.397 -10.054  14.654  1.00  0.00     0.014 A 
HETATM   29  C   UNL     1      41.886  -9.167  15.608  1.00  0.00     0.001 A 
HETATM   30  C   UNL     1      41.734  -7.818  15.296  1.00  0.00     0.000 A 
HETATM   31  C   UNL     1      42.085  -7.354  14.032  1.00  0.00     0.001 A 
HETATM   32  C   UNL     1      42.593  -8.240  13.078  1.00  0.00     0.014 A 
ENDBRANCH  25  27
ENDBRANCH  18  21
ENDBRANCH   1  17
TORSDOF 9
ENDMDL
MODEL 4
REMARK VINA RESULT:      -8.5      3.323     10.768
REMARK  9 active torsions:
REMARK  status: ('A' for Active; 'I' for Inactive)
REMARK       I    between atoms: C_2  and  N_3 
REMARK    1  A    between atoms: N_3  and  C_4 
REMARK    2  A    between atoms: C_6  and  O_7 
REMARK    3  A    between atoms: O_7  and  C_8 
REMARK    4  A    between atoms: C_8  and  C_9 
REMARK    5  A    between atoms: C_9  and  C_10 
REMARK    6  A    between atoms: C_10  and  C_11 
REMARK    7  A    between atoms: C_11  and  N_12 
REMARK       I    between atoms: N_12  and  C_13 
REMARK    8  A    between atoms: C_13  and  C_14 
REMARK    9  A    between atoms: C_18  and  C_19 
ROOT
HETATM    1  C   UNL     1      39.080 -12.753   6.204  1.00  0.00     0.217 C 
ENDROOT
BRANCH   1   2
HETATM    2  C   UNL     1      39.295 -11.945   7.474  1.00  0.00    -0.085 C 
BRANCH   2   3
HETATM    3  C   UNL     1      39.481 -11.253   8.562  1.00  0.00    -0.078 C 
BRANCH   3   4
HETATM    4  C   UNL     1      39.697 -10.445   9.831  1.00  0.00     0.269 C 
BRANCH   4   5
HETATM    5  O   UNL     1      40.313 -11.253  10.829  1.00  0.00    -0.339 OA
BRANCH   5   6
HETATM    6  C   UNL     1      41.632 -10.977  11.089  1.00  0.00     0.072 A 
HETATM    7  C   UNL     1      42.689 -11.091  10.177  1.00  0.00     0.066 A 
HETATM    8  C   UNL     1      43.997 -10.765  10.549  1.00  0.00     0.037 A 
HETATM    9  C   UNL     1      44.242 -10.334  11.858  1.00  0.00     0.029 A 
HETATM   10  C   UNL     1      43.196 -10.224  12.775  1.00  0.00     0.005 A 
HETATM   11  C   UNL     1      41.895 -10.543  12.389  1.00  0.00     0.037 A 
BRANCH   8  12
HETATM   12  N   UNL     1      45.105 -10.843   9.675  1.00  0.00    -0.327 N 
HETATM   13  C   UNL     1      45.633 -11.976   9.082  1.00  0.00     0.218 C 
HETATM   14  C   UNL     1      46.814 -11.670   8.194  1.00  0.00     0.117 C 
HETATM   15  O   UNL     1      45.219 -13.126   9.191  1.00  0.00    -0.274 OA
HETATM   16  H   UNL     1      45.546  -9.961   9.446  1.00  0.00     0.169 HD
ENDBRANCH   8  12
ENDBRANCH   5   6
ENDBRANCH   4   5
ENDBRANCH   3   4
ENDBRANCH   2   3
ENDBRANCH   1   2
BRANCH   1  17
HETATM   17  N   UNL     1      39.958 -13.893   6.235  1.00  0.00    -0.345 N 
HETATM   18  C   UNL     1      40.323 -14.544   5.086  1.00  0.00     0.270 C 
HETATM   19  O   UNL     1      39.966 -14.174   3.972  1.00  0.00    -0.266 OA
HETATM   20  H   UNL     1      40.184 -14.291   7.133  1.00  0.00     0.163 HD
BRANCH  18  21
HETATM   21  C   UNL     1      41.151 -15.704   5.278  1.00  0.00     0.120 A 
HETATM   22  N   UNL     1      41.496 -16.140   6.526  1.00  0.00    -0.272 N 
HETATM   23  H   UNL     1      41.219 -15.726   7.412  1.00  0.00     0.189 HD
HETATM   24  N   UNL     1      42.292 -17.219   6.534  1.00  0.00    -0.174 NA
HETATM   25  C   UNL     1      42.462 -17.527   5.239  1.00  0.00     0.089 A 
HETATM   26  C   UNL     1      41.758 -16.599   4.418  1.00  0.00     0.071 A 
BRANCH  25  27
HETATM   27  C   UNL     1      43.285 -18.666   4.815  1.00  0.00    -0.006 A 
HETATM   28  C   UNL     1      43.863 -19.536   5.752  1.00  0.00     0.014 A 
HETATM   29  C   UNL     1      44.633 -20.626   5.336  1.00  0.00     0.001 A 
HETATM   30  C   UNL     1      44.837 -20.860   3.978  1.00  0.00     0.000 A 
HETATM   31  C   UNL     1      44.276 -20.003   3.035  1.00  0.00     0.001 A 
HETATM   32  C   UNL     1      43.508 -18.913   3.451  1.00  0.00     0.014 A 
ENDBRANCH  25  27
ENDBRANCH  18  21
ENDBRANCH   1  17
TORSDOF 9
ENDMDL
MODEL 5
REMARK VINA RESULT:      -8.3      1.935      3.068
REMARK  9 active torsions:
REMARK  status: ('A' for Active; 'I' for Inactive)
REMARK       I    between atoms: C_2  and  N_3 
REMARK    1  A    between atoms: N_3  and  C_4 
REMARK    2  A    between atoms: C_6  and  O_7 
REMARK    3  A    between atoms: O_7  and  C_8 
REMARK    4  A    between atoms: C_8  and  C_9 
REMARK    5  A    between atoms: C_9  and  C_10 
REMARK    6  A    between atoms: C_10  and  C_11 
REMARK    7  A    between atoms: C_11  and  N_12 
REMARK       I    between atoms: N_12  and  C_13 
REMARK    8  A    between atoms: C_13  and  C_14 
REMARK    9  A    between atoms: C_18  and  C_19 
ROOT
HETATM    1  C   UNL     1      44.922 -14.077   7.056  1.00  0.00     0.217 C 
ENDROOT
BRANCH   1   2
HETATM    2  C   UNL     1      44.245 -13.955   5.700  1.00  0.00    -0.085 C 
BRANCH   2   3
HETATM    3  C   UNL     1      43.664 -13.852   4.538  1.00  0.00    -0.078 C 
BRANCH   3   4
HETATM    4  C   UNL     1      42.987 -13.731   3.182  1.00  0.00     0.269 C 
BRANCH   4   5
HETATM    5  O   UNL     1      41.817 -14.541   3.145  1.00  0.00    -0.339 OA
BRANCH   5   6
HETATM    6  C   UNL     1      41.927 -15.775   3.736  1.00  0.00     0.072 A 
HETATM    7  C   UNL     1      42.823 -16.786   3.363  1.00  0.00     0.066 A 
HETATM    8  C   UNL     1      42.859 -18.004   4.050  1.00  0.00     0.037 A 
HETATM    9  C   UNL     1      41.972 -18.208   5.113  1.00  0.00     0.029 A 
HETATM   10  C   UNL     1      41.072 -17.209   5.488  1.00  0.00     0.005 A 
HETATM   11  C   UNL     1      41.053 -15.996   4.801  1.00  0.00     0.037 A 
BRANCH   8  12
HETATM   12  N   UNL     1      43.747 -19.057   3.735  1.00  0.00    -0.327 N 
HETATM   13  C   UNL     1      43.676 -19.927   2.662  1.00  0.00     0.218 C 
HETATM   14  C   UNL     1      44.812 -20.920   2.642  1.00  0.00     0.117 C 
HETATM   15  O   UNL     1      42.833 -19.930   1.769  1.00  0.00    -0.274 OA
HETATM   16  H   UNL     1      44.534 -19.169   4.361  1.00  0.00     0.169 HD
ENDBRANCH   8  12
ENDBRANCH   5   6
ENDBRANCH   4   5
ENDBRANCH   3   4
ENDBRANCH   2   3
ENDBRANCH   1   2
BRANCH   1  17
HETATM   17  N   UNL     1      44.229 -13.227   7.988  1.00  0.00    -0.345 N 
HETATM   18  C   UNL     1      44.903 -12.536   8.961  1.00  0.00     0.270 C 
HETATM   19  O   UNL     1      46.125 -12.563   9.068  1.00  0.00    -0.266 OA
HETATM   20  H   UNL     1      43.222 -13.263   8.002  1.00  0.00     0.163 HD
BRANCH  18  21
HETATM   21  C   UNL     1      44.072 -11.781   9.860  1.00  0.00     0.120 A 
HETATM   22  N   UNL     1      42.804 -11.404   9.519  1.00  0.00    -0.272 N 
HETATM   23  H   UNL     1      42.324 -11.608   8.647  1.00  0.00     0.189 HD
HETATM   24  N   UNL     1      42.171 -10.684  10.457  1.00  0.00    -0.174 NA
HETATM   25  C   UNL     1      43.046 -10.600  11.471  1.00  0.00     0.089 A 
HETATM   26  C   UNL     1      44.252 -11.279  11.135  1.00  0.00     0.071 A 
BRANCH  25  27
HETATM   27  C   UNL     1      42.728  -9.879  12.709  1.00  0.00    -0.006 A 
HETATM   28  C   UNL     1      42.644  -8.479  12.735  1.00  0.00     0.014 A 
HETATM   29  C   UNL     1      42.326  -7.803  13.918  1.00  0.00     0.001 A 
HETATM   30  C   UNL     1      42.089  -8.519  15.090  1.00  0.00     0.000 A 
HETATM   31  C   UNL     1      42.175  -9.909  15.082  1.00  0.00     0.001 A 
HETATM   32  C   UNL     1      42.494 -10.583  13.901  1.00  0.00     0.014 A 
ENDBRANCH  25  27
ENDBRANCH  18  21
ENDBRANCH   1  17
TORSDOF 9
ENDMDL
MODEL 6
REMARK VINA RESULT:      -8.3      3.297     11.512
REMARK  9 active torsions:
REMARK  status: ('A' for Active; 'I' for Inactive)
REMARK       I    between atoms: C_2  and  N_3 
REMARK    1  A    between atoms: N_3  and  C_4 
REMARK    2  A    between atoms: C_6  and  O_7 
REMARK    3  A    between atoms: O_7  and  C_8 
REMARK    4  A    between atoms: C_8  and  C_9 
REMARK    5  A    between atoms: C_9  and  C_10 
REMARK    6  A    between atoms: C_10  and  C_11 
REMARK    7  A    between atoms: C_11  and  N_12 
REMARK       I    between atoms: N_12  and  C_13 
REMARK    8  A    between atoms: C_13  and  C_14 
REMARK    9  A    between atoms: C_18  and  C_19 
ROOT
HETATM    1  C   UNL     1      39.132 -13.308   6.030  1.00  0.00     0.217 C 
ENDROOT
BRANCH   1   2
HETATM    2  C   UNL     1      39.754 -12.129   6.762  1.00  0.00    -0.085 C 
BRANCH   2   3
HETATM    3  C   UNL     1      40.288 -11.120   7.389  1.00  0.00    -0.078 C 
BRANCH   3   4
HETATM    4  C   UNL     1      40.911  -9.942   8.121  1.00  0.00     0.269 C 
BRANCH   4   5
HETATM    5  O   UNL     1      42.332 -10.037   8.084  1.00  0.00    -0.339 OA
BRANCH   5   6
HETATM    6  C   UNL     1      42.926 -10.516   9.224  1.00  0.00     0.072 A 
HETATM    7  C   UNL     1      42.695 -10.054  10.526  1.00  0.00     0.066 A 
HETATM    8  C   UNL     1      43.348 -10.631  11.620  1.00  0.00     0.037 A 
HETATM    9  C   UNL     1      44.254 -11.674  11.396  1.00  0.00     0.029 A 
HETATM   10  C   UNL     1      44.495 -12.137  10.101  1.00  0.00     0.005 A 
HETATM   11  C   UNL     1      43.830 -11.560   9.020  1.00  0.00     0.037 A 
BRANCH   8  12
HETATM   12  N   UNL     1      43.149 -10.222  12.958  1.00  0.00    -0.327 N 
HETATM   13  C   UNL     1      42.049 -10.467  13.760  1.00  0.00     0.218 C 
HETATM   14  C   UNL     1      42.197  -9.884  15.144  1.00  0.00     0.117 C 
HETATM   15  O   UNL     1      41.046 -11.107  13.459  1.00  0.00    -0.274 OA
HETATM   16  H   UNL     1      43.913  -9.707  13.378  1.00  0.00     0.169 HD
ENDBRANCH   8  12
ENDBRANCH   5   6
ENDBRANCH   4   5
ENDBRANCH   3   4
ENDBRANCH   2   3
ENDBRANCH   1   2
BRANCH   1  17
HETATM   17  N   UNL     1      40.161 -14.280   5.775  1.00  0.00    -0.345 N 
HETATM   18  C   UNL     1      40.364 -14.793   4.520  1.00  0.00     0.270 C 
HETATM   19  O   UNL     1      39.721 -14.426   3.542  1.00  0.00    -0.266 OA
HETATM   20  H   UNL     1      40.636 -14.685   6.567  1.00  0.00     0.163 HD
BRANCH  18  21
HETATM   21  C   UNL     1      41.384 -15.804   4.431  1.00  0.00     0.120 A 
HETATM   22  N   UNL     1      42.554 -15.706   5.130  1.00  0.00    -0.272 N 
HETATM   23  H   UNL     1      42.822 -14.958   5.764  1.00  0.00     0.189 HD
HETATM   24  N   UNL     1      43.409 -16.717   4.919  1.00  0.00    -0.174 NA
HETATM   25  C   UNL     1      42.771 -17.531   4.064  1.00  0.00     0.089 A 
HETATM   26  C   UNL     1      41.494 -16.992   3.735  1.00  0.00     0.071 A 
BRANCH  25  27
HETATM   27  C   UNL     1      43.382 -18.772   3.575  1.00  0.00    -0.006 A 
HETATM   28  C   UNL     1      44.338 -19.463   4.336  1.00  0.00     0.014 A 
HETATM   29  C   UNL     1      44.903 -20.653   3.866  1.00  0.00     0.001 A 
HETATM   30  C   UNL     1      44.520 -21.167   2.629  1.00  0.00     0.000 A 
HETATM   31  C   UNL     1      43.577 -20.492   1.859  1.00  0.00     0.001 A 
HETATM   32  C   UNL     1      43.014 -19.302   2.327  1.00  0.00     0.014 A 
ENDBRANCH  25  27
ENDBRANCH  18  21
ENDBRANCH   1  17
TORSDOF 9
ENDMDL
MODEL 7
REMARK VINA RESULT:      -8.2      5.627      7.181
REMARK  9 active torsions:
REMARK  status: ('A' for Active; 'I' for Inactive)
REMARK       I    between atoms: C_2  and  N_3 
REMARK    1  A    between atoms: N_3  and  C_4 
REMARK    2  A    between atoms: C_6  and  O_7 
REMARK    3  A    between atoms: O_7  and  C_8 
REMARK    4  A    between atoms: C_8  and  C_9 
REMARK    5  A    between atoms: C_9  and  C_10 
REMARK    6  A    between atoms: C_10  and  C_11 
REMARK    7  A    between atoms: C_11  and  N_12 
REMARK       I    between atoms: N_12  and  C_13 
REMARK    8  A    between atoms: C_13  and  C_14 
REMARK    9  A    between atoms: C_18  and  C_19 
ROOT
HETATM    1  C   UNL     1      43.400 -17.378   8.065  1.00  0.00     0.217 C 
ENDROOT
BRANCH   1   2
HETATM    2  C   UNL     1      43.608 -18.778   7.510  1.00  0.00    -0.085 C 
BRANCH   2   3
HETATM    3  C   UNL     1      43.787 -19.978   7.034  1.00  0.00    -0.078 C 
BRANCH   3   4
HETATM    4  C   UNL     1      43.995 -21.378   6.479  1.00  0.00     0.269 C 
BRANCH   4   5
HETATM    5  O   UNL     1      45.020 -21.366   5.490  1.00  0.00    -0.339 OA
BRANCH   5   6
HETATM    6  C   UNL     1      44.618 -21.039   4.220  1.00  0.00     0.072 A 
HETATM    7  C   UNL     1      44.391 -19.742   3.740  1.00  0.00     0.066 A 
HETATM    8  C   UNL     1      43.997 -19.525   2.415  1.00  0.00     0.037 A 
HETATM    9  C   UNL     1      43.819 -20.628   1.571  1.00  0.00     0.029 A 
HETATM   10  C   UNL     1      44.039 -21.924   2.043  1.00  0.00     0.005 A 
HETATM   11  C   UNL     1      44.439 -22.126   3.363  1.00  0.00     0.037 A 
BRANCH   8  12
HETATM   12  N   UNL     1      43.766 -18.245   1.864  1.00  0.00    -0.327 N 
HETATM   13  C   UNL     1      42.546 -17.638   1.624  1.00  0.00     0.218 C 
HETATM   14  C   UNL     1      42.690 -16.255   1.038  1.00  0.00     0.117 C 
HETATM   15  O   UNL     1      41.434 -18.097   1.866  1.00  0.00    -0.274 OA
HETATM   16  H   UNL     1      44.594 -17.708   1.641  1.00  0.00     0.169 HD
ENDBRANCH   8  12
ENDBRANCH   5   6
ENDBRANCH   4   5
ENDBRANCH   3   4
ENDBRANCH   2   3
ENDBRANCH   1   2
BRANCH   1  17
HETATM   17  N   UNL     1      42.447 -16.694   7.232  1.00  0.00    -0.345 N 
HETATM   18  C   UNL     1      42.828 -15.675   6.399  1.00  0.00     0.270 C 
HETATM   19  O   UNL     1      43.996 -15.318   6.280  1.00  0.00    -0.266 OA
HETATM   20  H   UNL     1      41.468 -16.884   7.380  1.00  0.00     0.163 HD
BRANCH  18  21
HETATM   21  C   UNL     1      41.756 -15.043   5.678  1.00  0.00     0.120 A 
HETATM   22  N   UNL     1      40.761 -14.364   6.322  1.00  0.00    -0.272 N 
HETATM   23  H   UNL     1      40.670 -14.226   7.324  1.00  0.00     0.189 HD
HETATM   24  N   UNL     1      39.825 -13.855   5.508  1.00  0.00    -0.174 NA
HETATM   25  C   UNL     1      40.228 -14.188   4.272  1.00  0.00     0.089 A 
HETATM   26  C   UNL     1      41.440 -14.934   4.337  1.00  0.00     0.071 A 
BRANCH  25  27
HETATM   27  C   UNL     1      39.461 -13.810   3.079  1.00  0.00    -0.006 A 
HETATM   28  C   UNL     1      39.108 -14.760   2.109  1.00  0.00     0.014 A 
HETATM   29  C   UNL     1      38.365 -14.390   0.983  1.00  0.00     0.001 A 
HETATM   30  C   UNL     1      37.965 -13.066   0.814  1.00  0.00     0.000 A 
HETATM   31  C   UNL     1      38.312 -12.110   1.764  1.00  0.00     0.001 A 
HETATM   32  C   UNL     1      39.056 -12.479   2.888  1.00  0.00     0.014 A 
ENDBRANCH  25  27
ENDBRANCH  18  21
ENDBRANCH   1  17
TORSDOF 9
ENDMDL
MODEL 8
REMARK VINA RESULT:      -8.2      3.280      3.935
REMARK  9 active torsions:
REMARK  status: ('A' for Active; 'I' for Inactive)
REMARK       I    between atoms: C_2  and  N_3 
REMARK    1  A    between atoms: N_3  and  C_4 
REMARK    2  A    between atoms: C_6  and  O_7 
REMARK    3  A    between atoms: O_7  and  C_8 
REMARK    4  A    between atoms: C_8  and  C_9 
REMARK    5  A    between atoms: C_9  and  C_10 
REMARK    6  A    between atoms: C_10  and  C_11 
REMARK    7  A    between atoms: C_11  and  N_12 
REMARK       I    between atoms: N_12  and  C_13 
REMARK    8  A    between atoms: C_13  and  C_14 
REMARK    9  A    between atoms: C_18  and  C_19 
ROOT
HETATM    1  C   UNL     1      39.017 -12.875   6.081  1.00  0.00     0.217 C 
ENDROOT
BRANCH   1   2
HETATM    2  C   UNL     1      39.809 -13.917   5.306  1.00  0.00    -0.085 C 
BRANCH   2   3
HETATM    3  C   UNL     1      40.487 -14.810   4.642  1.00  0.00    -0.078 C 
BRANCH   3   4
HETATM    4  C   UNL     1      41.278 -15.852   3.867  1.00  0.00     0.269 C 
BRANCH   4   5
HETATM    5  O   UNL     1      42.671 -15.693   4.114  1.00  0.00    -0.339 OA
BRANCH   5   6
HETATM    6  C   UNL     1      43.339 -16.825   4.507  1.00  0.00     0.072 A 
HETATM    7  C   UNL     1      43.591 -17.948   3.708  1.00  0.00     0.066 A 
HETATM    8  C   UNL     1      44.299 -19.045   4.211  1.00  0.00     0.037 A 
HETATM    9  C   UNL     1      44.745 -19.012   5.537  1.00  0.00     0.029 A 
HETATM   10  C   UNL     1      44.494 -17.900   6.342  1.00  0.00     0.005 A 
HETATM   11  C   UNL     1      43.795 -16.810   5.826  1.00  0.00     0.037 A 
BRANCH   8  12
HETATM   12  N   UNL     1      44.599 -20.200   3.454  1.00  0.00    -0.327 N 
HETATM   13  C   UNL     1      43.896 -20.707   2.376  1.00  0.00     0.218 C 
HETATM   14  C   UNL     1      44.525 -21.956   1.808  1.00  0.00     0.117 C 
HETATM   15  O   UNL     1      42.889 -20.230   1.862  1.00  0.00    -0.274 OA
HETATM   16  H   UNL     1      45.436 -20.698   3.728  1.00  0.00     0.169 HD
ENDBRANCH   8  12
ENDBRANCH   5   6
ENDBRANCH   4   5
ENDBRANCH   3   4
ENDBRANCH   2   3
ENDBRANCH   1   2
BRANCH   1  17
HETATM   17  N   UNL     1      39.788 -12.480   7.230  1.00  0.00    -0.345 N 
HETATM   18  C   UNL     1      39.717 -11.208   7.734  1.00  0.00     0.270 C 
HETATM   19  O   UNL     1      38.968 -10.353   7.272  1.00  0.00    -0.266 OA
HETATM   20  H   UNL     1      40.492 -13.117   7.569  1.00  0.00     0.163 HD
BRANCH  18  21
HETATM   21  C   UNL     1      40.593 -10.940   8.843  1.00  0.00     0.120 A 
HETATM   22  N   UNL     1      41.953 -10.962   8.704  1.00  0.00    -0.272 N 
HETATM   23  H   UNL     1      42.473 -11.150   7.852  1.00  0.00     0.189 HD
HETATM   24  N   UNL     1      42.627 -10.717   9.837  1.00  0.00    -0.174 NA
HETATM   25  C   UNL     1      41.677 -10.499  10.759  1.00  0.00     0.089 A 
HETATM   26  C   UNL     1      40.385 -10.628  10.172  1.00  0.00     0.071 A 
BRANCH  25  27
HETATM   27  C   UNL     1      42.009 -10.192  12.155  1.00  0.00    -0.006 A 
HETATM   28  C   UNL     1      43.196  -9.524  12.492  1.00  0.00     0.014 A 
HETATM   29  C   UNL     1      43.495  -9.224  13.825  1.00  0.00     0.001 A 
HETATM   30  C   UNL     1      42.611  -9.588  14.838  1.00  0.00     0.000 A 
HETATM   31  C   UNL     1      41.432 -10.256  14.522  1.00  0.00     0.001 A 
HETATM   32  C   UNL     1      41.134 -10.558  13.191  1.00  0.00     0.014 A 
ENDBRANCH  25  27
ENDBRANCH  18  21
ENDBRANCH   1  17
TORSDOF 9
ENDMDL
MODEL 9
REMARK VINA RESULT:      -7.9      6.403     11.069
REMARK  9 active torsions:
REMARK  status: ('A' for Active; 'I' for Inactive)
REMARK       I    between atoms: C_2  and  N_3 
REMARK    1  A    between atoms: N_3  and  C_4 
REMARK    2  A    between atoms: C_6  and  O_7 
REMARK    3  A    between atoms: O_7  and  C_8 
REMARK    4  A    between atoms: C_8  and  C_9 
REMARK    5  A    between atoms: C_9  and  C_10 
REMARK    6  A    between atoms: C_10  and  C_11 
REMARK    7  A    between atoms: C_11  and  N_12 
REMARK       I    between atoms: N_12  and  C_13 
REMARK    8  A    between atoms: C_13  and  C_14 
REMARK    9  A    between atoms: C_18  and  C_19 
ROOT
HETATM    1  C   UNL     1      40.646 -15.339  -1.861  1.00  0.00     0.217 C 
ENDROOT
BRANCH   1   2
HETATM    2  C   UNL     1      41.010 -13.895  -1.554  1.00  0.00    -0.085 C 
BRANCH   2   3
HETATM    3  C   UNL     1      41.321 -12.657  -1.291  1.00  0.00    -0.078 C 
BRANCH   3   4
HETATM    4  C   UNL     1      41.683 -11.213  -0.984  1.00  0.00     0.269 C 
BRANCH   4   5
HETATM    5  O   UNL     1      42.484 -11.148   0.192  1.00  0.00    -0.339 OA
BRANCH   5   6
HETATM    6  C   UNL     1      41.952 -11.740   1.309  1.00  0.00     0.072 A 
HETATM    7  C   UNL     1      42.328 -12.982   1.837  1.00  0.00     0.066 A 
HETATM    8  C   UNL     1      41.726 -13.482   2.996  1.00  0.00     0.037 A 
HETATM    9  C   UNL     1      40.725 -12.727   3.620  1.00  0.00     0.029 A 
HETATM   10  C   UNL     1      40.341 -11.491   3.098  1.00  0.00     0.005 A 
HETATM   11  C   UNL     1      40.955 -11.000   1.947  1.00  0.00     0.037 A 
BRANCH   8  12
HETATM   12  N   UNL     1      42.068 -14.719   3.588  1.00  0.00    -0.327 N 
HETATM   13  C   UNL     1      43.044 -14.957   4.539  1.00  0.00     0.218 C 
HETATM   14  C   UNL     1      43.115 -16.408   4.949  1.00  0.00     0.117 C 
HETATM   15  O   UNL     1      43.781 -14.127   5.062  1.00  0.00    -0.274 OA
HETATM   16  H   UNL     1      41.518 -15.515   3.290  1.00  0.00     0.169 HD
ENDBRANCH   8  12
ENDBRANCH   5   6
ENDBRANCH   4   5
ENDBRANCH   3   4
ENDBRANCH   2   3
ENDBRANCH   1   2
BRANCH   1  17
HETATM   17  N   UNL     1      41.487 -16.198  -1.070  1.00  0.00    -0.345 N 
HETATM   18  C   UNL     1      41.327 -16.303   0.286  1.00  0.00     0.270 C 
HETATM   19  O   UNL     1      40.440 -15.714   0.896  1.00  0.00    -0.266 OA
HETATM   20  H   UNL     1      42.292 -16.612  -1.515  1.00  0.00     0.163 HD
BRANCH  18  21
HETATM   21  C   UNL     1      42.282 -17.148   0.951  1.00  0.00     0.120 A 
HETATM   22  N   UNL     1      43.600 -16.800   1.052  1.00  0.00    -0.272 N 
HETATM   23  H   UNL     1      44.032 -15.951   0.699  1.00  0.00     0.189 HD
HETATM   24  N   UNL     1      44.363 -17.706   1.679  1.00  0.00    -0.174 NA
HETATM   25  C   UNL     1      43.514 -18.684   2.030  1.00  0.00     0.089 A 
HETATM   26  C   UNL     1      42.196 -18.369   1.592  1.00  0.00     0.071 A 
BRANCH  25  27
HETATM   27  C   UNL     1      43.966 -19.882   2.748  1.00  0.00    -0.006 A 
HETATM   28  C   UNL     1      44.367 -19.818   4.091  1.00  0.00     0.014 A 
HETATM   29  C   UNL     1      44.782 -20.969   4.769  1.00  0.00     0.001 A 
HETATM   30  C   UNL     1      44.803 -22.197   4.112  1.00  0.00     0.000 A 
HETATM   31  C   UNL     1      44.415 -22.277   2.778  1.00  0.00     0.001 A 
HETATM   32  C   UNL     1      44.002 -21.127   2.100  1.00  0.00     0.014 A 
ENDBRANCH  25  27
ENDBRANCH  18  21
ENDBRANCH   1  17
TORSDOF 9
ENDMDL
MODEL 10
REMARK VINA RESULT:      -7.8      4.817      9.562
REMARK  9 active torsions:
REMARK  status: ('A' for Active; 'I' for Inactive)
REMARK       I    between atoms: C_2  and  N_3 
REMARK    1  A    between atoms: N_3  and  C_4 
REMARK    2  A    between atoms: C_6  and  O_7 
REMARK    3  A    between atoms: O_7  and  C_8 
REMARK    4  A    between atoms: C_8  and  C_9 
REMARK    5  A    between atoms: C_9  and  C_10 
REMARK    6  A    between atoms: C_10  and  C_11 
REMARK    7  A    between atoms: C_11  and  N_12 
REMARK       I    between atoms: N_12  and  C_13 
REMARK    8  A    between atoms: C_13  and  C_14 
REMARK    9  A    between atoms: C_18  and  C_19 
ROOT
HETATM    1  C   UNL     1      42.875 -13.149   6.416  1.00  0.00     0.217 C 
ENDROOT
BRANCH   1   2
HETATM    2  C   UNL     1      41.499 -12.730   5.925  1.00  0.00    -0.085 C 
BRANCH   2   3
HETATM    3  C   UNL     1      40.319 -12.370   5.504  1.00  0.00    -0.078 C 
BRANCH   3   4
HETATM    4  C   UNL     1      38.943 -11.951   5.013  1.00  0.00     0.269 C 
BRANCH   4   5
HETATM    5  O   UNL     1      39.028 -11.452   3.682  1.00  0.00    -0.339 OA
BRANCH   5   6
HETATM    6  C   UNL     1      38.795 -12.367   2.686  1.00  0.00     0.072 A 
HETATM    7  C   UNL     1      39.396 -13.628   2.574  1.00  0.00     0.066 A 
HETATM    8  C   UNL     1      39.069 -14.488   1.521  1.00  0.00     0.037 A 
HETATM    9  C   UNL     1      38.136 -14.066   0.565  1.00  0.00     0.029 A 
HETATM   10  C   UNL     1      37.537 -12.810   0.667  1.00  0.00     0.005 A 
HETATM   11  C   UNL     1      37.866 -11.965   1.726  1.00  0.00     0.037 A 
BRANCH   8  12
HETATM   12  N   UNL     1      39.626 -15.776   1.358  1.00  0.00    -0.327 N 
HETATM   13  C   UNL     1      40.905 -16.095   0.939  1.00  0.00     0.218 C 
HETATM   14  C   UNL     1      41.150 -17.583   0.897  1.00  0.00     0.117 C 
HETATM   15  O   UNL     1      41.804 -15.309   0.651  1.00  0.00    -0.274 OA
HETATM   16  H   UNL     1      39.018 -16.550   1.595  1.00  0.00     0.169 HD
ENDBRANCH   8  12
ENDBRANCH   5   6
ENDBRANCH   4   5
ENDBRANCH   3   4
ENDBRANCH   2   3
ENDBRANCH   1   2
BRANCH   1  17
HETATM   17  N   UNL     1      43.099 -14.517   6.028  1.00  0.00    -0.345 N 
HETATM   18  C   UNL     1      43.959 -15.325   6.724  1.00  0.00     0.270 C 
HETATM   19  O   UNL     1      44.548 -14.952   7.734  1.00  0.00    -0.266 OA
HETATM   20  H   UNL     1      42.720 -14.826   5.147  1.00  0.00     0.163 HD
BRANCH  18  21
HETATM   21  C   UNL     1      44.132 -16.645   6.181  1.00  0.00     0.120 A 
HETATM   22  N   UNL     1      44.747 -17.638   6.890  1.00  0.00    -0.272 N 
HETATM   23  H   UNL     1      45.124 -17.568   7.831  1.00  0.00     0.189 HD
HETATM   24  N   UNL     1      44.850 -18.803   6.234  1.00  0.00    -0.174 NA
HETATM   25  C   UNL     1      44.258 -18.581   5.050  1.00  0.00     0.089 A 
HETATM   26  C   UNL     1      43.792 -17.237   4.980  1.00  0.00     0.071 A 
BRANCH  25  27
HETATM   27  C   UNL     1      44.163 -19.627   4.025  1.00  0.00    -0.006 A 
HETATM   28  C   UNL     1      43.582 -19.370   2.774  1.00  0.00     0.014 A 
HETATM   29  C   UNL     1      43.510 -20.371   1.799  1.00  0.00     0.001 A 
HETATM   30  C   UNL     1      44.017 -21.642   2.064  1.00  0.00     0.000 A 
HETATM   31  C   UNL     1      44.592 -21.915   3.302  1.00  0.00     0.001 A 
HETATM   32  C   UNL     1      44.662 -20.915   4.276  1.00  0.00     0.014 A 
ENDBRANCH  25  27
ENDBRANCH  18  21
ENDBRANCH   1  17
TORSDOF 9
ENDMDL
