MODEL 1
REMARK VINA RESULT:      -8.6      0.000      0.000
REMARK  6 active torsions:
REMARK  status: ('A' for Active; 'I' for Inactive)
REMARK    1  A    between atoms: C_2  and  N_3 
REMARK       I    between atoms: N_3  and  C_4 
REMARK    2  A    between atoms: C_4  and  C_5 
REMARK    3  A    between atoms: C_5  and  O_6 
REMARK    4  A    between atoms: O_6  and  C_7 
REMARK    5  A    between atoms: C_9  and  N_10 
REMARK       I    between atoms: N_10  and  C_11 
REMARK    6  A    between atoms: C_11  and  C_12 
ROOT
HETATM    1  N   UNL     1      40.866 -15.717   1.876  1.00  0.00    -0.322 N 
HETATM    2  C   UNL     1      41.215 -17.055   1.823  1.00  0.00     0.277 C 
HETATM    3  O   UNL     1      40.762 -17.892   1.049  1.00  0.00    -0.266 OA
HETATM    4  H   UNL     1      41.329 -15.207   2.625  1.00  0.00     0.169 HD
ENDROOT
BRANCH   1   5
HETATM    5  C   UNL     1      39.939 -15.032   1.072  1.00  0.00     0.037 A 
HETATM    6  C   UNL     1      40.190 -14.660  -0.248  1.00  0.00     0.066 A 
HETATM    7  C   UNL     1      39.218 -14.002  -1.010  1.00  0.00     0.071 A 
HETATM    8  C   UNL     1      37.986 -13.692  -0.443  1.00  0.00     0.037 A 
HETATM    9  C   UNL     1      37.728 -14.049   0.882  1.00  0.00     0.005 A 
HETATM   10  C   UNL     1      38.699 -14.713   1.636  1.00  0.00     0.029 A 
BRANCH   7  11
HETATM   11  O   UNL     1      39.615 -13.702  -2.281  1.00  0.00    -0.342 OA
BRANCH  11  12
HETATM   12  C   UNL     1      39.911 -14.794  -3.149  1.00  0.00     0.278 C 
BRANCH  12  13
HETATM   13  C   UNL     1      38.644 -15.170  -3.920  1.00  0.00     0.241 C 
HETATM   14  N   UNL     1      37.713 -14.155  -4.000  1.00  0.00    -0.360 N 
HETATM   15  H   UNL     1      37.879 -13.347  -3.405  1.00  0.00     0.162 HD
HETATM   16  O   UNL     1      38.504 -16.267  -4.455  1.00  0.00    -0.271 OA
BRANCH  14  17
HETATM   17  C   UNL     1      36.415 -14.323  -4.608  1.00  0.00     0.118 C 
HETATM   18  C   UNL     1      35.789 -12.985  -4.960  1.00  0.00     0.026 C 
ENDBRANCH  14  17
ENDBRANCH  12  13
ENDBRANCH  11  12
ENDBRANCH   7  11
ENDBRANCH   1   5
BRANCH   2  19
HETATM   19  C   UNL     1      42.210 -17.407   2.851  1.00  0.00     0.157 A 
HETATM   20  N   UNL     1      42.442 -16.606   3.917  1.00  0.00    -0.168 NA
HETATM   21  N   UNL     1      43.404 -17.255   4.599  1.00  0.00    -0.277 N 
HETATM   22  H   UNL     1      43.759 -16.833   5.449  1.00  0.00     0.189 HD
HETATM   23  C   UNL     1      43.783 -18.448   4.049  1.00  0.00     0.063 A 
HETATM   24  C   UNL     1      43.020 -18.581   2.897  1.00  0.00     0.029 A 
HETATM   25  C   UNL     1      44.715 -19.406   4.460  1.00  0.00     0.032 A 
HETATM   26  C   UNL     1      43.181 -19.732   2.103  1.00  0.00     0.023 A 
HETATM   27  C   UNL     1      44.101 -20.721   2.493  1.00  0.00    -0.061 A 
HETATM   28  C   UNL     1      44.857 -20.546   3.659  1.00  0.00     0.009 A 
HETATM   29  C   UNL     1      44.258 -21.953   1.649  1.00  0.00     0.048 C 
ENDBRANCH   2  19
TORSDOF 6
ENDMDL
MODEL 2
REMARK VINA RESULT:      -8.4      1.808      2.498
REMARK  6 active torsions:
REMARK  status: ('A' for Active; 'I' for Inactive)
REMARK    1  A    between atoms: C_2  and  N_3 
REMARK       I    between atoms: N_3  and  C_4 
REMARK    2  A    between atoms: C_4  and  C_5 
REMARK    3  A    between atoms: C_5  and  O_6 
REMARK    4  A    between atoms: O_6  and  C_7 
REMARK    5  A    between atoms: C_9  and  N_10 
REMARK       I    between atoms: N_10  and  C_11 
REMARK    6  A    between atoms: C_11  and  C_12 
ROOT
HETATM    1  N   UNL     1      42.062 -17.261   3.514  1.00  0.00    -0.322 N 
HETATM    2  C   UNL     1      43.083 -16.981   4.404  1.00  0.00     0.277 C 
HETATM    3  O   UNL     1      43.577 -15.879   4.618  1.00  0.00    -0.266 OA
HETATM    4  H   UNL     1      41.834 -18.251   3.458  1.00  0.00     0.169 HD
ENDROOT
BRANCH   1   5
HETATM    5  C   UNL     1      41.376 -16.366   2.675  1.00  0.00     0.037 A 
HETATM    6  C   UNL     1      41.603 -16.270   1.302  1.00  0.00     0.066 A 
HETATM    7  C   UNL     1      40.870 -15.378   0.511  1.00  0.00     0.071 A 
HETATM    8  C   UNL     1      39.912 -14.556   1.098  1.00  0.00     0.037 A 
HETATM    9  C   UNL     1      39.687 -14.635   2.473  1.00  0.00     0.005 A 
HETATM   10  C   UNL     1      40.415 -15.534   3.258  1.00  0.00     0.029 A 
BRANCH   7  11
HETATM   11  O   UNL     1      41.209 -15.399  -0.811  1.00  0.00    -0.342 OA
BRANCH  11  12
HETATM   12  C   UNL     1      40.800 -14.290  -1.609  1.00  0.00     0.278 C 
BRANCH  12  13
HETATM   13  C   UNL     1      40.114 -14.816  -2.872  1.00  0.00     0.241 C 
HETATM   14  N   UNL     1      38.744 -14.935  -2.758  1.00  0.00    -0.360 N 
HETATM   15  H   UNL     1      38.362 -14.836  -1.821  1.00  0.00     0.162 HD
HETATM   16  O   UNL     1      40.736 -15.060  -3.902  1.00  0.00    -0.271 OA
BRANCH  14  17
HETATM   17  C   UNL     1      37.913 -15.490  -3.799  1.00  0.00     0.118 C 
HETATM   18  C   UNL     1      36.815 -14.524  -4.209  1.00  0.00     0.026 C 
ENDBRANCH  14  17
ENDBRANCH  12  13
ENDBRANCH  11  12
ENDBRANCH   7  11
ENDBRANCH   1   5
BRANCH   2  19
HETATM   19  C   UNL     1      43.567 -18.194   5.088  1.00  0.00     0.157 A 
HETATM   20  N   UNL     1      43.703 -18.242   6.433  1.00  0.00    -0.168 NA
HETATM   21  N   UNL     1      44.169 -19.484   6.661  1.00  0.00    -0.277 N 
HETATM   22  H   UNL     1      44.366 -19.756   7.617  1.00  0.00     0.189 HD
HETATM   23  C   UNL     1      44.311 -20.252   5.539  1.00  0.00     0.063 A 
HETATM   24  C   UNL     1      43.924 -19.436   4.484  1.00  0.00     0.029 A 
HETATM   25  C   UNL     1      44.735 -21.573   5.364  1.00  0.00     0.032 A 
HETATM   26  C   UNL     1      43.955 -19.955   3.176  1.00  0.00     0.023 A 
HETATM   27  C   UNL     1      44.366 -21.283   2.965  1.00  0.00    -0.061 A 
HETATM   28  C   UNL     1      44.753 -22.071   4.055  1.00  0.00     0.009 A 
HETATM   29  C   UNL     1      44.382 -21.834   1.569  1.00  0.00     0.048 C 
ENDBRANCH   2  19
TORSDOF 6
ENDMDL
MODEL 3
REMARK VINA RESULT:      -8.3      2.022      3.032
REMARK  6 active torsions:
REMARK  status: ('A' for Active; 'I' for Inactive)
REMARK    1  A    between atoms: C_2  and  N_3 
REMARK       I    between atoms: N_3  and  C_4 
REMARK    2  A    between atoms: C_4  and  C_5 
REMARK    3  A    between atoms: C_5  and  O_6 
REMARK    4  A    between atoms: O_6  and  C_7 
REMARK    5  A    between atoms: C_9  and  N_10 
REMARK       I    between atoms: N_10  and  C_11 
REMARK    6  A    between atoms: C_11  and  C_12 
ROOT
HETATM    1  N   UNL     1      41.923 -16.189   4.033  1.00  0.00    -0.322 N 
HETATM    2  C   UNL     1      43.128 -16.619   3.508  1.00  0.00     0.277 C 
HETATM    3  O   UNL     1      43.674 -16.190   2.497  1.00  0.00    -0.266 OA
HETATM    4  H   UNL     1      41.629 -16.712   4.854  1.00  0.00     0.169 HD
ENDROOT
BRANCH   1   5
HETATM    5  C   UNL     1      41.073 -15.184   3.539  1.00  0.00     0.037 A 
HETATM    6  C   UNL     1      40.107 -15.407   2.558  1.00  0.00     0.066 A 
HETATM    7  C   UNL     1      39.270 -14.373   2.122  1.00  0.00     0.071 A 
HETATM    8  C   UNL     1      39.411 -13.095   2.655  1.00  0.00     0.037 A 
HETATM    9  C   UNL     1      40.385 -12.859   3.628  1.00  0.00     0.005 A 
HETATM   10  C   UNL     1      41.212 -13.896   4.066  1.00  0.00     0.029 A 
BRANCH   7  11
HETATM   11  O   UNL     1      38.379 -14.747   1.158  1.00  0.00    -0.342 OA
BRANCH  11  12
HETATM   12  C   UNL     1      37.893 -13.729   0.286  1.00  0.00     0.278 C 
BRANCH  12  13
HETATM   13  C   UNL     1      38.806 -13.650  -0.939  1.00  0.00     0.241 C 
HETATM   14  N   UNL     1      38.576 -14.638  -1.874  1.00  0.00    -0.360 N 
HETATM   15  H   UNL     1      37.969 -15.399  -1.583  1.00  0.00     0.162 HD
HETATM   16  O   UNL     1      39.631 -12.753  -1.084  1.00  0.00    -0.271 OA
BRANCH  14  17
HETATM   17  C   UNL     1      39.380 -14.799  -3.063  1.00  0.00     0.118 C 
HETATM   18  C   UNL     1      40.596 -15.669  -2.798  1.00  0.00     0.026 C 
ENDBRANCH  14  17
ENDBRANCH  12  13
ENDBRANCH  11  12
ENDBRANCH   7  11
ENDBRANCH   1   5
BRANCH   2  19
HETATM   19  C   UNL     1      43.714 -17.717   4.299  1.00  0.00     0.157 A 
HETATM   20  N   UNL     1      44.056 -17.550   5.597  1.00  0.00    -0.168 NA
HETATM   21  N   UNL     1      44.553 -18.750   5.951  1.00  0.00    -0.277 N 
HETATM   22  H   UNL     1      44.896 -18.869   6.898  1.00  0.00     0.189 HD
HETATM   23  C   UNL     1      44.521 -19.693   4.962  1.00  0.00     0.063 A 
HETATM   24  C   UNL     1      43.975 -19.048   3.859  1.00  0.00     0.029 A 
HETATM   25  C   UNL     1      44.915 -21.034   4.942  1.00  0.00     0.032 A 
HETATM   26  C   UNL     1      43.804 -19.773   2.664  1.00  0.00     0.023 A 
HETATM   27  C   UNL     1      44.179 -21.127   2.613  1.00  0.00    -0.061 A 
HETATM   28  C   UNL     1      44.732 -21.738   3.745  1.00  0.00     0.009 A 
HETATM   29  C   UNL     1      43.980 -21.897   1.340  1.00  0.00     0.048 C 
ENDBRANCH   2  19
TORSDOF 6
ENDMDL
MODEL 4
REMARK VINA RESULT:      -8.1      2.163      3.108
REMARK  6 active torsions:
REMARK  status: ('A' for Active; 'I' for Inactive)
REMARK    1  A    between atoms: C_2  and  N_3 
REMARK       I    between atoms: N_3  and  C_4 
REMARK    2  A    between atoms: C_4  and  C_5 
REMARK    3  A    between atoms: C_5  and  O_6 
REMARK    4  A    between atoms: O_6  and  C_7 
REMARK    5  A    between atoms: C_9  and  N_10 
REMARK       I    between atoms: N_10  and  C_11 
REMARK    6  A    between atoms: C_11  and  C_12 
ROOT
HETATM    1  N   UNL     1      40.893 -15.743   2.034  1.00  0.00    -0.322 N 
HETATM    2  C   UNL     1      41.282 -17.062   1.885  1.00  0.00     0.277 C 
HETATM    3  O   UNL     1      40.910 -17.834   1.008  1.00  0.00    -0.266 OA
HETATM    4  H   UNL     1      41.286 -15.295   2.858  1.00  0.00     0.169 HD
ENDROOT
BRANCH   1   5
HETATM    5  C   UNL     1      40.005 -15.007   1.230  1.00  0.00     0.037 A 
HETATM    6  C   UNL     1      40.378 -14.393   0.034  1.00  0.00     0.066 A 
HETATM    7  C   UNL     1      39.445 -13.694  -0.740  1.00  0.00     0.071 A 
HETATM    8  C   UNL     1      38.127 -13.588  -0.308  1.00  0.00     0.037 A 
HETATM    9  C   UNL     1      37.746 -14.187   0.894  1.00  0.00     0.005 A 
HETATM   10  C   UNL     1      38.680 -14.891   1.660  1.00  0.00     0.029 A 
BRANCH   7  11
HETATM   11  O   UNL     1      39.963 -13.149  -1.880  1.00  0.00    -0.342 OA
BRANCH  11  12
HETATM   12  C   UNL     1      41.240 -13.616  -2.308  1.00  0.00     0.278 C 
BRANCH  12  13
HETATM   13  C   UNL     1      42.156 -12.412  -2.534  1.00  0.00     0.241 C 
HETATM   14  N   UNL     1      42.660 -11.864  -1.373  1.00  0.00    -0.360 N 
HETATM   15  H   UNL     1      42.243 -12.191  -0.505  1.00  0.00     0.162 HD
HETATM   16  O   UNL     1      42.446 -12.012  -3.659  1.00  0.00    -0.271 OA
BRANCH  14  17
HETATM   17  C   UNL     1      43.475 -10.673  -1.353  1.00  0.00     0.118 C 
HETATM   18  C   UNL     1      42.770  -9.528  -0.649  1.00  0.00     0.026 C 
ENDBRANCH  14  17
ENDBRANCH  12  13
ENDBRANCH  11  12
ENDBRANCH   7  11
ENDBRANCH   1   5
BRANCH   2  19
HETATM   19  C   UNL     1      42.212 -17.486   2.948  1.00  0.00     0.157 A 
HETATM   20  N   UNL     1      42.385 -16.752   4.071  1.00  0.00    -0.168 NA
HETATM   21  N   UNL     1      43.299 -17.452   4.770  1.00  0.00    -0.277 N 
HETATM   22  H   UNL     1      43.607 -17.084   5.663  1.00  0.00     0.189 HD
HETATM   23  C   UNL     1      43.701 -18.615   4.174  1.00  0.00     0.063 A 
HETATM   24  C   UNL     1      43.006 -18.670   2.972  1.00  0.00     0.029 A 
HETATM   25  C   UNL     1      44.598 -19.606   4.581  1.00  0.00     0.032 A 
HETATM   26  C   UNL     1      43.206 -19.774   2.122  1.00  0.00     0.023 A 
HETATM   27  C   UNL     1      44.092 -20.795   2.507  1.00  0.00    -0.061 A 
HETATM   28  C   UNL     1      44.778 -20.699   3.723  1.00  0.00     0.009 A 
HETATM   29  C   UNL     1      44.288 -21.978   1.601  1.00  0.00     0.048 C 
ENDBRANCH   2  19
TORSDOF 6
ENDMDL
MODEL 5
REMARK VINA RESULT:      -8.1      2.493      2.920
REMARK  6 active torsions:
REMARK  status: ('A' for Active; 'I' for Inactive)
REMARK    1  A    between atoms: C_2  and  N_3 
REMARK       I    between atoms: N_3  and  C_4 
REMARK    2  A    between atoms: C_4  and  C_5 
REMARK    3  A    between atoms: C_5  and  O_6 
REMARK    4  A    between atoms: O_6  and  C_7 
REMARK    5  A    between atoms: C_9  and  N_10 
REMARK       I    between atoms: N_10  and  C_11 
REMARK    6  A    between atoms: C_11  and  C_12 
ROOT
HETATM    1  N   UNL     1      41.801 -16.356   3.319  1.00  0.00    -0.322 N 
HETATM    2  C   UNL     1      43.163 -16.542   3.168  1.00  0.00     0.277 C 
HETATM    3  O   UNL     1      43.894 -15.945   2.384  1.00  0.00    -0.266 OA
HETATM    4  H   UNL     1      41.379 -16.989   3.994  1.00  0.00     0.169 HD
ENDROOT
BRANCH   1   5
HETATM    5  C   UNL     1      40.968 -15.460   2.628  1.00  0.00     0.037 A 
HETATM    6  C   UNL     1      40.780 -15.494   1.246  1.00  0.00     0.066 A 
HETATM    7  C   UNL     1      39.917 -14.592   0.613  1.00  0.00     0.071 A 
HETATM    8  C   UNL     1      39.247 -13.630   1.364  1.00  0.00     0.037 A 
HETATM    9  C   UNL     1      39.439 -13.578   2.746  1.00  0.00     0.005 A 
HETATM   10  C   UNL     1      40.296 -14.487   3.374  1.00  0.00     0.029 A 
BRANCH   7  11
HETATM   11  O   UNL     1      39.840 -14.750  -0.740  1.00  0.00    -0.342 OA
BRANCH  11  12
HETATM   12  C   UNL     1      40.961 -15.339  -1.395  1.00  0.00     0.278 C 
BRANCH  12  13
HETATM   13  C   UNL     1      41.399 -14.426  -2.542  1.00  0.00     0.241 C 
HETATM   14  N   UNL     1      42.328 -13.474  -2.178  1.00  0.00    -0.360 N 
HETATM   15  H   UNL     1      42.487 -13.361  -1.180  1.00  0.00     0.162 HD
HETATM   16  O   UNL     1      40.988 -14.573  -3.690  1.00  0.00    -0.271 OA
BRANCH  14  17
HETATM   17  C   UNL     1      42.812 -12.459  -3.084  1.00  0.00     0.118 C 
HETATM   18  C   UNL     1      42.164 -11.114  -2.809  1.00  0.00     0.026 C 
ENDBRANCH  14  17
ENDBRANCH  12  13
ENDBRANCH  11  12
ENDBRANCH   7  11
ENDBRANCH   1   5
BRANCH   2  19
HETATM   19  C   UNL     1      43.679 -17.597   4.059  1.00  0.00     0.157 A 
HETATM   20  N   UNL     1      43.933 -17.358   5.366  1.00  0.00    -0.168 NA
HETATM   21  N   UNL     1      44.389 -18.540   5.822  1.00  0.00    -0.277 N 
HETATM   22  H   UNL     1      44.664 -18.607   6.795  1.00  0.00     0.189 HD
HETATM   23  C   UNL     1      44.412 -19.538   4.888  1.00  0.00     0.063 A 
HETATM   24  C   UNL     1      43.953 -18.954   3.715  1.00  0.00     0.029 A 
HETATM   25  C   UNL     1      44.790 -20.882   4.973  1.00  0.00     0.032 A 
HETATM   26  C   UNL     1      43.855 -19.745   2.554  1.00  0.00     0.023 A 
HETATM   27  C   UNL     1      44.215 -21.103   2.607  1.00  0.00    -0.061 A 
HETATM   28  C   UNL     1      44.680 -21.652   3.808  1.00  0.00     0.009 A 
HETATM   29  C   UNL     1      44.094 -21.944   1.369  1.00  0.00     0.048 C 
ENDBRANCH   2  19
TORSDOF 6
ENDMDL
MODEL 6
REMARK VINA RESULT:      -7.8      3.136      8.378
REMARK  6 active torsions:
REMARK  status: ('A' for Active; 'I' for Inactive)
REMARK    1  A    between atoms: C_2  and  N_3 
REMARK       I    between atoms: N_3  and  C_4 
REMARK    2  A    between atoms: C_4  and  C_5 
REMARK    3  A    between atoms: C_5  and  O_6 
REMARK    4  A    between atoms: O_6  and  C_7 
REMARK    5  A    between atoms: C_9  and  N_10 
REMARK       I    between atoms: N_10  and  C_11 
REMARK    6  A    between atoms: C_11  and  C_12 
ROOT
HETATM    1  N   UNL     1      42.134 -16.132   0.003  1.00  0.00    -0.322 N 
HETATM    2  C   UNL     1      41.079 -15.251  -0.160  1.00  0.00     0.277 C 
HETATM    3  O   UNL     1      40.210 -14.999   0.667  1.00  0.00    -0.266 OA
HETATM    4  H   UNL     1      42.714 -16.227  -0.826  1.00  0.00     0.169 HD
ENDROOT
BRANCH   1   5
HETATM    5  C   UNL     1      42.440 -16.914   1.130  1.00  0.00     0.037 A 
HETATM    6  C   UNL     1      41.637 -16.972   2.269  1.00  0.00     0.066 A 
HETATM    7  C   UNL     1      41.979 -17.791   3.352  1.00  0.00     0.071 A 
HETATM    8  C   UNL     1      43.147 -18.546   3.308  1.00  0.00     0.037 A 
HETATM    9  C   UNL     1      43.965 -18.485   2.178  1.00  0.00     0.005 A 
HETATM   10  C   UNL     1      43.615 -17.673   1.096  1.00  0.00     0.029 A 
BRANCH   7  11
HETATM   11  O   UNL     1      41.096 -17.737   4.391  1.00  0.00    -0.342 OA
BRANCH  11  12
HETATM   12  C   UNL     1      41.590 -17.281   5.648  1.00  0.00     0.278 C 
BRANCH  12  13
HETATM   13  C   UNL     1      41.423 -15.761   5.722  1.00  0.00     0.241 C 
HETATM   14  N   UNL     1      40.120 -15.332   5.579  1.00  0.00    -0.360 N 
HETATM   15  H   UNL     1      39.450 -16.031   5.269  1.00  0.00     0.162 HD
HETATM   16  O   UNL     1      42.369 -15.009   5.939  1.00  0.00    -0.271 OA
BRANCH  14  17
HETATM   17  C   UNL     1      39.751 -13.938   5.534  1.00  0.00     0.118 C 
HETATM   18  C   UNL     1      39.832 -13.387   4.121  1.00  0.00     0.026 C 
ENDBRANCH  14  17
ENDBRANCH  12  13
ENDBRANCH  11  12
ENDBRANCH   7  11
ENDBRANCH   1   5
BRANCH   2  19
HETATM   19  C   UNL     1      41.079 -14.633  -1.499  1.00  0.00     0.157 A 
HETATM   20  N   UNL     1      40.462 -15.220  -2.550  1.00  0.00    -0.168 NA
HETATM   21  N   UNL     1      40.693 -14.371  -3.569  1.00  0.00    -0.277 N 
HETATM   22  H   UNL     1      40.331 -14.608  -4.485  1.00  0.00     0.189 HD
HETATM   23  C   UNL     1      41.399 -13.251  -3.226  1.00  0.00     0.063 A 
HETATM   24  C   UNL     1      41.671 -13.390  -1.871  1.00  0.00     0.029 A 
HETATM   25  C   UNL     1      41.812 -12.147  -3.976  1.00  0.00     0.032 A 
HETATM   26  C   UNL     1      42.392 -12.374  -1.214  1.00  0.00     0.023 A 
HETATM   27  C   UNL     1      42.813 -11.244  -1.937  1.00  0.00    -0.061 A 
HETATM   28  C   UNL     1      42.524 -11.145  -3.303  1.00  0.00     0.009 A 
HETATM   29  C   UNL     1      43.568 -10.157  -1.227  1.00  0.00     0.048 C 
ENDBRANCH   2  19
TORSDOF 6
ENDMDL
MODEL 7
REMARK VINA RESULT:      -7.8      5.902      8.789
REMARK  6 active torsions:
REMARK  status: ('A' for Active; 'I' for Inactive)
REMARK    1  A    between atoms: C_2  and  N_3 
REMARK       I    between atoms: N_3  and  C_4 
REMARK    2  A    between atoms: C_4  and  C_5 
REMARK    3  A    between atoms: C_5  and  O_6 
REMARK    4  A    between atoms: O_6  and  C_7 
REMARK    5  A    between atoms: C_9  and  N_10 
REMARK       I    between atoms: N_10  and  C_11 
REMARK    6  A    between atoms: C_11  and  C_12 
ROOT
HETATM    1  N   UNL     1      41.066 -14.475   3.957  1.00  0.00    -0.322 N 
HETATM    2  C   UNL     1      41.022 -15.799   4.355  1.00  0.00     0.277 C 
HETATM    3  O   UNL     1      40.716 -16.213   5.468  1.00  0.00    -0.266 OA
HETATM    4  H   UNL     1      41.391 -14.350   3.001  1.00  0.00     0.169 HD
ENDROOT
BRANCH   1   5
HETATM    5  C   UNL     1      40.776 -13.332   4.722  1.00  0.00     0.037 A 
HETATM    6  C   UNL     1      41.646 -12.801   5.674  1.00  0.00     0.066 A 
HETATM    7  C   UNL     1      41.315 -11.644   6.388  1.00  0.00     0.071 A 
HETATM    8  C   UNL     1      40.091 -11.019   6.166  1.00  0.00     0.037 A 
HETATM    9  C   UNL     1      39.207 -11.550   5.225  1.00  0.00     0.005 A 
HETATM   10  C   UNL     1      39.547 -12.701   4.508  1.00  0.00     0.029 A 
BRANCH   7  11
HETATM   11  O   UNL     1      42.266 -11.250   7.284  1.00  0.00    -0.342 OA
BRANCH  11  12
HETATM   12  C   UNL     1      41.816 -10.656   8.499  1.00  0.00     0.278 C 
BRANCH  12  13
HETATM   13  C   UNL     1      42.892 -10.845   9.571  1.00  0.00     0.241 C 
HETATM   14  N   UNL     1      42.428 -11.415  10.738  1.00  0.00    -0.360 N 
HETATM   15  H   UNL     1      41.418 -11.483  10.833  1.00  0.00     0.162 HD
HETATM   16  O   UNL     1      44.069 -10.555   9.374  1.00  0.00    -0.271 OA
BRANCH  14  17
HETATM   17  C   UNL     1      43.255 -11.604  11.905  1.00  0.00     0.118 C 
HETATM   18  C   UNL     1      43.220 -10.389  12.815  1.00  0.00     0.026 C 
ENDBRANCH  14  17
ENDBRANCH  12  13
ENDBRANCH  11  12
ENDBRANCH   7  11
ENDBRANCH   1   5
BRANCH   2  19
HETATM   19  C   UNL     1      41.423 -16.714   3.271  1.00  0.00     0.157 A 
HETATM   20  N   UNL     1      40.894 -16.617   2.029  1.00  0.00    -0.168 NA
HETATM   21  N   UNL     1      41.494 -17.612   1.349  1.00  0.00    -0.277 N 
HETATM   22  H   UNL     1      41.243 -17.750   0.377  1.00  0.00     0.189 HD
HETATM   23  C   UNL     1      42.405 -18.327   2.075  1.00  0.00     0.063 A 
HETATM   24  C   UNL     1      42.385 -17.765   3.345  1.00  0.00     0.029 A 
HETATM   25  C   UNL     1      43.233 -19.400   1.730  1.00  0.00     0.032 A 
HETATM   26  C   UNL     1      43.237 -18.291   4.336  1.00  0.00     0.023 A 
HETATM   27  C   UNL     1      44.090 -19.362   4.019  1.00  0.00    -0.061 A 
HETATM   28  C   UNL     1      44.076 -19.904   2.728  1.00  0.00     0.009 A 
HETATM   29  C   UNL     1      45.007 -19.908   5.076  1.00  0.00     0.048 C 
ENDBRANCH   2  19
TORSDOF 6
ENDMDL
MODEL 8
REMARK VINA RESULT:      -7.8      5.889      8.651
REMARK  6 active torsions:
REMARK  status: ('A' for Active; 'I' for Inactive)
REMARK    1  A    between atoms: C_2  and  N_3 
REMARK       I    between atoms: N_3  and  C_4 
REMARK    2  A    between atoms: C_4  and  C_5 
REMARK    3  A    between atoms: C_5  and  O_6 
REMARK    4  A    between atoms: O_6  and  C_7 
REMARK    5  A    between atoms: C_9  and  N_10 
REMARK       I    between atoms: N_10  and  C_11 
REMARK    6  A    between atoms: C_11  and  C_12 
ROOT
HETATM    1  N   UNL     1      43.600 -13.675   5.848  1.00  0.00    -0.322 N 
HETATM    2  C   UNL     1      44.509 -14.281   6.696  1.00  0.00     0.277 C 
HETATM    3  O   UNL     1      44.606 -15.484   6.917  1.00  0.00    -0.266 OA
HETATM    4  H   UNL     1      43.661 -12.660   5.846  1.00  0.00     0.169 HD
ENDROOT
BRANCH   1   5
HETATM    5  C   UNL     1      42.607 -14.288   5.064  1.00  0.00     0.037 A 
HETATM    6  C   UNL     1      42.885 -15.066   3.940  1.00  0.00     0.066 A 
HETATM    7  C   UNL     1      41.857 -15.675   3.211  1.00  0.00     0.071 A 
HETATM    8  C   UNL     1      40.532 -15.490   3.596  1.00  0.00     0.037 A 
HETATM    9  C   UNL     1      40.242 -14.703   4.712  1.00  0.00     0.005 A 
HETATM   10  C   UNL     1      41.273 -14.104   5.440  1.00  0.00     0.029 A 
BRANCH   7  11
HETATM   11  O   UNL     1      42.287 -16.400   2.138  1.00  0.00    -0.342 OA
BRANCH  11  12
HETATM   12  C   UNL     1      41.793 -17.731   2.007  1.00  0.00     0.278 C 
BRANCH  12  13
HETATM   13  C   UNL     1      42.732 -18.683   2.750  1.00  0.00     0.241 C 
HETATM   14  N   UNL     1      43.456 -19.517   1.923  1.00  0.00    -0.360 N 
HETATM   15  H   UNL     1      43.170 -19.539   0.948  1.00  0.00     0.162 HD
HETATM   16  O   UNL     1      42.854 -18.660   3.972  1.00  0.00    -0.271 OA
BRANCH  14  17
HETATM   17  C   UNL     1      44.336 -20.548   2.419  1.00  0.00     0.118 C 
HETATM   18  C   UNL     1      44.077 -21.877   1.733  1.00  0.00     0.026 C 
ENDBRANCH  14  17
ENDBRANCH  12  13
ENDBRANCH  11  12
ENDBRANCH   7  11
ENDBRANCH   1   5
BRANCH   2  19
HETATM   19  C   UNL     1      45.378 -13.297   7.367  1.00  0.00     0.157 A 
HETATM   20  N   UNL     1      46.588 -12.961   6.864  1.00  0.00    -0.168 NA
HETATM   21  N   UNL     1      47.062 -12.064   7.750  1.00  0.00    -0.277 N 
HETATM   22  H   UNL     1      47.982 -11.670   7.590  1.00  0.00     0.189 HD
HETATM   23  C   UNL     1      46.210 -11.779   8.780  1.00  0.00     0.063 A 
HETATM   24  C   UNL     1      45.091 -12.572   8.562  1.00  0.00     0.029 A 
HETATM   25  C   UNL     1      46.324 -10.905   9.866  1.00  0.00     0.032 A 
HETATM   26  C   UNL     1      44.016 -12.496   9.468  1.00  0.00     0.023 A 
HETATM   27  C   UNL     1      44.093 -11.618  10.564  1.00  0.00    -0.061 A 
HETATM   28  C   UNL     1      45.241 -10.840  10.752  1.00  0.00     0.009 A 
HETATM   29  C   UNL     1      42.937 -11.531  11.518  1.00  0.00     0.048 C 
ENDBRANCH   2  19
TORSDOF 6
ENDMDL
MODEL 9
REMARK VINA RESULT:      -7.7      2.901      8.959
REMARK  6 active torsions:
REMARK  status: ('A' for Active; 'I' for Inactive)
REMARK    1  A    between atoms: C_2  and  N_3 
REMARK       I    between atoms: N_3  and  C_4 
REMARK    2  A    between atoms: C_4  and  C_5 
REMARK    3  A    between atoms: C_5  and  O_6 
REMARK    4  A    between atoms: O_6  and  C_7 
REMARK    5  A    between atoms: C_9  and  N_10 
REMARK       I    between atoms: N_10  and  C_11 
REMARK    6  A    between atoms: C_11  and  C_12 
ROOT
HETATM    1  N   UNL     1      41.474 -17.145   2.211  1.00  0.00    -0.322 N 
HETATM    2  C   UNL     1      41.524 -15.766   2.107  1.00  0.00     0.277 C 
HETATM    3  O   UNL     1      42.420 -15.039   2.524  1.00  0.00    -0.266 OA
HETATM    4  H   UNL     1      40.618 -17.548   1.838  1.00  0.00     0.169 HD
ENDROOT
BRANCH   1   5
HETATM    5  C   UNL     1      42.417 -18.003   2.802  1.00  0.00     0.037 A 
HETATM    6  C   UNL     1      42.529 -18.192   4.179  1.00  0.00     0.066 A 
HETATM    7  C   UNL     1      43.471 -19.080   4.711  1.00  0.00     0.071 A 
HETATM    8  C   UNL     1      44.327 -19.774   3.861  1.00  0.00     0.037 A 
HETATM    9  C   UNL     1      44.232 -19.582   2.481  1.00  0.00     0.005 A 
HETATM   10  C   UNL     1      43.285 -18.700   1.955  1.00  0.00     0.029 A 
BRANCH   7  11
HETATM   11  O   UNL     1      43.460 -19.154   6.074  1.00  0.00    -0.342 OA
BRANCH  11  12
HETATM   12  C   UNL     1      44.485 -18.456   6.777  1.00  0.00     0.278 C 
BRANCH  12  13
HETATM   13  C   UNL     1      43.939 -17.101   7.231  1.00  0.00     0.241 C 
HETATM   14  N   UNL     1      44.648 -16.020   6.750  1.00  0.00    -0.360 N 
HETATM   15  H   UNL     1      45.538 -16.230   6.305  1.00  0.00     0.162 HD
HETATM   16  O   UNL     1      42.929 -17.001   7.923  1.00  0.00    -0.271 OA
BRANCH  14  17
HETATM   17  C   UNL     1      44.355 -14.657   7.123  1.00  0.00     0.118 C 
HETATM   18  C   UNL     1      43.521 -13.957   6.065  1.00  0.00     0.026 C 
ENDBRANCH  14  17
ENDBRANCH  12  13
ENDBRANCH  11  12
ENDBRANCH   7  11
ENDBRANCH   1   5
BRANCH   2  19
HETATM   19  C   UNL     1      40.329 -15.219   1.440  1.00  0.00     0.157 A 
HETATM   20  N   UNL     1      39.127 -15.184   2.058  1.00  0.00    -0.168 NA
HETATM   21  N   UNL     1      38.311 -14.637   1.137  1.00  0.00    -0.277 N 
HETATM   22  H   UNL     1      37.332 -14.518   1.370  1.00  0.00     0.189 HD
HETATM   23  C   UNL     1      38.929 -14.287  -0.032  1.00  0.00     0.063 A 
HETATM   24  C   UNL     1      40.258 -14.656   0.131  1.00  0.00     0.029 A 
HETATM   25  C   UNL     1      38.443 -13.686  -1.197  1.00  0.00     0.032 A 
HETATM   26  C   UNL     1      41.165 -14.414  -0.919  1.00  0.00     0.023 A 
HETATM   27  C   UNL     1      40.711 -13.801  -2.100  1.00  0.00    -0.061 A 
HETATM   28  C   UNL     1      39.362 -13.450  -2.227  1.00  0.00     0.009 A 
HETATM   29  C   UNL     1      41.686 -13.532  -3.210  1.00  0.00     0.048 C 
ENDBRANCH   2  19
TORSDOF 6
ENDMDL
MODEL 10
REMARK VINA RESULT:      -7.7      2.439      3.503
REMARK  6 active torsions:
REMARK  status: ('A' for Active; 'I' for Inactive)
REMARK    1  A    between atoms: C_2  and  N_3 
REMARK       I    between atoms: N_3  and  C_4 
REMARK    2  A    between atoms: C_4  and  C_5 
REMARK    3  A    between atoms: C_5  and  O_6 
REMARK    4  A    between atoms: O_6  and  C_7 
REMARK    5  A    between atoms: C_9  and  N_10 
REMARK       I    between atoms: N_10  and  C_11 
REMARK    6  A    between atoms: C_11  and  C_12 
ROOT
HETATM    1  N   UNL     1      42.296 -16.194   4.763  1.00  0.00    -0.322 N 
HETATM    2  C   UNL     1      43.289 -16.816   4.027  1.00  0.00     0.277 C 
HETATM    3  O   UNL     1      43.704 -16.466   2.927  1.00  0.00    -0.266 OA
HETATM    4  H   UNL     1      42.072 -16.677   5.629  1.00  0.00     0.169 HD
ENDROOT
BRANCH   1   5
HETATM    5  C   UNL     1      41.559 -15.046   4.425  1.00  0.00     0.037 A 
HETATM    6  C   UNL     1      41.080 -14.790   3.140  1.00  0.00     0.066 A 
HETATM    7  C   UNL     1      40.328 -13.641   2.866  1.00  0.00     0.071 A 
HETATM    8  C   UNL     1      40.067 -12.726   3.882  1.00  0.00     0.037 A 
HETATM    9  C   UNL     1      40.553 -12.967   5.168  1.00  0.00     0.005 A 
HETATM   10  C   UNL     1      41.297 -14.119   5.438  1.00  0.00     0.029 A 
BRANCH   7  11
HETATM   11  O   UNL     1      39.933 -13.530   1.564  1.00  0.00    -0.342 OA
BRANCH  11  12
HETATM   12  C   UNL     1      39.698 -14.739   0.846  1.00  0.00     0.278 C 
BRANCH  12  13
HETATM   13  C   UNL     1      40.534 -14.724  -0.435  1.00  0.00     0.241 C 
HETATM   14  N   UNL     1      39.790 -14.845  -1.591  1.00  0.00    -0.360 N 
HETATM   15  H   UNL     1      38.815 -15.106  -1.472  1.00  0.00     0.162 HD
HETATM   16  O   UNL     1      41.751 -14.567  -0.421  1.00  0.00    -0.271 OA
BRANCH  14  17
HETATM   17  C   UNL     1      40.385 -14.939  -2.903  1.00  0.00     0.118 C 
HETATM   18  C   UNL     1      40.438 -13.584  -3.587  1.00  0.00     0.026 C 
ENDBRANCH  14  17
ENDBRANCH  12  13
ENDBRANCH  11  12
ENDBRANCH   7  11
ENDBRANCH   1   5
BRANCH   2  19
HETATM   19  C   UNL     1      43.810 -18.016   4.706  1.00  0.00     0.157 A 
HETATM   20  N   UNL     1      44.118 -18.007   6.023  1.00  0.00    -0.168 NA
HETATM   21  N   UNL     1      44.560 -19.257   6.255  1.00  0.00    -0.277 N 
HETATM   22  H   UNL     1      44.869 -19.492   7.191  1.00  0.00     0.189 HD
HETATM   23  C   UNL     1      44.524 -20.083   5.166  1.00  0.00     0.063 A 
HETATM   24  C   UNL     1      44.036 -19.301   4.128  1.00  0.00     0.029 A 
HETATM   25  C   UNL     1      44.869 -21.429   5.008  1.00  0.00     0.032 A 
HETATM   26  C   UNL     1      43.874 -19.882   2.856  1.00  0.00     0.023 A 
HETATM   27  C   UNL     1      44.202 -21.236   2.665  1.00  0.00    -0.061 A 
HETATM   28  C   UNL     1      44.697 -21.989   3.736  1.00  0.00     0.009 A 
HETATM   29  C   UNL     1      44.013 -21.853   1.309  1.00  0.00     0.048 C 
ENDBRANCH   2  19
TORSDOF 6
ENDMDL
