MODEL 1
REMARK VINA RESULT:      -8.2      0.000      0.000
REMARK  5 active torsions:
REMARK  status: ('A' for Active; 'I' for Inactive)
REMARK    1  A    between atoms: C_4  and  N_5 
REMARK       I    between atoms: N_5  and  C_6 
REMARK       I    between atoms: C_6  and  N_7 
REMARK    2  A    between atoms: N_7  and  C_8 
REMARK    3  A    between atoms: C_10  and  C_11 
REMARK       I    between atoms: C_11  and  N_12 
REMARK    4  A    between atoms: N_12  and  C_13 
REMARK    5  A    between atoms: C_13  and  C_14 
ROOT
HETATM    1  C   UNL     1      41.456 -15.211   2.947  1.00  0.00     0.078 A 
HETATM    2  S   UNL     1      40.870 -15.378   1.363  1.00  0.00    -0.067 SA
HETATM    3  C   UNL     1      41.724 -13.988   0.822  1.00  0.00     0.074 A 
HETATM    4  C   UNL     1      42.327 -13.340   1.888  1.00  0.00     0.027 A 
HETATM    5  C   UNL     1      42.169 -14.051   3.123  1.00  0.00     0.039 A 
ENDROOT
BRANCH   1   6
HETATM    6  N   UNL     1      41.091 -16.250   3.763  1.00  0.00    -0.303 N 
HETATM    7  C   UNL     1      41.704 -17.449   4.002  1.00  0.00     0.325 C 
HETATM    8  N   UNL     1      42.698 -17.822   3.137  1.00  0.00    -0.309 N 
HETATM    9  O   UNL     1      41.256 -18.135   4.920  1.00  0.00    -0.247 OA
HETATM   10  H   UNL     1      42.853 -17.208   2.357  1.00  0.00     0.170 HD
HETATM   11  H   UNL     1      40.196 -16.164   4.231  1.00  0.00     0.171 HD
BRANCH   8  12
HETATM   12  C   UNL     1      43.372 -19.060   3.070  1.00  0.00     0.036 A 
HETATM   13  C   UNL     1      44.266 -19.522   4.038  1.00  0.00     0.029 A 
HETATM   14  C   UNL     1      44.849 -20.789   3.918  1.00  0.00     0.002 A 
HETATM   15  C   UNL     1      44.556 -21.597   2.822  1.00  0.00     0.000 A 
HETATM   16  C   UNL     1      43.680 -21.140   1.843  1.00  0.00     0.002 A 
HETATM   17  C   UNL     1      43.089 -19.879   1.968  1.00  0.00     0.029 A 
ENDBRANCH   8  12
ENDBRANCH   1   6
BRANCH   3  18
HETATM   18  C   UNL     1      41.733 -13.692  -0.605  1.00  0.00     0.258 C 
HETATM   19  N   UNL     1      41.472 -14.764  -1.438  1.00  0.00    -0.352 N 
HETATM   20  H   UNL     1      41.466 -15.701  -1.066  1.00  0.00     0.163 HD
HETATM   21  O   UNL     1      41.938 -12.572  -1.067  1.00  0.00    -0.267 OA
BRANCH  19  22
HETATM   22  C   UNL     1      41.335 -14.596  -2.869  1.00  0.00     0.162 C 
BRANCH  22  23
HETATM   23  C   UNL     1      39.908 -14.614  -3.335  1.00  0.00    -0.023 A 
HETATM   24  C   UNL     1      39.377 -15.747  -3.945  1.00  0.00     0.125 A 
HETATM   25  N   UNL     1      38.089 -15.870  -4.344  1.00  0.00    -0.273 NA
HETATM   26  C   UNL     1      37.281 -14.815  -4.110  1.00  0.00     0.116 A 
HETATM   27  C   UNL     1      37.700 -13.646  -3.500  1.00  0.00     0.020 A 
HETATM   28  C   UNL     1      39.031 -13.549  -3.104  1.00  0.00     0.012 A 
ENDBRANCH  22  23
ENDBRANCH  19  22
ENDBRANCH   3  18
TORSDOF 5
ENDMDL
MODEL 2
REMARK VINA RESULT:      -8.2      6.230      9.612
REMARK  5 active torsions:
REMARK  status: ('A' for Active; 'I' for Inactive)
REMARK    1  A    between atoms: C_4  and  N_5 
REMARK       I    between atoms: N_5  and  C_6 
REMARK       I    between atoms: C_6  and  N_7 
REMARK    2  A    between atoms: N_7  and  C_8 
REMARK    3  A    between atoms: C_10  and  C_11 
REMARK       I    between atoms: C_11  and  N_12 
REMARK    4  A    between atoms: N_12  and  C_13 
REMARK    5  A    between atoms: C_13  and  C_14 
ROOT
HETATM    1  C   UNL     1      44.554 -14.257   6.341  1.00  0.00     0.078 A 
HETATM    2  S   UNL     1      44.646 -15.856   6.902  1.00  0.00    -0.067 SA
HETATM    3  C   UNL     1      43.503 -16.406   5.742  1.00  0.00     0.074 A 
HETATM    4  C   UNL     1      42.966 -15.338   5.042  1.00  0.00     0.027 A 
HETATM    5  C   UNL     1      43.577 -14.089   5.392  1.00  0.00     0.039 A 
ENDROOT
BRANCH   1   6
HETATM    6  N   UNL     1      45.454 -13.425   6.954  1.00  0.00    -0.303 N 
HETATM    7  C   UNL     1      45.375 -12.751   8.143  1.00  0.00     0.325 C 
HETATM    8  N   UNL     1      44.138 -12.661   8.724  1.00  0.00    -0.309 N 
HETATM    9  O   UNL     1      46.401 -12.208   8.549  1.00  0.00    -0.247 OA
HETATM   10  H   UNL     1      43.376 -13.047   8.195  1.00  0.00     0.170 HD
HETATM   11  H   UNL     1      46.298 -13.212   6.436  1.00  0.00     0.171 HD
BRANCH   8  12
HETATM   12  C   UNL     1      43.762 -11.903   9.853  1.00  0.00     0.036 A 
HETATM   13  C   UNL     1      43.946 -12.315  11.174  1.00  0.00     0.029 A 
HETATM   14  C   UNL     1      43.593 -11.473  12.235  1.00  0.00     0.002 A 
HETATM   15  C   UNL     1      43.039 -10.220  11.985  1.00  0.00     0.000 A 
HETATM   16  C   UNL     1      42.835  -9.806  10.673  1.00  0.00     0.002 A 
HETATM   17  C   UNL     1      43.197 -10.642   9.612  1.00  0.00     0.029 A 
ENDBRANCH   8  12
ENDBRANCH   1   6
BRANCH   3  18
HETATM   18  C   UNL     1      43.271 -17.841   5.624  1.00  0.00     0.258 C 
HETATM   19  N   UNL     1      44.405 -18.620   5.502  1.00  0.00    -0.352 N 
HETATM   20  H   UNL     1      45.299 -18.186   5.323  1.00  0.00     0.163 HD
HETATM   21  O   UNL     1      42.154 -18.353   5.645  1.00  0.00    -0.267 OA
BRANCH  19  22
HETATM   22  C   UNL     1      44.335 -20.065   5.492  1.00  0.00     0.162 C 
BRANCH  22  23
HETATM   23  C   UNL     1      44.314 -20.651   4.110  1.00  0.00    -0.023 A 
HETATM   24  C   UNL     1      44.633 -21.990   3.904  1.00  0.00     0.125 A 
HETATM   25  N   UNL     1      44.585 -22.612   2.703  1.00  0.00    -0.273 NA
HETATM   26  C   UNL     1      44.184 -21.867   1.651  1.00  0.00     0.116 A 
HETATM   27  C   UNL     1      43.832 -20.533   1.745  1.00  0.00     0.020 A 
HETATM   28  C   UNL     1      43.894 -19.920   2.994  1.00  0.00     0.012 A 
ENDBRANCH  22  23
ENDBRANCH  19  22
ENDBRANCH   3  18
TORSDOF 5
ENDMDL
MODEL 3
REMARK VINA RESULT:      -8.1      5.730      9.482
REMARK  5 active torsions:
REMARK  status: ('A' for Active; 'I' for Inactive)
REMARK    1  A    between atoms: C_4  and  N_5 
REMARK       I    between atoms: N_5  and  C_6 
REMARK       I    between atoms: C_6  and  N_7 
REMARK    2  A    between atoms: N_7  and  C_8 
REMARK    3  A    between atoms: C_10  and  C_11 
REMARK       I    between atoms: C_11  and  N_12 
REMARK    4  A    between atoms: N_12  and  C_13 
REMARK    5  A    between atoms: C_13  and  C_14 
ROOT
HETATM    1  C   UNL     1      43.518 -15.639   5.332  1.00  0.00     0.078 A 
HETATM    2  S   UNL     1      43.990 -14.032   5.601  1.00  0.00    -0.067 SA
HETATM    3  C   UNL     1      44.344 -14.335   7.256  1.00  0.00     0.074 A 
HETATM    4  C   UNL     1      43.962 -15.619   7.609  1.00  0.00     0.027 A 
HETATM    5  C   UNL     1      43.481 -16.376   6.490  1.00  0.00     0.039 A 
ENDROOT
BRANCH   1   6
HETATM    6  N   UNL     1      43.239 -15.900   4.016  1.00  0.00    -0.303 N 
HETATM    7  C   UNL     1      43.161 -17.088   3.343  1.00  0.00     0.325 C 
HETATM    8  N   UNL     1      43.674 -18.192   3.970  1.00  0.00    -0.309 N 
HETATM    9  O   UNL     1      42.717 -17.055   2.196  1.00  0.00    -0.247 OA
HETATM   10  H   UNL     1      44.125 -18.025   4.853  1.00  0.00     0.170 HD
HETATM   11  H   UNL     1      43.126 -15.095   3.411  1.00  0.00     0.171 HD
BRANCH   8  12
HETATM   12  C   UNL     1      43.856 -19.487   3.440  1.00  0.00     0.036 A 
HETATM   13  C   UNL     1      43.443 -19.880   2.165  1.00  0.00     0.029 A 
HETATM   14  C   UNL     1      43.714 -21.171   1.698  1.00  0.00     0.002 A 
HETATM   15  C   UNL     1      44.385 -22.085   2.507  1.00  0.00     0.000 A 
HETATM   16  C   UNL     1      44.786 -21.710   3.785  1.00  0.00     0.002 A 
HETATM   17  C   UNL     1      44.525 -20.417   4.248  1.00  0.00     0.029 A 
ENDBRANCH   8  12
ENDBRANCH   1   6
BRANCH   3  18
HETATM   18  C   UNL     1      44.986 -13.281   8.031  1.00  0.00     0.258 C 
HETATM   19  N   UNL     1      44.321 -12.897   9.180  1.00  0.00    -0.352 N 
HETATM   20  H   UNL     1      43.376 -13.208   9.343  1.00  0.00     0.163 HD
HETATM   21  O   UNL     1      46.055 -12.761   7.719  1.00  0.00    -0.267 OA
BRANCH  19  22
HETATM   22  C   UNL     1      44.897 -11.945  10.107  1.00  0.00     0.162 C 
BRANCH  22  23
HETATM   23  C   UNL     1      43.917 -10.914  10.585  1.00  0.00    -0.023 A 
HETATM   24  C   UNL     1      42.767 -10.635   9.851  1.00  0.00     0.125 A 
HETATM   25  N   UNL     1      41.805  -9.765  10.235  1.00  0.00    -0.273 NA
HETATM   26  C   UNL     1      41.988  -9.147  11.422  1.00  0.00     0.116 A 
HETATM   27  C   UNL     1      43.085  -9.358  12.237  1.00  0.00     0.020 A 
HETATM   28  C   UNL     1      44.059 -10.258  11.813  1.00  0.00     0.012 A 
ENDBRANCH  22  23
ENDBRANCH  19  22
ENDBRANCH   3  18
TORSDOF 5
ENDMDL
MODEL 4
REMARK VINA RESULT:      -8.0      5.643      9.394
REMARK  5 active torsions:
REMARK  status: ('A' for Active; 'I' for Inactive)
REMARK    1  A    between atoms: C_4  and  N_5 
REMARK       I    between atoms: N_5  and  C_6 
REMARK       I    between atoms: C_6  and  N_7 
REMARK    2  A    between atoms: N_7  and  C_8 
REMARK    3  A    between atoms: C_10  and  C_11 
REMARK       I    between atoms: C_11  and  N_12 
REMARK    4  A    between atoms: N_12  and  C_13 
REMARK    5  A    between atoms: C_13  and  C_14 
ROOT
HETATM    1  C   UNL     1      43.734 -13.741   6.692  1.00  0.00     0.078 A 
HETATM    2  S   UNL     1      43.637 -15.412   6.411  1.00  0.00    -0.067 SA
HETATM    3  C   UNL     1      42.301 -15.230   5.345  1.00  0.00     0.074 A 
HETATM    4  C   UNL     1      41.863 -13.916   5.332  1.00  0.00     0.027 A 
HETATM    5  C   UNL     1      42.695 -13.052   6.117  1.00  0.00     0.039 A 
ENDROOT
BRANCH   1   6
HETATM    6  N   UNL     1      44.814 -13.391   7.458  1.00  0.00    -0.303 N 
HETATM    7  C   UNL     1      44.876 -12.806   8.693  1.00  0.00     0.325 C 
HETATM    8  N   UNL     1      43.724 -12.237   9.169  1.00  0.00    -0.309 N 
HETATM    9  O   UNL     1      45.977 -12.761   9.239  1.00  0.00    -0.247 OA
HETATM   10  H   UNL     1      42.940 -12.243   8.539  1.00  0.00     0.170 HD
HETATM   11  H   UNL     1      45.728 -13.525   7.040  1.00  0.00     0.171 HD
BRANCH   8  12
HETATM   12  C   UNL     1      43.558 -11.447  10.326  1.00  0.00     0.036 A 
HETATM   13  C   UNL     1      43.485 -10.053  10.322  1.00  0.00     0.029 A 
HETATM   14  C   UNL     1      43.264  -9.351  11.513  1.00  0.00     0.002 A 
HETATM   15  C   UNL     1      43.129 -10.036  12.719  1.00  0.00     0.000 A 
HETATM   16  C   UNL     1      43.217 -11.424  12.737  1.00  0.00     0.002 A 
HETATM   17  C   UNL     1      43.428 -12.126  11.546  1.00  0.00     0.029 A 
ENDBRANCH   8  12
ENDBRANCH   1   6
BRANCH   3  18
HETATM   18  C   UNL     1      41.837 -16.400   4.610  1.00  0.00     0.258 C 
HETATM   19  N   UNL     1      42.532 -16.691   3.452  1.00  0.00    -0.352 N 
HETATM   20  H   UNL     1      43.184 -16.021   3.073  1.00  0.00     0.163 HD
HETATM   21  O   UNL     1      40.903 -17.109   4.979  1.00  0.00    -0.267 OA
BRANCH  19  22
HETATM   22  C   UNL     1      42.257 -17.887   2.683  1.00  0.00     0.162 C 
BRANCH  22  23
HETATM   23  C   UNL     1      43.238 -18.995   2.936  1.00  0.00    -0.023 A 
HETATM   24  C   UNL     1      43.964 -19.040   4.123  1.00  0.00     0.125 A 
HETATM   25  N   UNL     1      44.825 -20.030   4.457  1.00  0.00    -0.273 NA
HETATM   26  C   UNL     1      44.960 -21.038   3.570  1.00  0.00     0.116 A 
HETATM   27  C   UNL     1      44.278 -21.101   2.368  1.00  0.00     0.020 A 
HETATM   28  C   UNL     1      43.402 -20.066   2.051  1.00  0.00     0.012 A 
ENDBRANCH  22  23
ENDBRANCH  19  22
ENDBRANCH   3  18
TORSDOF 5
ENDMDL
MODEL 5
REMARK VINA RESULT:      -7.9      5.299      8.977
REMARK  5 active torsions:
REMARK  status: ('A' for Active; 'I' for Inactive)
REMARK    1  A    between atoms: C_4  and  N_5 
REMARK       I    between atoms: N_5  and  C_6 
REMARK       I    between atoms: C_6  and  N_7 
REMARK    2  A    between atoms: N_7  and  C_8 
REMARK    3  A    between atoms: C_10  and  C_11 
REMARK       I    between atoms: C_11  and  N_12 
REMARK    4  A    between atoms: N_12  and  C_13 
REMARK    5  A    between atoms: C_13  and  C_14 
ROOT
HETATM    1  C   UNL     1      40.932 -12.339   5.783  1.00  0.00     0.078 A 
HETATM    2  S   UNL     1      42.121 -12.846   4.684  1.00  0.00    -0.067 SA
HETATM    3  C   UNL     1      41.358 -14.368   4.446  1.00  0.00     0.074 A 
HETATM    4  C   UNL     1      40.289 -14.518   5.315  1.00  0.00     0.027 A 
HETATM    5  C   UNL     1      40.044 -13.339   6.093  1.00  0.00     0.039 A 
ENDROOT
BRANCH   1   6
HETATM    6  N   UNL     1      41.090 -11.036   6.177  1.00  0.00    -0.303 N 
HETATM    7  C   UNL     1      41.815 -10.500   7.205  1.00  0.00     0.325 C 
HETATM    8  N   UNL     1      42.266 -11.368   8.165  1.00  0.00    -0.309 N 
HETATM    9  O   UNL     1      41.931  -9.276   7.233  1.00  0.00    -0.247 OA
HETATM   10  H   UNL     1      41.970 -12.323   8.066  1.00  0.00     0.170 HD
HETATM   11  H   UNL     1      40.546 -10.343   5.675  1.00  0.00     0.171 HD
BRANCH   8  12
HETATM   12  C   UNL     1      42.893 -11.058   9.391  1.00  0.00     0.036 A 
HETATM   13  C   UNL     1      44.269 -11.136   9.611  1.00  0.00     0.029 A 
HETATM   14  C   UNL     1      44.813 -10.757  10.844  1.00  0.00     0.002 A 
HETATM   15  C   UNL     1      43.984 -10.312  11.871  1.00  0.00     0.000 A 
HETATM   16  C   UNL     1      42.610 -10.246  11.668  1.00  0.00     0.002 A 
HETATM   17  C   UNL     1      42.067 -10.615  10.433  1.00  0.00     0.029 A 
ENDBRANCH   8  12
ENDBRANCH   1   6
BRANCH   3  18
HETATM   18  C   UNL     1      41.878 -15.249   3.408  1.00  0.00     0.258 C 
HETATM   19  N   UNL     1      41.533 -16.582   3.531  1.00  0.00    -0.352 N 
HETATM   20  H   UNL     1      41.111 -16.918   4.383  1.00  0.00     0.163 HD
HETATM   21  O   UNL     1      42.565 -14.861   2.466  1.00  0.00    -0.267 OA
BRANCH  19  22
HETATM   22  C   UNL     1      41.881 -17.551   2.513  1.00  0.00     0.162 C 
BRANCH  22  23
HETATM   23  C   UNL     1      42.937 -18.523   2.953  1.00  0.00    -0.023 A 
HETATM   24  C   UNL     1      43.426 -18.495   4.257  1.00  0.00     0.125 A 
HETATM   25  N   UNL     1      44.334 -19.367   4.752  1.00  0.00    -0.273 NA
HETATM   26  C   UNL     1      44.770 -20.329   3.912  1.00  0.00     0.116 A 
HETATM   27  C   UNL     1      44.343 -20.457   2.602  1.00  0.00     0.020 A 
HETATM   28  C   UNL     1      43.409 -19.543   2.120  1.00  0.00     0.012 A 
ENDBRANCH  22  23
ENDBRANCH  19  22
ENDBRANCH   3  18
TORSDOF 5
ENDMDL
MODEL 6
REMARK VINA RESULT:      -7.6      2.005      8.200
REMARK  5 active torsions:
REMARK  status: ('A' for Active; 'I' for Inactive)
REMARK    1  A    between atoms: C_4  and  N_5 
REMARK       I    between atoms: N_5  and  C_6 
REMARK       I    between atoms: C_6  and  N_7 
REMARK    2  A    between atoms: N_7  and  C_8 
REMARK    3  A    between atoms: C_10  and  C_11 
REMARK       I    between atoms: C_11  and  N_12 
REMARK    4  A    between atoms: N_12  and  C_13 
REMARK    5  A    between atoms: C_13  and  C_14 
ROOT
HETATM    1  C   UNL     1      41.826 -13.744   2.816  1.00  0.00     0.078 A 
HETATM    2  S   UNL     1      43.323 -14.372   3.308  1.00  0.00    -0.067 SA
HETATM    3  C   UNL     1      42.592 -15.410   4.466  1.00  0.00     0.074 A 
HETATM    4  C   UNL     1      41.233 -15.157   4.557  1.00  0.00     0.027 A 
HETATM    5  C   UNL     1      40.789 -14.187   3.599  1.00  0.00     0.039 A 
ENDROOT
BRANCH   1   6
HETATM    6  N   UNL     1      41.929 -12.894   1.747  1.00  0.00    -0.303 N 
HETATM    7  C   UNL     1      41.351 -12.949   0.508  1.00  0.00     0.325 C 
HETATM    8  N   UNL     1      40.775 -14.138   0.144  1.00  0.00    -0.309 N 
HETATM    9  O   UNL     1      41.470 -11.959  -0.212  1.00  0.00    -0.247 OA
HETATM   10  H   UNL     1      40.881 -14.894   0.798  1.00  0.00     0.170 HD
HETATM   11  H   UNL     1      42.579 -12.122   1.844  1.00  0.00     0.171 HD
BRANCH   8  12
HETATM   12  C   UNL     1      40.256 -14.502  -1.116  1.00  0.00     0.036 A 
HETATM   13  C   UNL     1      39.108 -13.947  -1.684  1.00  0.00     0.029 A 
HETATM   14  C   UNL     1      38.695 -14.329  -2.966  1.00  0.00     0.002 A 
HETATM   15  C   UNL     1      39.417 -15.279  -3.683  1.00  0.00     0.000 A 
HETATM   16  C   UNL     1      40.553 -15.851  -3.121  1.00  0.00     0.002 A 
HETATM   17  C   UNL     1      40.972 -15.463  -1.844  1.00  0.00     0.029 A 
ENDBRANCH   8  12
ENDBRANCH   1   6
BRANCH   3  18
HETATM   18  C   UNL     1      43.431 -16.385   5.150  1.00  0.00     0.258 C 
HETATM   19  N   UNL     1      43.504 -17.630   4.555  1.00  0.00    -0.352 N 
HETATM   20  H   UNL     1      42.868 -17.871   3.810  1.00  0.00     0.163 HD
HETATM   21  O   UNL     1      44.057 -16.142   6.180  1.00  0.00    -0.267 OA
BRANCH  19  22
HETATM   22  C   UNL     1      44.389 -18.660   5.058  1.00  0.00     0.162 C 
BRANCH  22  23
HETATM   23  C   UNL     1      44.425 -19.887   4.193  1.00  0.00    -0.023 A 
HETATM   24  C   UNL     1      44.794 -21.119   4.727  1.00  0.00     0.125 A 
HETATM   25  N   UNL     1      44.799 -22.282   4.036  1.00  0.00    -0.273 NA
HETATM   26  C   UNL     1      44.401 -22.222   2.748  1.00  0.00     0.116 A 
HETATM   27  C   UNL     1      44.002 -21.055   2.120  1.00  0.00     0.020 A 
HETATM   28  C   UNL     1      44.010 -19.873   2.857  1.00  0.00     0.012 A 
ENDBRANCH  22  23
ENDBRANCH  19  22
ENDBRANCH   3  18
TORSDOF 5
ENDMDL
MODEL 7
REMARK VINA RESULT:      -7.6      6.510     10.239
REMARK  5 active torsions:
REMARK  status: ('A' for Active; 'I' for Inactive)
REMARK    1  A    between atoms: C_4  and  N_5 
REMARK       I    between atoms: N_5  and  C_6 
REMARK       I    between atoms: C_6  and  N_7 
REMARK    2  A    between atoms: N_7  and  C_8 
REMARK    3  A    between atoms: C_10  and  C_11 
REMARK       I    between atoms: C_11  and  N_12 
REMARK    4  A    between atoms: N_12  and  C_13 
REMARK    5  A    between atoms: C_13  and  C_14 
ROOT
HETATM    1  C   UNL     1      41.302 -12.263   5.175  1.00  0.00     0.078 A 
HETATM    2  S   UNL     1      41.532 -11.371   6.600  1.00  0.00    -0.067 SA
HETATM    3  C   UNL     1      39.873 -11.494   7.032  1.00  0.00     0.074 A 
HETATM    4  C   UNL     1      39.147 -12.089   6.014  1.00  0.00     0.027 A 
HETATM    5  C   UNL     1      39.978 -12.534   4.934  1.00  0.00     0.039 A 
ENDROOT
BRANCH   1   6
HETATM    6  N   UNL     1      42.474 -12.527   4.516  1.00  0.00    -0.303 N 
HETATM    7  C   UNL     1      43.144 -13.705   4.331  1.00  0.00     0.325 C 
HETATM    8  N   UNL     1      42.763 -14.765   5.110  1.00  0.00    -0.309 N 
HETATM    9  O   UNL     1      44.090 -13.696   3.545  1.00  0.00    -0.247 OA
HETATM   10  H   UNL     1      42.059 -14.570   5.801  1.00  0.00     0.170 HD
HETATM   11  H   UNL     1      42.975 -11.727   4.147  1.00  0.00     0.171 HD
BRANCH   8  12
HETATM   12  C   UNL     1      43.383 -16.027   5.225  1.00  0.00     0.036 A 
HETATM   13  C   UNL     1      43.312 -17.029   4.257  1.00  0.00     0.029 A 
HETATM   14  C   UNL     1      44.006 -18.233   4.429  1.00  0.00     0.002 A 
HETATM   15  C   UNL     1      44.763 -18.450   5.578  1.00  0.00     0.000 A 
HETATM   16  C   UNL     1      44.827 -17.465   6.557  1.00  0.00     0.002 A 
HETATM   17  C   UNL     1      44.143 -16.258   6.381  1.00  0.00     0.029 A 
ENDBRANCH   8  12
ENDBRANCH   1   6
BRANCH   3  18
HETATM   18  C   UNL     1      39.461 -11.011   8.344  1.00  0.00     0.258 C 
HETATM   19  N   UNL     1      40.222 -11.456   9.408  1.00  0.00    -0.352 N 
HETATM   20  H   UNL     1      40.887 -12.203   9.276  1.00  0.00     0.163 HD
HETATM   21  O   UNL     1      38.515 -10.247   8.522  1.00  0.00    -0.267 OA
BRANCH  19  22
HETATM   22  C   UNL     1      40.001 -10.969  10.754  1.00  0.00     0.162 C 
BRANCH  22  23
HETATM   23  C   UNL     1      41.273 -10.671  11.494  1.00  0.00    -0.023 A 
HETATM   24  C   UNL     1      42.370 -10.132  10.828  1.00  0.00     0.125 A 
HETATM   25  N   UNL     1      43.532  -9.781  11.426  1.00  0.00    -0.273 NA
HETATM   26  C   UNL     1      43.603  -9.961  12.762  1.00  0.00     0.116 A 
HETATM   27  C   UNL     1      42.570 -10.477  13.524  1.00  0.00     0.020 A 
HETATM   28  C   UNL     1      41.388 -10.831  12.879  1.00  0.00     0.012 A 
ENDBRANCH  22  23
ENDBRANCH  19  22
ENDBRANCH   3  18
TORSDOF 5
ENDMDL
MODEL 8
REMARK VINA RESULT:      -7.6      5.324      9.110
REMARK  5 active torsions:
REMARK  status: ('A' for Active; 'I' for Inactive)
REMARK    1  A    between atoms: C_4  and  N_5 
REMARK       I    between atoms: N_5  and  C_6 
REMARK       I    between atoms: C_6  and  N_7 
REMARK    2  A    between atoms: N_7  and  C_8 
REMARK    3  A    between atoms: C_10  and  C_11 
REMARK       I    between atoms: C_11  and  N_12 
REMARK    4  A    between atoms: N_12  and  C_13 
REMARK    5  A    between atoms: C_13  and  C_14 
ROOT
HETATM    1  C   UNL     1      40.945 -14.152   3.936  1.00  0.00     0.078 A 
HETATM    2  S   UNL     1      39.891 -13.881   5.238  1.00  0.00    -0.067 SA
HETATM    3  C   UNL     1      40.837 -12.574   5.829  1.00  0.00     0.074 A 
HETATM    4  C   UNL     1      42.014 -12.459   5.107  1.00  0.00     0.027 A 
HETATM    5  C   UNL     1      42.076 -13.378   4.008  1.00  0.00     0.039 A 
ENDROOT
BRANCH   1   6
HETATM    6  N   UNL     1      40.487 -15.108   3.068  1.00  0.00    -0.303 N 
HETATM    7  C   UNL     1      40.895 -16.399   2.871  1.00  0.00     0.325 C 
HETATM    8  N   UNL     1      42.098 -16.759   3.417  1.00  0.00    -0.309 N 
HETATM    9  O   UNL     1      40.194 -17.105   2.148  1.00  0.00    -0.247 OA
HETATM   10  H   UNL     1      42.613 -16.023   3.868  1.00  0.00     0.170 HD
HETATM   11  H   UNL     1      39.767 -14.819   2.416  1.00  0.00     0.171 HD
BRANCH   8  12
HETATM   12  C   UNL     1      42.810 -17.964   3.233  1.00  0.00     0.036 A 
HETATM   13  C   UNL     1      42.889 -18.653   2.021  1.00  0.00     0.029 A 
HETATM   14  C   UNL     1      43.664 -19.814   1.915  1.00  0.00     0.002 A 
HETATM   15  C   UNL     1      44.354 -20.303   3.022  1.00  0.00     0.000 A 
HETATM   16  C   UNL     1      44.268 -19.634   4.238  1.00  0.00     0.002 A 
HETATM   17  C   UNL     1      43.502 -18.469   4.343  1.00  0.00     0.029 A 
ENDBRANCH   8  12
ENDBRANCH   1   6
BRANCH   3  18
HETATM   18  C   UNL     1      40.310 -11.780   6.932  1.00  0.00     0.258 C 
HETATM   19  N   UNL     1      41.233 -11.402   7.888  1.00  0.00    -0.352 N 
HETATM   20  H   UNL     1      42.153 -11.815   7.893  1.00  0.00     0.163 HD
HETATM   21  O   UNL     1      39.133 -11.440   7.023  1.00  0.00    -0.267 OA
BRANCH  19  22
HETATM   22  C   UNL     1      40.877 -10.516   8.976  1.00  0.00     0.162 C 
BRANCH  22  23
HETATM   23  C   UNL     1      41.655 -10.776  10.233  1.00  0.00    -0.023 A 
HETATM   24  C   UNL     1      40.996 -11.035  11.432  1.00  0.00     0.125 A 
HETATM   25  N   UNL     1      41.616 -11.335  12.597  1.00  0.00    -0.273 NA
HETATM   26  C   UNL     1      42.964 -11.396  12.566  1.00  0.00     0.116 A 
HETATM   27  C   UNL     1      43.718 -11.168  11.429  1.00  0.00     0.020 A 
HETATM   28  C   UNL     1      43.051 -10.859  10.246  1.00  0.00     0.012 A 
ENDBRANCH  22  23
ENDBRANCH  19  22
ENDBRANCH   3  18
TORSDOF 5
ENDMDL
MODEL 9
REMARK VINA RESULT:      -7.5      2.377      8.405
REMARK  5 active torsions:
REMARK  status: ('A' for Active; 'I' for Inactive)
REMARK    1  A    between atoms: C_4  and  N_5 
REMARK       I    between atoms: N_5  and  C_6 
REMARK       I    between atoms: C_6  and  N_7 
REMARK    2  A    between atoms: N_7  and  C_8 
REMARK    3  A    between atoms: C_10  and  C_11 
REMARK       I    between atoms: C_11  and  N_12 
REMARK    4  A    between atoms: N_12  and  C_13 
REMARK    5  A    between atoms: C_13  and  C_14 
ROOT
HETATM    1  C   UNL     1      39.735 -14.906   2.081  1.00  0.00     0.078 A 
HETATM    2  S   UNL     1      40.668 -16.322   2.021  1.00  0.00    -0.067 SA
HETATM    3  C   UNL     1      41.085 -16.207   3.684  1.00  0.00     0.074 A 
HETATM    4  C   UNL     1      40.622 -15.017   4.222  1.00  0.00     0.027 A 
HETATM    5  C   UNL     1      39.839 -14.260   3.288  1.00  0.00     0.039 A 
ENDROOT
BRANCH   1   6
HETATM    6  N   UNL     1      39.070 -14.655   0.910  1.00  0.00    -0.303 N 
HETATM    7  C   UNL     1      39.515 -14.119  -0.268  1.00  0.00     0.325 C 
HETATM    8  N   UNL     1      40.733 -13.493  -0.244  1.00  0.00    -0.309 N 
HETATM    9  O   UNL     1      38.751 -14.165  -1.230  1.00  0.00    -0.247 OA
HETATM   10  H   UNL     1      41.173 -13.425   0.657  1.00  0.00     0.170 HD
HETATM   11  H   UNL     1      38.072 -14.833   0.910  1.00  0.00     0.171 HD
BRANCH   8  12
HETATM   12  C   UNL     1      41.341 -12.736  -1.267  1.00  0.00     0.036 A 
HETATM   13  C   UNL     1      41.609 -13.219  -2.549  1.00  0.00     0.029 A 
HETATM   14  C   UNL     1      42.166 -12.379  -3.521  1.00  0.00     0.002 A 
HETATM   15  C   UNL     1      42.473 -11.055  -3.216  1.00  0.00     0.000 A 
HETATM   16  C   UNL     1      42.225 -10.568  -1.937  1.00  0.00     0.002 A 
HETATM   17  C   UNL     1      41.660 -11.403  -0.968  1.00  0.00     0.029 A 
ENDBRANCH   8  12
ENDBRANCH   1   6
BRANCH   3  18
HETATM   18  C   UNL     1      41.805 -17.317   4.297  1.00  0.00     0.258 C 
HETATM   19  N   UNL     1      43.136 -17.430   3.944  1.00  0.00    -0.352 N 
HETATM   20  H   UNL     1      43.503 -16.886   3.178  1.00  0.00     0.163 HD
HETATM   21  O   UNL     1      41.294 -18.105   5.090  1.00  0.00    -0.267 OA
BRANCH  19  22
HETATM   22  C   UNL     1      44.003 -18.411   4.561  1.00  0.00     0.162 C 
BRANCH  22  23
HETATM   23  C   UNL     1      44.152 -19.666   3.751  1.00  0.00    -0.023 A 
HETATM   24  C   UNL     1      44.649 -20.830   4.333  1.00  0.00     0.125 A 
HETATM   25  N   UNL     1      44.763 -22.017   3.694  1.00  0.00    -0.273 NA
HETATM   26  C   UNL     1      44.346 -22.055   2.410  1.00  0.00     0.116 A 
HETATM   27  C   UNL     1      43.825 -20.964   1.739  1.00  0.00     0.020 A 
HETATM   28  C   UNL     1      43.723 -19.755   2.423  1.00  0.00     0.012 A 
ENDBRANCH  22  23
ENDBRANCH  19  22
ENDBRANCH   3  18
TORSDOF 5
ENDMDL
MODEL 10
REMARK VINA RESULT:      -7.5      5.029      9.029
REMARK  5 active torsions:
REMARK  status: ('A' for Active; 'I' for Inactive)
REMARK    1  A    between atoms: C_4  and  N_5 
REMARK       I    between atoms: N_5  and  C_6 
REMARK       I    between atoms: C_6  and  N_7 
REMARK    2  A    between atoms: N_7  and  C_8 
REMARK    3  A    between atoms: C_10  and  C_11 
REMARK       I    between atoms: C_11  and  N_12 
REMARK    4  A    between atoms: N_12  and  C_13 
REMARK    5  A    between atoms: C_13  and  C_14 
ROOT
HETATM    1  C   UNL     1      41.637 -15.094   3.969  1.00  0.00     0.078 A 
HETATM    2  S   UNL     1      43.281 -14.872   4.328  1.00  0.00    -0.067 SA
HETATM    3  C   UNL     1      42.928 -14.179   5.861  1.00  0.00     0.074 A 
HETATM    4  C   UNL     1      41.563 -13.999   6.011  1.00  0.00     0.027 A 
HETATM    5  C   UNL     1      40.814 -14.529   4.910  1.00  0.00     0.039 A 
ENDROOT
BRANCH   1   6
HETATM    6  N   UNL     1      41.435 -15.773   2.796  1.00  0.00    -0.303 N 
HETATM    7  C   UNL     1      41.756 -17.056   2.445  1.00  0.00     0.325 C 
HETATM    8  N   UNL     1      42.632 -17.722   3.260  1.00  0.00    -0.309 N 
HETATM    9  O   UNL     1      41.302 -17.478   1.382  1.00  0.00    -0.247 OA
HETATM   10  H   UNL     1      43.017 -17.187   4.019  1.00  0.00     0.170 HD
HETATM   11  H   UNL     1      41.038 -15.243   2.029  1.00  0.00     0.171 HD
BRANCH   8  12
HETATM   12  C   UNL     1      43.236 -18.978   3.044  1.00  0.00     0.036 A 
HETATM   13  C   UNL     1      42.945 -19.816   1.965  1.00  0.00     0.029 A 
HETATM   14  C   UNL     1      43.634 -21.023   1.798  1.00  0.00     0.002 A 
HETATM   15  C   UNL     1      44.608 -21.410   2.716  1.00  0.00     0.000 A 
HETATM   16  C   UNL     1      44.894 -20.592   3.804  1.00  0.00     0.002 A 
HETATM   17  C   UNL     1      44.214 -19.381   3.965  1.00  0.00     0.029 A 
ENDBRANCH   8  12
ENDBRANCH   1   6
BRANCH   3  18
HETATM   18  C   UNL     1      44.034 -13.906   6.769  1.00  0.00     0.258 C 
HETATM   19  N   UNL     1      43.834 -12.867   7.657  1.00  0.00    -0.352 N 
HETATM   20  H   UNL     1      43.049 -12.245   7.537  1.00  0.00     0.163 HD
HETATM   21  O   UNL     1      45.081 -14.550   6.780  1.00  0.00    -0.267 OA
BRANCH  19  22
HETATM   22  C   UNL     1      44.797 -12.558   8.693  1.00  0.00     0.162 C 
BRANCH  22  23
HETATM   23  C   UNL     1      44.184 -11.915   9.903  1.00  0.00    -0.023 A 
HETATM   24  C   UNL     1      44.106 -12.607  11.109  1.00  0.00     0.125 A 
HETATM   25  N   UNL     1      43.622 -12.086  12.260  1.00  0.00    -0.273 NA
HETATM   26  C   UNL     1      43.207 -10.802  12.216  1.00  0.00     0.116 A 
HETATM   27  C   UNL     1      43.252 -10.019  11.076  1.00  0.00     0.020 A 
HETATM   28  C   UNL     1      43.752 -10.584   9.906  1.00  0.00     0.012 A 
ENDBRANCH  22  23
ENDBRANCH  19  22
ENDBRANCH   3  18
TORSDOF 5
ENDMDL
