MODEL 1
REMARK VINA RESULT:     -10.1      0.000      0.000
REMARK  7 active torsions:
REMARK  status: ('A' for Active; 'I' for Inactive)
REMARK    1  A    between atoms: C_3  and  C_4 
REMARK    2  A    between atoms: C_11  and  N_12 
REMARK       I    between atoms: N_12  and  C_13 
REMARK    3  A    between atoms: C_13  and  C_14 
REMARK    4  A    between atoms: C_21  and  C_22 
REMARK       I    between atoms: C_22  and  N_23 
REMARK    5  A    between atoms: N_23  and  C_24 
REMARK    6  A    between atoms: C_24  and  C_25 
REMARK    7  A    between atoms: C_25  and  C_26 
ROOT
HETATM    1  C   UNL     1      42.133 -16.746   2.818  1.00  0.00     0.158 C 
HETATM    2  N   UNL     1      42.796 -16.835   4.096  1.00  0.00    -0.335 N 
HETATM    3  C   UNL     1      43.476 -17.958   4.518  1.00  0.00     0.111 A 
HETATM    4  N   UNL     1      44.237 -17.690   5.554  1.00  0.00    -0.233 NA
HETATM    5  C   UNL     1      44.011 -16.372   5.839  1.00  0.00     0.089 A 
HETATM    6  C   UNL     1      43.049 -15.811   4.990  1.00  0.00     0.091 A 
HETATM    7  C   UNL     1      42.648 -14.469   5.128  1.00  0.00     0.065 A 
HETATM    8  C   UNL     1      43.335 -13.701   6.087  1.00  0.00     0.049 A 
HETATM    9  C   UNL     1      44.297 -14.249   6.941  1.00  0.00     0.036 A 
HETATM   10  C   UNL     1      44.637 -15.598   6.829  1.00  0.00     0.051 A 
ENDROOT
BRANCH   9  11
HETATM   11  C   UNL     1      44.933 -13.348   7.943  1.00  0.00     0.251 C 
HETATM   12  N   UNL     1      44.194 -13.021   9.061  1.00  0.00    -0.357 N 
HETATM   13  H   UNL     1      43.214 -13.263   9.112  1.00  0.00     0.162 HD
HETATM   14  O   UNL     1      46.058 -12.907   7.732  1.00  0.00    -0.268 OA
BRANCH  12  15
HETATM   15  C   UNL     1      44.722 -12.103  10.057  1.00  0.00     0.127 C 
BRANCH  15  16
HETATM   16  C   UNL     1      44.167 -10.685   9.894  1.00  0.00     0.060 C 
BRANCH  16  17
HETATM   17  C   UNL     1      42.864 -10.501  10.601  1.00  0.00    -0.029 A 
HETATM   18  C   UNL     1      42.694 -10.070  11.957  1.00  0.00    -0.002 A 
HETATM   19  C   UNL     1      41.325 -10.027  12.216  1.00  0.00     0.042 A 
HETATM   20  C   UNL     1      43.587  -9.715  12.989  1.00  0.00     0.014 A 
HETATM   21  C   UNL     1      40.800  -9.641  13.456  1.00  0.00     0.030 A 
HETATM   22  N   UNL     1      40.685 -10.417  11.063  1.00  0.00    -0.365 N 
HETATM   23  C   UNL     1      41.706  -9.290  14.462  1.00  0.00     0.002 A 
HETATM   24  C   UNL     1      43.080  -9.327  14.235  1.00  0.00     0.001 A 
HETATM   25  H   UNL     1      39.682 -10.480  10.961  1.00  0.00     0.165 HD
HETATM   26  C   UNL     1      41.599 -10.706  10.086  1.00  0.00     0.096 A 
ENDBRANCH  16  17
ENDBRANCH  15  16
ENDBRANCH  12  15
ENDBRANCH   9  11
BRANCH   7  27
HETATM   27  N   UNL     1      41.643 -13.800   4.411  1.00  0.00    -0.323 N 
HETATM   28  C   UNL     1      41.780 -13.229   3.155  1.00  0.00     0.251 C 
HETATM   29  O   UNL     1      42.828 -13.074   2.537  1.00  0.00    -0.270 OA
HETATM   30  H   UNL     1      40.681 -14.095   4.585  1.00  0.00     0.169 HD
BRANCH  28  31
HETATM   31  C   UNL     1      40.413 -12.779   2.602  1.00  0.00     0.213 C 
HETATM   32  O   UNL     1      39.400 -13.745   2.966  1.00  0.00    -0.376 OA
HETATM   33  C   UNL     1      39.028 -14.446   1.775  1.00  0.00     0.168 C 
HETATM   34  C   UNL     1      39.176 -13.439   0.663  1.00  0.00     0.029 C 
HETATM   35  C   UNL     1      40.402 -12.660   1.082  1.00  0.00     0.044 C 
ENDBRANCH  28  31
ENDBRANCH   7  27
BRANCH   3  36
HETATM   36  C   UNL     1      43.433 -19.326   3.845  1.00  0.00     0.056 C 
HETATM   37  C   UNL     1      44.191 -19.354   2.481  1.00  0.00     0.012 C 
HETATM   38  C   UNL     1      44.666 -20.769   2.853  1.00  0.00     0.002 C 
HETATM   39  C   UNL     1      44.516 -20.338   4.324  1.00  0.00     0.012 C 
ENDBRANCH   3  36
TORSDOF 7
ENDMDL
MODEL 2
REMARK VINA RESULT:      -9.7      1.461      2.546
REMARK  7 active torsions:
REMARK  status: ('A' for Active; 'I' for Inactive)
REMARK    1  A    between atoms: C_3  and  C_4 
REMARK    2  A    between atoms: C_11  and  N_12 
REMARK       I    between atoms: N_12  and  C_13 
REMARK    3  A    between atoms: C_13  and  C_14 
REMARK    4  A    between atoms: C_21  and  C_22 
REMARK       I    between atoms: C_22  and  N_23 
REMARK    5  A    between atoms: N_23  and  C_24 
REMARK    6  A    between atoms: C_24  and  C_25 
REMARK    7  A    between atoms: C_25  and  C_26 
ROOT
HETATM    1  C   UNL     1      42.065 -16.246   2.929  1.00  0.00     0.158 C 
HETATM    2  N   UNL     1      42.728 -16.403   4.200  1.00  0.00    -0.335 N 
HETATM    3  C   UNL     1      43.369 -17.564   4.579  1.00  0.00     0.111 A 
HETATM    4  N   UNL     1      44.143 -17.360   5.621  1.00  0.00    -0.233 NA
HETATM    5  C   UNL     1      43.964 -16.045   5.953  1.00  0.00     0.089 A 
HETATM    6  C   UNL     1      43.020 -15.422   5.128  1.00  0.00     0.091 A 
HETATM    7  C   UNL     1      42.668 -14.072   5.315  1.00  0.00     0.065 A 
HETATM    8  C   UNL     1      43.385 -13.363   6.297  1.00  0.00     0.049 A 
HETATM    9  C   UNL     1      44.330 -13.975   7.128  1.00  0.00     0.036 A 
HETATM   10  C   UNL     1      44.621 -15.330   6.967  1.00  0.00     0.051 A 
ENDROOT
BRANCH   9  11
HETATM   11  C   UNL     1      45.001 -13.133   8.157  1.00  0.00     0.251 C 
HETATM   12  N   UNL     1      44.315 -12.901   9.332  1.00  0.00    -0.357 N 
HETATM   13  H   UNL     1      43.344 -13.167   9.415  1.00  0.00     0.162 HD
HETATM   14  O   UNL     1      46.105 -12.654   7.922  1.00  0.00    -0.268 OA
BRANCH  12  15
HETATM   15  C   UNL     1      44.878 -12.044  10.363  1.00  0.00     0.127 C 
BRANCH  15  16
HETATM   16  C   UNL     1      44.143 -10.705  10.472  1.00  0.00     0.060 C 
BRANCH  16  17
HETATM   17  C   UNL     1      42.658 -10.875  10.519  1.00  0.00    -0.029 A 
HETATM   18  C   UNL     1      41.758 -10.726   9.415  1.00  0.00    -0.002 A 
HETATM   19  C   UNL     1      40.470 -10.974   9.887  1.00  0.00     0.042 A 
HETATM   20  C   UNL     1      41.926 -10.399   8.054  1.00  0.00     0.014 A 
HETATM   21  C   UNL     1      39.338 -10.917   9.065  1.00  0.00     0.030 A 
HETATM   22  N   UNL     1      40.581 -11.261  11.228  1.00  0.00    -0.365 N 
HETATM   23  C   UNL     1      39.531 -10.595   7.718  1.00  0.00     0.002 A 
HETATM   24  C   UNL     1      40.805 -10.338   7.217  1.00  0.00     0.001 A 
HETATM   25  H   UNL     1      39.801 -11.482  11.831  1.00  0.00     0.165 HD
HETATM   26  C   UNL     1      41.892 -11.203  11.620  1.00  0.00     0.096 A 
ENDBRANCH  16  17
ENDBRANCH  15  16
ENDBRANCH  12  15
ENDBRANCH   9  11
BRANCH   7  27
HETATM   27  N   UNL     1      41.685 -13.342   4.626  1.00  0.00    -0.323 N 
HETATM   28  C   UNL     1      40.329 -13.326   4.916  1.00  0.00     0.251 C 
HETATM   29  O   UNL     1      39.746 -14.056   5.711  1.00  0.00    -0.270 OA
HETATM   30  H   UNL     1      41.985 -12.472   4.185  1.00  0.00     0.169 HD
BRANCH  28  31
HETATM   31  C   UNL     1      39.602 -12.248   4.087  1.00  0.00     0.213 C 
HETATM   32  O   UNL     1      39.066 -12.842   2.883  1.00  0.00    -0.376 OA
HETATM   33  C   UNL     1      39.850 -12.367   1.784  1.00  0.00     0.168 C 
HETATM   34  C   UNL     1      40.275 -10.975   2.177  1.00  0.00     0.029 C 
HETATM   35  C   UNL     1      40.523 -11.111   3.662  1.00  0.00     0.044 C 
ENDBRANCH  28  31
ENDBRANCH   7  27
BRANCH   3  36
HETATM   36  C   UNL     1      43.275 -18.905   3.859  1.00  0.00     0.056 C 
HETATM   37  C   UNL     1      44.000 -18.902   2.478  1.00  0.00     0.012 C 
HETATM   38  C   UNL     1      44.447 -20.342   2.787  1.00  0.00     0.002 C 
HETATM   39  C   UNL     1      44.341 -19.961   4.275  1.00  0.00     0.012 C 
ENDBRANCH   3  36
TORSDOF 7
ENDMDL
MODEL 3
REMARK VINA RESULT:      -9.3      2.714      9.052
REMARK  7 active torsions:
REMARK  status: ('A' for Active; 'I' for Inactive)
REMARK    1  A    between atoms: C_3  and  C_4 
REMARK    2  A    between atoms: C_11  and  N_12 
REMARK       I    between atoms: N_12  and  C_13 
REMARK    3  A    between atoms: C_13  and  C_14 
REMARK    4  A    between atoms: C_21  and  C_22 
REMARK       I    between atoms: C_22  and  N_23 
REMARK    5  A    between atoms: N_23  and  C_24 
REMARK    6  A    between atoms: C_24  and  C_25 
REMARK    7  A    between atoms: C_25  and  C_26 
ROOT
HETATM    1  C   UNL     1      45.235 -17.946   7.102  1.00  0.00     0.158 C 
HETATM    2  N   UNL     1      44.447 -17.690   5.921  1.00  0.00    -0.335 N 
HETATM    3  C   UNL     1      44.265 -18.620   4.918  1.00  0.00     0.111 A 
HETATM    4  N   UNL     1      43.280 -18.271   4.122  1.00  0.00    -0.233 NA
HETATM    5  C   UNL     1      42.844 -17.063   4.592  1.00  0.00     0.089 A 
HETATM    6  C   UNL     1      43.604 -16.622   5.682  1.00  0.00     0.091 A 
HETATM    7  C   UNL     1      43.338 -15.387   6.304  1.00  0.00     0.065 A 
HETATM    8  C   UNL     1      42.213 -14.678   5.842  1.00  0.00     0.049 A 
HETATM    9  C   UNL     1      41.447 -15.108   4.754  1.00  0.00     0.036 A 
HETATM   10  C   UNL     1      41.764 -16.306   4.112  1.00  0.00     0.051 A 
ENDROOT
BRANCH   9  11
HETATM   11  C   UNL     1      40.300 -14.256   4.330  1.00  0.00     0.251 C 
HETATM   12  N   UNL     1      40.060 -14.144   2.976  1.00  0.00    -0.357 N 
HETATM   13  H   UNL     1      40.730 -14.502   2.309  1.00  0.00     0.162 HD
HETATM   14  O   UNL     1      39.637 -13.667   5.178  1.00  0.00    -0.268 OA
BRANCH  12  15
HETATM   15  C   UNL     1      38.995 -13.288   2.480  1.00  0.00     0.127 C 
BRANCH  15  16
HETATM   16  C   UNL     1      39.425 -12.471   1.258  1.00  0.00     0.060 C 
BRANCH  16  17
HETATM   17  C   UNL     1      39.183 -13.199  -0.025  1.00  0.00    -0.029 A 
HETATM   18  C   UNL     1      40.131 -13.377  -1.084  1.00  0.00    -0.002 A 
HETATM   19  C   UNL     1      39.503 -14.113  -2.089  1.00  0.00     0.042 A 
HETATM   20  C   UNL     1      41.467 -12.974  -1.278  1.00  0.00     0.014 A 
HETATM   21  C   UNL     1      40.148 -14.473  -3.279  1.00  0.00     0.030 A 
HETATM   22  N   UNL     1      38.223 -14.372  -1.659  1.00  0.00    -0.365 N 
HETATM   23  C   UNL     1      41.475 -14.065  -3.446  1.00  0.00     0.002 A 
HETATM   24  C   UNL     1      42.127 -13.325  -2.462  1.00  0.00     0.001 A 
HETATM   25  H   UNL     1      37.537 -14.891  -2.188  1.00  0.00     0.165 HD
HETATM   26  C   UNL     1      38.018 -13.826  -0.420  1.00  0.00     0.096 A 
ENDBRANCH  16  17
ENDBRANCH  15  16
ENDBRANCH  12  15
ENDBRANCH   9  11
BRANCH   7  27
HETATM   27  N   UNL     1      44.062 -14.780   7.343  1.00  0.00    -0.323 N 
HETATM   28  C   UNL     1      45.046 -13.815   7.195  1.00  0.00     0.251 C 
HETATM   29  O   UNL     1      45.552 -13.447   6.140  1.00  0.00    -0.270 OA
HETATM   30  H   UNL     1      43.591 -14.700   8.244  1.00  0.00     0.169 HD
BRANCH  28  31
HETATM   31  C   UNL     1      45.459 -13.235   8.563  1.00  0.00     0.213 C 
HETATM   32  O   UNL     1      44.281 -13.008   9.369  1.00  0.00    -0.376 OA
HETATM   33  C   UNL     1      44.083 -11.593   9.453  1.00  0.00     0.168 C 
HETATM   34  C   UNL     1      45.468 -11.000   9.416  1.00  0.00     0.029 C 
HETATM   35  C   UNL     1      46.190 -11.903   8.442  1.00  0.00     0.044 C 
ENDBRANCH  28  31
ENDBRANCH   7  27
BRANCH   3  36
HETATM   36  C   UNL     1      45.033 -19.929   4.771  1.00  0.00     0.056 C 
HETATM   37  C   UNL     1      44.406 -21.095   5.596  1.00  0.00     0.012 C 
HETATM   38  C   UNL     1      44.765 -22.025   4.424  1.00  0.00     0.002 C 
HETATM   39  C   UNL     1      44.665 -20.781   3.522  1.00  0.00     0.012 C 
ENDBRANCH   3  36
TORSDOF 7
ENDMDL
MODEL 4
REMARK VINA RESULT:      -9.2      2.622      3.624
REMARK  7 active torsions:
REMARK  status: ('A' for Active; 'I' for Inactive)
REMARK    1  A    between atoms: C_3  and  C_4 
REMARK    2  A    between atoms: C_11  and  N_12 
REMARK       I    between atoms: N_12  and  C_13 
REMARK    3  A    between atoms: C_13  and  C_14 
REMARK    4  A    between atoms: C_21  and  C_22 
REMARK       I    between atoms: C_22  and  N_23 
REMARK    5  A    between atoms: N_23  and  C_24 
REMARK    6  A    between atoms: C_24  and  C_25 
REMARK    7  A    between atoms: C_25  and  C_26 
ROOT
HETATM    1  C   UNL     1      42.337 -16.303   1.732  1.00  0.00     0.158 C 
HETATM    2  N   UNL     1      41.721 -16.195   3.032  1.00  0.00    -0.335 N 
HETATM    3  C   UNL     1      41.935 -17.102   4.048  1.00  0.00     0.111 A 
HETATM    4  N   UNL     1      41.521 -16.629   5.201  1.00  0.00    -0.233 NA
HETATM    5  C   UNL     1      40.984 -15.404   4.918  1.00  0.00     0.089 A 
HETATM    6  C   UNL     1      41.019 -15.121   3.547  1.00  0.00     0.091 A 
HETATM    7  C   UNL     1      40.493 -13.919   3.037  1.00  0.00     0.065 A 
HETATM    8  C   UNL     1      40.031 -12.983   3.980  1.00  0.00     0.049 A 
HETATM    9  C   UNL     1      39.989 -13.254   5.352  1.00  0.00     0.036 A 
HETATM   10  C   UNL     1      40.460 -14.476   5.833  1.00  0.00     0.051 A 
ENDROOT
BRANCH   9  11
HETATM   11  C   UNL     1      39.445 -12.199   6.253  1.00  0.00     0.251 C 
HETATM   12  N   UNL     1      39.667 -12.345   7.607  1.00  0.00    -0.357 N 
HETATM   13  H   UNL     1      40.048 -13.208   7.970  1.00  0.00     0.162 HD
HETATM   14  O   UNL     1      38.800 -11.270   5.778  1.00  0.00    -0.268 OA
BRANCH  12  15
HETATM   15  C   UNL     1      39.121 -11.389   8.556  1.00  0.00     0.127 C 
BRANCH  15  16
HETATM   16  C   UNL     1      40.154 -10.346   8.992  1.00  0.00     0.060 C 
BRANCH  16  17
HETATM   17  C   UNL     1      40.965 -10.804  10.161  1.00  0.00    -0.029 A 
HETATM   18  C   UNL     1      42.390 -10.952  10.193  1.00  0.00    -0.002 A 
HETATM   19  C   UNL     1      42.738 -11.395  11.468  1.00  0.00     0.042 A 
HETATM   20  C   UNL     1      43.414 -10.751   9.246  1.00  0.00     0.014 A 
HETATM   21  C   UNL     1      44.062 -11.643  11.849  1.00  0.00     0.030 A 
HETATM   22  N   UNL     1      41.570 -11.514  12.186  1.00  0.00    -0.365 N 
HETATM   23  C   UNL     1      45.061 -11.431  10.893  1.00  0.00     0.002 A 
HETATM   24  C   UNL     1      44.744 -10.993   9.609  1.00  0.00     0.001 A 
HETATM   25  H   UNL     1      41.520 -11.818  13.148  1.00  0.00     0.165 HD
HETATM   26  C   UNL     1      40.497 -11.163  11.410  1.00  0.00     0.096 A 
ENDBRANCH  16  17
ENDBRANCH  15  16
ENDBRANCH  12  15
ENDBRANCH   9  11
BRANCH   7  27
HETATM   27  N   UNL     1      40.384 -13.540   1.690  1.00  0.00    -0.323 N 
HETATM   28  C   UNL     1      41.366 -12.916   0.936  1.00  0.00     0.251 C 
HETATM   29  O   UNL     1      42.422 -12.455   1.356  1.00  0.00    -0.270 OA
HETATM   30  H   UNL     1      39.761 -14.099   1.105  1.00  0.00     0.169 HD
BRANCH  28  31
HETATM   31  C   UNL     1      40.963 -12.853  -0.551  1.00  0.00     0.213 C 
HETATM   32  O   UNL     1      40.142 -13.997  -0.880  1.00  0.00    -0.376 OA
HETATM   33  C   UNL     1      40.926 -14.866  -1.703  1.00  0.00     0.168 C 
HETATM   34  C   UNL     1      41.829 -13.952  -2.491  1.00  0.00     0.029 C 
HETATM   35  C   UNL     1      42.164 -12.872  -1.489  1.00  0.00     0.044 C 
ENDBRANCH  28  31
ENDBRANCH   7  27
BRANCH   3  36
HETATM   36  C   UNL     1      42.629 -18.452   3.900  1.00  0.00     0.056 C 
HETATM   37  C   UNL     1      44.173 -18.321   3.717  1.00  0.00     0.012 C 
HETATM   38  C   UNL     1      44.314 -19.579   4.592  1.00  0.00     0.002 C 
HETATM   39  C   UNL     1      42.975 -19.173   5.236  1.00  0.00     0.012 C 
ENDBRANCH   3  36
TORSDOF 7
ENDMDL
MODEL 5
REMARK VINA RESULT:      -9.2      2.438      9.525
REMARK  7 active torsions:
REMARK  status: ('A' for Active; 'I' for Inactive)
REMARK    1  A    between atoms: C_3  and  C_4 
REMARK    2  A    between atoms: C_11  and  N_12 
REMARK       I    between atoms: N_12  and  C_13 
REMARK    3  A    between atoms: C_13  and  C_14 
REMARK    4  A    between atoms: C_21  and  C_22 
REMARK       I    between atoms: C_22  and  N_23 
REMARK    5  A    between atoms: N_23  and  C_24 
REMARK    6  A    between atoms: C_24  and  C_25 
REMARK    7  A    between atoms: C_25  and  C_26 
ROOT
HETATM    1  C   UNL     1      40.655  -8.934  10.309  1.00  0.00     0.158 C 
HETATM    2  N   UNL     1      41.921  -9.625  10.353  1.00  0.00    -0.335 N 
HETATM    3  C   UNL     1      42.684  -9.731  11.497  1.00  0.00     0.111 A 
HETATM    4  N   UNL     1      43.614 -10.649  11.362  1.00  0.00    -0.233 NA
HETATM    5  C   UNL     1      43.481 -11.116  10.084  1.00  0.00     0.089 A 
HETATM    6  C   UNL     1      42.472 -10.443   9.384  1.00  0.00     0.091 A 
HETATM    7  C   UNL     1      42.185 -10.752   8.041  1.00  0.00     0.065 A 
HETATM    8  C   UNL     1      42.888 -11.834   7.479  1.00  0.00     0.049 A 
HETATM    9  C   UNL     1      43.899 -12.514   8.168  1.00  0.00     0.036 A 
HETATM   10  C   UNL     1      44.210 -12.152   9.479  1.00  0.00     0.051 A 
ENDROOT
BRANCH   9  11
HETATM   11  C   UNL     1      44.601 -13.620   7.458  1.00  0.00     0.251 C 
HETATM   12  N   UNL     1      43.912 -14.803   7.291  1.00  0.00    -0.357 N 
HETATM   13  H   UNL     1      43.033 -14.952   7.766  1.00  0.00     0.162 HD
HETATM   14  O   UNL     1      45.757 -13.460   7.081  1.00  0.00    -0.268 OA
BRANCH  12  15
HETATM   15  C   UNL     1      44.547 -15.948   6.658  1.00  0.00     0.127 C 
BRANCH  15  16
HETATM   16  C   UNL     1      43.635 -17.179   6.633  1.00  0.00     0.060 C 
BRANCH  16  17
HETATM   17  C   UNL     1      43.153 -17.499   5.255  1.00  0.00    -0.029 A 
HETATM   18  C   UNL     1      43.609 -18.581   4.433  1.00  0.00    -0.002 A 
HETATM   19  C   UNL     1      42.901 -18.524   3.233  1.00  0.00     0.042 A 
HETATM   20  C   UNL     1      44.565 -19.603   4.604  1.00  0.00     0.014 A 
HETATM   21  C   UNL     1      43.096 -19.442   2.194  1.00  0.00     0.030 A 
HETATM   22  N   UNL     1      42.048 -17.448   3.320  1.00  0.00    -0.365 N 
HETATM   23  C   UNL     1      44.047 -20.449   2.389  1.00  0.00     0.002 A 
HETATM   24  C   UNL     1      44.773 -20.529   3.575  1.00  0.00     0.001 A 
HETATM   25  H   UNL     1      41.410 -17.166   2.589  1.00  0.00     0.165 HD
HETATM   26  C   UNL     1      42.191 -16.823   4.530  1.00  0.00     0.096 A 
ENDBRANCH  16  17
ENDBRANCH  15  16
ENDBRANCH  12  15
ENDBRANCH   9  11
BRANCH   7  27
HETATM   27  N   UNL     1      41.268 -10.109   7.194  1.00  0.00    -0.323 N 
HETATM   28  C   UNL     1      39.897 -10.316   7.170  1.00  0.00     0.251 C 
HETATM   29  O   UNL     1      39.284 -11.195   7.765  1.00  0.00    -0.270 OA
HETATM   30  H   UNL     1      41.510  -9.166   6.887  1.00  0.00     0.169 HD
BRANCH  28  31
HETATM   31  C   UNL     1      39.200  -9.279   6.266  1.00  0.00     0.213 C 
HETATM   32  O   UNL     1      38.470  -9.960   5.220  1.00  0.00    -0.376 OA
HETATM   33  C   UNL     1      39.170  -9.737   3.992  1.00  0.00     0.168 C 
HETATM   34  C   UNL     1      39.784  -8.367   4.133  1.00  0.00     0.029 C 
HETATM   35  C   UNL     1      40.183  -8.330   5.591  1.00  0.00     0.044 C 
ENDBRANCH  28  31
ENDBRANCH   7  27
BRANCH   3  36
HETATM   36  C   UNL     1      42.455  -8.959  12.792  1.00  0.00     0.056 C 
HETATM   37  C   UNL     1      41.423  -9.652  13.736  1.00  0.00     0.012 C 
HETATM   38  C   UNL     1      42.308  -9.208  14.914  1.00  0.00     0.002 C 
HETATM   39  C   UNL     1      43.487  -9.235  13.924  1.00  0.00     0.012 C 
ENDBRANCH   3  36
TORSDOF 7
ENDMDL
MODEL 6
REMARK VINA RESULT:      -9.2      3.297     10.421
REMARK  7 active torsions:
REMARK  status: ('A' for Active; 'I' for Inactive)
REMARK    1  A    between atoms: C_3  and  C_4 
REMARK    2  A    between atoms: C_11  and  N_12 
REMARK       I    between atoms: N_12  and  C_13 
REMARK    3  A    between atoms: C_13  and  C_14 
REMARK    4  A    between atoms: C_21  and  C_22 
REMARK       I    between atoms: C_22  and  N_23 
REMARK    5  A    between atoms: N_23  and  C_24 
REMARK    6  A    between atoms: C_24  and  C_25 
REMARK    7  A    between atoms: C_25  and  C_26 
ROOT
HETATM    1  C   UNL     1      40.510  -8.438   6.290  1.00  0.00     0.158 C 
HETATM    2  N   UNL     1      39.810  -9.613   5.831  1.00  0.00    -0.335 N 
HETATM    3  C   UNL     1      38.684  -9.559   5.037  1.00  0.00     0.111 A 
HETATM    4  N   UNL     1      38.420 -10.732   4.508  1.00  0.00    -0.233 NA
HETATM    5  C   UNL     1      39.372 -11.577   5.009  1.00  0.00     0.089 A 
HETATM    6  C   UNL     1      40.225 -10.929   5.910  1.00  0.00     0.091 A 
HETATM    7  C   UNL     1      41.262 -11.624   6.560  1.00  0.00     0.065 A 
HETATM    8  C   UNL     1      41.458 -12.965   6.181  1.00  0.00     0.049 A 
HETATM    9  C   UNL     1      40.611 -13.624   5.282  1.00  0.00     0.036 A 
HETATM   10  C   UNL     1      39.552 -12.933   4.694  1.00  0.00     0.051 A 
ENDROOT
BRANCH   9  11
HETATM   11  C   UNL     1      40.894 -15.056   4.983  1.00  0.00     0.251 C 
HETATM   12  N   UNL     1      41.063 -15.406   3.660  1.00  0.00    -0.357 N 
HETATM   13  H   UNL     1      40.849 -14.743   2.927  1.00  0.00     0.162 HD
HETATM   14  O   UNL     1      40.936 -15.869   5.901  1.00  0.00    -0.268 OA
BRANCH  12  15
HETATM   15  C   UNL     1      41.286 -16.791   3.281  1.00  0.00     0.127 C 
BRANCH  15  16
HETATM   16  C   UNL     1      42.698 -17.025   2.735  1.00  0.00     0.060 C 
BRANCH  16  17
HETATM   17  C   UNL     1      43.430 -18.088   3.490  1.00  0.00    -0.029 A 
HETATM   18  C   UNL     1      43.664 -19.429   3.043  1.00  0.00    -0.002 A 
HETATM   19  C   UNL     1      44.383 -20.085   4.041  1.00  0.00     0.042 A 
HETATM   20  C   UNL     1      43.324 -20.144   1.876  1.00  0.00     0.014 A 
HETATM   21  C   UNL     1      44.786 -21.421   3.931  1.00  0.00     0.030 A 
HETATM   22  N   UNL     1      44.578 -19.178   5.058  1.00  0.00    -0.365 N 
HETATM   23  C   UNL     1      44.441 -22.107   2.762  1.00  0.00     0.002 A 
HETATM   24  C   UNL     1      43.719 -21.481   1.749  1.00  0.00     0.001 A 
HETATM   25  H   UNL     1      45.073 -19.381   5.915  1.00  0.00     0.165 HD
HETATM   26  C   UNL     1      44.008 -17.975   4.739  1.00  0.00     0.096 A 
ENDBRANCH  16  17
ENDBRANCH  15  16
ENDBRANCH  12  15
ENDBRANCH   9  11
BRANCH   7  27
HETATM   27  N   UNL     1      42.135 -11.130   7.543  1.00  0.00    -0.323 N 
HETATM   28  C   UNL     1      41.785 -10.759   8.833  1.00  0.00     0.251 C 
HETATM   29  O   UNL     1      40.647 -10.652   9.275  1.00  0.00    -0.270 OA
HETATM   30  H   UNL     1      43.106 -11.442   7.493  1.00  0.00     0.169 HD
BRANCH  28  31
HETATM   31  C   UNL     1      43.039 -10.474   9.683  1.00  0.00     0.213 C 
HETATM   32  O   UNL     1      44.215 -10.950   8.990  1.00  0.00    -0.376 OA
HETATM   33  C   UNL     1      44.686 -12.108   9.687  1.00  0.00     0.168 C 
HETATM   34  C   UNL     1      44.338 -11.863  11.134  1.00  0.00     0.029 C 
HETATM   35  C   UNL     1      43.001 -11.165  11.041  1.00  0.00     0.044 C 
ENDBRANCH  28  31
ENDBRANCH   7  27
BRANCH   3  36
HETATM   36  C   UNL     1      37.875  -8.303   4.728  1.00  0.00     0.056 C 
HETATM   37  C   UNL     1      36.510  -8.617   4.040  1.00  0.00     0.012 C 
HETATM   38  C   UNL     1      35.905  -7.474   4.874  1.00  0.00     0.002 C 
HETATM   39  C   UNL     1      37.013  -7.759   5.905  1.00  0.00     0.012 C 
ENDBRANCH   3  36
TORSDOF 7
ENDMDL
MODEL 7
REMARK VINA RESULT:      -9.2      2.769      3.796
REMARK  7 active torsions:
REMARK  status: ('A' for Active; 'I' for Inactive)
REMARK    1  A    between atoms: C_3  and  C_4 
REMARK    2  A    between atoms: C_11  and  N_12 
REMARK       I    between atoms: N_12  and  C_13 
REMARK    3  A    between atoms: C_13  and  C_14 
REMARK    4  A    between atoms: C_21  and  C_22 
REMARK       I    between atoms: C_22  and  N_23 
REMARK    5  A    between atoms: N_23  and  C_24 
REMARK    6  A    between atoms: C_24  and  C_25 
REMARK    7  A    between atoms: C_25  and  C_26 
ROOT
HETATM    1  C   UNL     1      41.502 -16.300   0.323  1.00  0.00     0.158 C 
HETATM    2  N   UNL     1      41.269 -16.214   1.744  1.00  0.00    -0.335 N 
HETATM    3  C   UNL     1      41.813 -17.095   2.654  1.00  0.00     0.111 A 
HETATM    4  N   UNL     1      41.711 -16.635   3.879  1.00  0.00    -0.233 NA
HETATM    5  C   UNL     1      41.044 -15.447   3.766  1.00  0.00     0.089 A 
HETATM    6  C   UNL     1      40.677 -15.178   2.441  1.00  0.00     0.091 A 
HETATM    7  C   UNL     1      39.958 -14.015   2.106  1.00  0.00     0.065 A 
HETATM    8  C   UNL     1      39.722 -13.097   3.146  1.00  0.00     0.049 A 
HETATM    9  C   UNL     1      40.083 -13.355   4.474  1.00  0.00     0.036 A 
HETATM   10  C   UNL     1      40.742 -14.541   4.796  1.00  0.00     0.051 A 
ENDROOT
BRANCH   9  11
HETATM   11  C   UNL     1      39.750 -12.325   5.497  1.00  0.00     0.251 C 
HETATM   12  N   UNL     1      40.638 -11.281   5.660  1.00  0.00    -0.357 N 
HETATM   13  H   UNL     1      41.542 -11.308   5.209  1.00  0.00     0.162 HD
HETATM   14  O   UNL     1      38.734 -12.449   6.173  1.00  0.00    -0.268 OA
BRANCH  12  15
HETATM   15  C   UNL     1      40.413 -10.267   6.676  1.00  0.00     0.127 C 
BRANCH  15  16
HETATM   16  C   UNL     1      41.553 -10.201   7.696  1.00  0.00     0.060 C 
BRANCH  16  17
HETATM   17  C   UNL     1      41.110 -10.593   9.069  1.00  0.00    -0.029 A 
HETATM   18  C   UNL     1      41.929 -10.614  10.244  1.00  0.00    -0.002 A 
HETATM   19  C   UNL     1      41.128 -11.032  11.306  1.00  0.00     0.042 A 
HETATM   20  C   UNL     1      43.283 -10.318  10.497  1.00  0.00     0.014 A 
HETATM   21  C   UNL     1      41.611 -11.164  12.614  1.00  0.00     0.030 A 
HETATM   22  N   UNL     1      39.869 -11.257  10.797  1.00  0.00    -0.365 N 
HETATM   23  C   UNL     1      42.957 -10.860  12.840  1.00  0.00     0.002 A 
HETATM   24  C   UNL     1      43.784 -10.444  11.799  1.00  0.00     0.001 A 
HETATM   25  H   UNL     1      39.080 -11.570  11.344  1.00  0.00     0.165 HD
HETATM   26  C   UNL     1      39.847 -10.998   9.453  1.00  0.00     0.096 A 
ENDBRANCH  16  17
ENDBRANCH  15  16
ENDBRANCH  12  15
ENDBRANCH   9  11
BRANCH   7  27
HETATM   27  N   UNL     1      39.453 -13.658   0.845  1.00  0.00    -0.323 N 
HETATM   28  C   UNL     1      38.152 -13.850   0.404  1.00  0.00     0.251 C 
HETATM   29  O   UNL     1      37.279 -14.497   0.972  1.00  0.00    -0.270 OA
HETATM   30  H   UNL     1      39.890 -12.858   0.386  1.00  0.00     0.169 HD
BRANCH  28  31
HETATM   31  C   UNL     1      37.918 -13.138  -0.944  1.00  0.00     0.213 C 
HETATM   32  O   UNL     1      37.854 -14.117  -2.006  1.00  0.00    -0.376 OA
HETATM   33  C   UNL     1      39.050 -13.990  -2.780  1.00  0.00     0.168 C 
HETATM   34  C   UNL     1      39.409 -12.527  -2.711  1.00  0.00     0.029 C 
HETATM   35  C   UNL     1      39.032 -12.159  -1.295  1.00  0.00     0.044 C 
ENDBRANCH  28  31
ENDBRANCH   7  27
BRANCH   3  36
HETATM   36  C   UNL     1      42.519 -18.403   2.309  1.00  0.00     0.056 C 
HETATM   37  C   UNL     1      43.979 -18.188   1.804  1.00  0.00     0.012 C 
HETATM   38  C   UNL     1      44.361 -19.460   2.580  1.00  0.00     0.002 C 
HETATM   39  C   UNL     1      43.177 -19.142   3.512  1.00  0.00     0.012 C 
ENDBRANCH   3  36
TORSDOF 7
ENDMDL
MODEL 8
REMARK VINA RESULT:      -9.1      2.820      9.094
REMARK  7 active torsions:
REMARK  status: ('A' for Active; 'I' for Inactive)
REMARK    1  A    between atoms: C_3  and  C_4 
REMARK    2  A    between atoms: C_11  and  N_12 
REMARK       I    between atoms: N_12  and  C_13 
REMARK    3  A    between atoms: C_13  and  C_14 
REMARK    4  A    between atoms: C_21  and  C_22 
REMARK       I    between atoms: C_22  and  N_23 
REMARK    5  A    between atoms: N_23  and  C_24 
REMARK    6  A    between atoms: C_24  and  C_25 
REMARK    7  A    between atoms: C_25  and  C_26 
ROOT
HETATM    1  C   UNL     1      39.795 -10.112   3.388  1.00  0.00     0.158 C 
HETATM    2  N   UNL     1      39.494 -11.523   3.404  1.00  0.00    -0.335 N 
HETATM    3  C   UNL     1      38.837 -12.166   2.376  1.00  0.00     0.111 A 
HETATM    4  N   UNL     1      38.956 -13.470   2.480  1.00  0.00    -0.233 NA
HETATM    5  C   UNL     1      39.667 -13.679   3.629  1.00  0.00     0.089 A 
HETATM    6  C   UNL     1      39.962 -12.478   4.286  1.00  0.00     0.091 A 
HETATM    7  C   UNL     1      40.668 -12.468   5.504  1.00  0.00     0.065 A 
HETATM    8  C   UNL     1      41.146 -13.708   5.967  1.00  0.00     0.049 A 
HETATM    9  C   UNL     1      40.857 -14.914   5.320  1.00  0.00     0.036 A 
HETATM   10  C   UNL     1      40.104 -14.909   4.145  1.00  0.00     0.051 A 
ENDROOT
BRANCH   9  11
HETATM   11  C   UNL     1      41.387 -16.170   5.921  1.00  0.00     0.251 C 
HETATM   12  N   UNL     1      42.461 -16.059   6.779  1.00  0.00    -0.357 N 
HETATM   13  H   UNL     1      42.954 -15.180   6.866  1.00  0.00     0.162 HD
HETATM   14  O   UNL     1      40.882 -17.247   5.617  1.00  0.00    -0.268 OA
BRANCH  12  15
HETATM   15  C   UNL     1      43.070 -17.242   7.363  1.00  0.00     0.127 C 
BRANCH  15  16
HETATM   16  C   UNL     1      44.439 -17.555   6.751  1.00  0.00     0.060 C 
BRANCH  16  17
HETATM   17  C   UNL     1      44.351 -18.561   5.649  1.00  0.00    -0.029 A 
HETATM   18  C   UNL     1      44.068 -18.281   4.273  1.00  0.00    -0.002 A 
HETATM   19  C   UNL     1      44.084 -19.494   3.585  1.00  0.00     0.042 A 
HETATM   20  C   UNL     1      43.796 -17.101   3.552  1.00  0.00     0.014 A 
HETATM   21  C   UNL     1      43.847 -19.588   2.209  1.00  0.00     0.030 A 
HETATM   22  N   UNL     1      44.365 -20.476   4.508  1.00  0.00    -0.365 N 
HETATM   23  C   UNL     1      43.583 -18.403   1.515  1.00  0.00     0.002 A 
HETATM   24  C   UNL     1      43.556 -17.176   2.174  1.00  0.00     0.001 A 
HETATM   25  H   UNL     1      44.439 -21.459   4.289  1.00  0.00     0.165 HD
HETATM   26  C   UNL     1      44.526 -19.927   5.752  1.00  0.00     0.096 A 
ENDBRANCH  16  17
ENDBRANCH  15  16
ENDBRANCH  12  15
ENDBRANCH   9  11
BRANCH   7  27
HETATM   27  N   UNL     1      40.959 -11.357   6.312  1.00  0.00    -0.323 N 
HETATM   28  C   UNL     1      40.203 -10.908   7.384  1.00  0.00     0.251 C 
HETATM   29  O   UNL     1      39.087 -11.303   7.704  1.00  0.00    -0.270 OA
HETATM   30  H   UNL     1      41.945 -11.116   6.422  1.00  0.00     0.169 HD
BRANCH  28  31
HETATM   31  C   UNL     1      40.948  -9.801   8.158  1.00  0.00     0.213 C 
HETATM   32  O   UNL     1      42.374 -10.017   8.062  1.00  0.00    -0.376 OA
HETATM   33  C   UNL     1      42.831 -10.451   9.347  1.00  0.00     0.168 C 
HETATM   34  C   UNL     1      41.931  -9.757  10.338  1.00  0.00     0.029 C 
HETATM   35  C   UNL     1      40.591  -9.775   9.639  1.00  0.00     0.044 C 
ENDBRANCH  28  31
ENDBRANCH   7  27
BRANCH   3  36
HETATM   36  C   UNL     1      38.126 -11.484   1.212  1.00  0.00     0.056 C 
HETATM   37  C   UNL     1      37.190 -12.451   0.423  1.00  0.00     0.012 C 
HETATM   38  C   UNL     1      36.209 -11.274   0.281  1.00  0.00     0.002 C 
HETATM   39  C   UNL     1      36.820 -10.722   1.582  1.00  0.00     0.012 C 
ENDBRANCH   3  36
TORSDOF 7
ENDMDL
MODEL 9
REMARK VINA RESULT:      -9.1      4.179     10.115
REMARK  7 active torsions:
REMARK  status: ('A' for Active; 'I' for Inactive)
REMARK    1  A    between atoms: C_3  and  C_4 
REMARK    2  A    between atoms: C_11  and  N_12 
REMARK       I    between atoms: N_12  and  C_13 
REMARK    3  A    between atoms: C_13  and  C_14 
REMARK    4  A    between atoms: C_21  and  C_22 
REMARK       I    between atoms: C_22  and  N_23 
REMARK    5  A    between atoms: N_23  and  C_24 
REMARK    6  A    between atoms: C_24  and  C_25 
REMARK    7  A    between atoms: C_25  and  C_26 
ROOT
HETATM    1  C   UNL     1      38.298  -9.890   2.693  1.00  0.00     0.158 C 
HETATM    2  N   UNL     1      38.100 -11.256   2.273  1.00  0.00    -0.335 N 
HETATM    3  C   UNL     1      37.284 -11.613   1.220  1.00  0.00     0.111 A 
HETATM    4  N   UNL     1      37.507 -12.851   0.845  1.00  0.00    -0.233 NA
HETATM    5  C   UNL     1      38.459 -13.324   1.705  1.00  0.00     0.089 A 
HETATM    6  C   UNL     1      38.808 -12.374   2.673  1.00  0.00     0.091 A 
HETATM    7  C   UNL     1      39.755 -12.666   3.673  1.00  0.00     0.065 A 
HETATM    8  C   UNL     1      40.402 -13.913   3.585  1.00  0.00     0.049 A 
HETATM    9  C   UNL     1      40.062 -14.871   2.623  1.00  0.00     0.036 A 
HETATM   10  C   UNL     1      39.077 -14.585   1.677  1.00  0.00     0.051 A 
ENDROOT
BRANCH   9  11
HETATM   11  C   UNL     1      40.789 -16.171   2.649  1.00  0.00     0.251 C 
HETATM   12  N   UNL     1      41.362 -16.600   1.470  1.00  0.00    -0.357 N 
HETATM   13  H   UNL     1      41.159 -16.123   0.603  1.00  0.00     0.162 HD
HETATM   14  O   UNL     1      40.828 -16.822   3.689  1.00  0.00    -0.268 OA
BRANCH  12  15
HETATM   15  C   UNL     1      42.041 -17.884   1.400  1.00  0.00     0.127 C 
BRANCH  15  16
HETATM   16  C   UNL     1      43.535 -17.770   1.717  1.00  0.00     0.060 C 
BRANCH  16  17
HETATM   17  C   UNL     1      43.912 -18.526   2.950  1.00  0.00    -0.029 A 
HETATM   18  C   UNL     1      44.139 -19.938   3.037  1.00  0.00    -0.002 A 
HETATM   19  C   UNL     1      44.472 -20.229   4.360  1.00  0.00     0.042 A 
HETATM   20  C   UNL     1      44.086 -20.995   2.107  1.00  0.00     0.014 A 
HETATM   21  C   UNL     1      44.762 -21.526   4.799  1.00  0.00     0.030 A 
HETATM   22  N   UNL     1      44.449 -19.040   5.052  1.00  0.00    -0.365 N 
HETATM   23  C   UNL     1      44.708 -22.558   3.856  1.00  0.00     0.002 A 
HETATM   24  C   UNL     1      44.373 -22.299   2.529  1.00  0.00     0.001 A 
HETATM   25  H   UNL     1      44.651 -18.950   6.037  1.00  0.00     0.165 HD
HETATM   26  C   UNL     1      44.112 -18.010   4.215  1.00  0.00     0.096 A 
ENDBRANCH  16  17
ENDBRANCH  15  16
ENDBRANCH  12  15
ENDBRANCH   9  11
BRANCH   7  27
HETATM   27  N   UNL     1      40.138 -11.849   4.749  1.00  0.00    -0.323 N 
HETATM   28  C   UNL     1      39.646 -11.922   6.043  1.00  0.00     0.251 C 
HETATM   29  O   UNL     1      38.693 -12.594   6.422  1.00  0.00    -0.270 OA
HETATM   30  H   UNL     1      41.091 -11.484   4.731  1.00  0.00     0.169 HD
BRANCH  28  31
HETATM   31  C   UNL     1      40.456 -11.016   6.992  1.00  0.00     0.213 C 
HETATM   32  O   UNL     1      39.560 -10.138   7.709  1.00  0.00    -0.376 OA
HETATM   33  C   UNL     1      39.745  -8.817   7.190  1.00  0.00     0.168 C 
HETATM   34  C   UNL     1      41.199  -8.751   6.796  1.00  0.00     0.029 C 
HETATM   35  C   UNL     1      41.460 -10.137   6.255  1.00  0.00     0.044 C 
ENDBRANCH  28  31
ENDBRANCH   7  27
BRANCH   3  36
HETATM   36  C   UNL     1      36.297 -10.691   0.510  1.00  0.00     0.056 C 
HETATM   37  C   UNL     1      36.000 -11.136  -0.955  1.00  0.00     0.012 C 
HETATM   38  C   UNL     1      34.543 -10.705  -0.717  1.00  0.00     0.002 C 
HETATM   39  C   UNL     1      34.793 -10.994   0.775  1.00  0.00     0.012 C 
ENDBRANCH   3  36
TORSDOF 7
ENDMDL
MODEL 10
REMARK VINA RESULT:      -9.0      4.721      8.837
REMARK  7 active torsions:
REMARK  status: ('A' for Active; 'I' for Inactive)
REMARK    1  A    between atoms: C_3  and  C_4 
REMARK    2  A    between atoms: C_11  and  N_12 
REMARK       I    between atoms: N_12  and  C_13 
REMARK    3  A    between atoms: C_13  and  C_14 
REMARK    4  A    between atoms: C_21  and  C_22 
REMARK       I    between atoms: C_22  and  N_23 
REMARK    5  A    between atoms: N_23  and  C_24 
REMARK    6  A    between atoms: C_24  and  C_25 
REMARK    7  A    between atoms: C_25  and  C_26 
ROOT
HETATM    1  C   UNL     1      38.737 -10.910   1.805  1.00  0.00     0.158 C 
HETATM    2  N   UNL     1      39.183 -11.215   3.142  1.00  0.00    -0.335 N 
HETATM    3  C   UNL     1      38.855 -10.448   4.241  1.00  0.00     0.111 A 
HETATM    4  N   UNL     1      39.112 -11.087   5.359  1.00  0.00    -0.233 NA
HETATM    5  C   UNL     1      39.663 -12.279   4.977  1.00  0.00     0.089 A 
HETATM    6  C   UNL     1      39.797 -12.371   3.586  1.00  0.00     0.091 A 
HETATM    7  C   UNL     1      40.365 -13.508   2.982  1.00  0.00     0.065 A 
HETATM    8  C   UNL     1      40.691 -14.579   3.835  1.00  0.00     0.049 A 
HETATM    9  C   UNL     1      40.562 -14.499   5.226  1.00  0.00     0.036 A 
HETATM   10  C   UNL     1      40.053 -13.340   5.810  1.00  0.00     0.051 A 
ENDROOT
BRANCH   9  11
HETATM   11  C   UNL     1      40.972 -15.684   6.031  1.00  0.00     0.251 C 
HETATM   12  N   UNL     1      42.269 -15.712   6.502  1.00  0.00    -0.357 N 
HETATM   13  H   UNL     1      42.942 -15.030   6.180  1.00  0.00     0.162 HD
HETATM   14  O   UNL     1      40.172 -16.594   6.220  1.00  0.00    -0.268 OA
BRANCH  12  15
HETATM   15  C   UNL     1      42.762 -16.857   7.248  1.00  0.00     0.127 C 
BRANCH  15  16
HETATM   16  C   UNL     1      44.181 -17.257   6.831  1.00  0.00     0.060 C 
BRANCH  16  17
HETATM   17  C   UNL     1      44.185 -18.306   5.766  1.00  0.00    -0.029 A 
HETATM   18  C   UNL     1      43.937 -18.091   4.372  1.00  0.00    -0.002 A 
HETATM   19  C   UNL     1      44.041 -19.326   3.732  1.00  0.00     0.042 A 
HETATM   20  C   UNL     1      43.629 -16.955   3.597  1.00  0.00     0.014 A 
HETATM   21  C   UNL     1      43.859 -19.482   2.353  1.00  0.00     0.030 A 
HETATM   22  N   UNL     1      44.341 -20.257   4.700  1.00  0.00    -0.365 N 
HETATM   23  C   UNL     1      43.558 -18.339   1.605  1.00  0.00     0.002 A 
HETATM   24  C   UNL     1      43.443 -17.092   2.216  1.00  0.00     0.001 A 
HETATM   25  H   UNL     1      44.474 -21.242   4.522  1.00  0.00     0.165 HD
HETATM   26  C   UNL     1      44.428 -19.655   5.927  1.00  0.00     0.096 A 
ENDBRANCH  16  17
ENDBRANCH  15  16
ENDBRANCH  12  15
ENDBRANCH   9  11
BRANCH   7  27
HETATM   27  N   UNL     1      40.639 -13.704   1.618  1.00  0.00    -0.323 N 
HETATM   28  C   UNL     1      41.704 -13.163   0.915  1.00  0.00     0.251 C 
HETATM   29  O   UNL     1      42.486 -12.310   1.321  1.00  0.00    -0.270 OA
HETATM   30  H   UNL     1      40.330 -14.587   1.211  1.00  0.00     0.169 HD
BRANCH  28  31
HETATM   31  C   UNL     1      41.796 -13.772  -0.499  1.00  0.00     0.213 C 
HETATM   32  O   UNL     1      41.324 -12.814  -1.473  1.00  0.00    -0.376 OA
HETATM   33  C   UNL     1      40.061 -13.281  -1.957  1.00  0.00     0.168 C 
HETATM   34  C   UNL     1      40.156 -14.785  -1.915  1.00  0.00     0.029 C 
HETATM   35  C   UNL     1      40.952 -15.032  -0.654  1.00  0.00     0.044 C 
ENDBRANCH  28  31
ENDBRANCH   7  27
BRANCH   3  36
HETATM   36  C   UNL     1      38.205  -9.069   4.199  1.00  0.00     0.056 C 
HETATM   37  C   UNL     1      36.648  -9.135   4.129  1.00  0.00     0.012 C 
HETATM   38  C   UNL     1      36.622  -7.911   5.059  1.00  0.00     0.002 C 
HETATM   39  C   UNL     1      37.989  -8.391   5.583  1.00  0.00     0.012 C 
ENDBRANCH   3  36
TORSDOF 7
ENDMDL
