MODEL 1
REMARK VINA RESULT:      -8.9      0.000      0.000
REMARK  2 active torsions:
REMARK  status: ('A' for Active; 'I' for Inactive)
REMARK    1  A    between atoms: C_2  and  C_3 
REMARK    2  A    between atoms: N_9  and  C_10 
ROOT
HETATM    1  C   UNL     1      43.301 -17.323   2.744  1.00  0.00     0.047 A 
HETATM    2  N   UNL     1      42.427 -17.401   1.675  1.00  0.00    -0.344 N 
HETATM    3  C   UNL     1      41.873 -16.279   1.119  1.00  0.00     0.119 A 
HETATM    4  C   UNL     1      42.222 -15.051   1.538  1.00  0.00     0.123 A 
HETATM    5  C   UNL     1      41.517 -14.086   0.679  1.00  0.00     0.280 A 
HETATM    6  O   UNL     1      41.612 -12.876   0.762  1.00  0.00    -0.265 OA
HETATM    7  N   UNL     1      40.765 -14.868  -0.212  1.00  0.00    -0.236 N 
HETATM    8  N   UNL     1      40.958 -16.235   0.084  1.00  0.00    -0.179 NA
HETATM    9  C   UNL     1      43.190 -14.882   2.624  1.00  0.00     0.193 A 
HETATM   10  O   UNL     1      43.569 -13.795   3.039  1.00  0.00    -0.287 OA
HETATM   11  C   UNL     1      43.715 -16.139   3.235  1.00  0.00     0.086 A 
HETATM   12  H   UNL     1      41.971 -18.289   1.495  1.00  0.00     0.167 HD
HETATM   13  H   UNL     1      41.306 -16.760  -0.719  1.00  0.00     0.155 HD
ENDROOT
BRANCH   1  14
HETATM   14  C   UNL     1      43.791 -18.589   3.322  1.00  0.00    -0.009 A 
HETATM   15  C   UNL     1      44.034 -19.710   2.514  1.00  0.00     0.015 A 
HETATM   16  C   UNL     1      44.506 -20.901   3.074  1.00  0.00     0.024 A 
HETATM   17  C   UNL     1      44.742 -20.978   4.444  1.00  0.00     0.034 A 
HETATM   18  C   UNL     1      44.512 -19.873   5.261  1.00  0.00     0.024 A 
HETATM   19 CL   UNL     1      45.323 -22.443   5.132  1.00  0.00    -0.084 Cl
HETATM   20  C   UNL     1      44.038 -18.683   4.701  1.00  0.00     0.015 A 
ENDBRANCH   1  14
BRANCH   7  21
HETATM   21  C   UNL     1      39.886 -14.470  -1.242  1.00  0.00     0.055 A 
HETATM   22  C   UNL     1      40.131 -14.812  -2.581  1.00  0.00     0.034 A 
HETATM   23  C   UNL     1      39.248 -14.426  -3.596  1.00  0.00     0.044 A 
HETATM   24  C   UNL     1      38.115 -13.692  -3.278  1.00  0.00     0.116 A 
HETATM   25  F   UNL     1      37.269 -13.324  -4.248  1.00  0.00    -0.206 F 
HETATM   26  C   UNL     1      37.850 -13.333  -1.964  1.00  0.00     0.044 A 
HETATM   27  C   UNL     1      38.733 -13.720  -0.951  1.00  0.00     0.034 A 
ENDBRANCH   7  21
TORSDOF 2
ENDMDL
MODEL 2
REMARK VINA RESULT:      -8.8      4.811      8.663
REMARK  2 active torsions:
REMARK  status: ('A' for Active; 'I' for Inactive)
REMARK    1  A    between atoms: C_2  and  C_3 
REMARK    2  A    between atoms: N_9  and  C_10 
ROOT
HETATM    1  C   UNL     1      41.102 -14.308  -0.622  1.00  0.00     0.047 A 
HETATM    2  N   UNL     1      42.104 -15.237  -0.407  1.00  0.00    -0.344 N 
HETATM    3  C   UNL     1      42.106 -16.044   0.699  1.00  0.00     0.119 A 
HETATM    4  C   UNL     1      41.090 -16.023   1.577  1.00  0.00     0.123 A 
HETATM    5  C   UNL     1      41.365 -17.063   2.581  1.00  0.00     0.280 A 
HETATM    6  O   UNL     1      40.643 -17.338   3.521  1.00  0.00    -0.265 OA
HETATM    7  N   UNL     1      42.591 -17.630   2.196  1.00  0.00    -0.236 N 
HETATM    8  N   UNL     1      43.072 -16.972   1.043  1.00  0.00    -0.179 NA
HETATM    9  C   UNL     1      39.959 -15.112   1.386  1.00  0.00     0.193 A 
HETATM   10  O   UNL     1      38.991 -15.057   2.132  1.00  0.00    -0.287 OA
HETATM   11  C   UNL     1      40.038 -14.211   0.197  1.00  0.00     0.086 A 
HETATM   12  H   UNL     1      42.980 -15.118  -0.905  1.00  0.00     0.167 HD
HETATM   13  H   UNL     1      43.235 -17.617   0.269  1.00  0.00     0.155 HD
ENDROOT
BRANCH   1  14
HETATM   14  C   UNL     1      41.222 -13.433  -1.805  1.00  0.00    -0.009 A 
HETATM   15  C   UNL     1      40.112 -13.158  -2.619  1.00  0.00     0.015 A 
HETATM   16  C   UNL     1      40.238 -12.320  -3.732  1.00  0.00     0.024 A 
HETATM   17  C   UNL     1      41.472 -11.751  -4.036  1.00  0.00     0.034 A 
HETATM   18  C   UNL     1      42.583 -12.009  -3.235  1.00  0.00     0.024 A 
HETATM   19 CL   UNL     1      41.626 -10.721  -5.404  1.00  0.00    -0.084 Cl
HETATM   20  C   UNL     1      42.457 -12.847  -2.123  1.00  0.00     0.015 A 
ENDBRANCH   1  14
BRANCH   7  21
HETATM   21  C   UNL     1      43.342 -18.657   2.807  1.00  0.00     0.055 A 
HETATM   22  C   UNL     1      43.618 -19.857   2.132  1.00  0.00     0.034 A 
HETATM   23  C   UNL     1      44.375 -20.865   2.738  1.00  0.00     0.044 A 
HETATM   24  C   UNL     1      44.859 -20.682   4.025  1.00  0.00     0.116 A 
HETATM   25  F   UNL     1      45.585 -21.646   4.605  1.00  0.00    -0.206 F 
HETATM   26  C   UNL     1      44.596 -19.510   4.720  1.00  0.00     0.044 A 
HETATM   27  C   UNL     1      43.839 -18.502   4.113  1.00  0.00     0.034 A 
ENDBRANCH   7  21
TORSDOF 2
ENDMDL
MODEL 3
REMARK VINA RESULT:      -8.6      1.483      1.981
REMARK  2 active torsions:
REMARK  status: ('A' for Active; 'I' for Inactive)
REMARK    1  A    between atoms: C_2  and  C_3 
REMARK    2  A    between atoms: N_9  and  C_10 
ROOT
HETATM    1  C   UNL     1      43.346 -17.182   3.182  1.00  0.00     0.047 A 
HETATM    2  N   UNL     1      43.063 -17.013   1.840  1.00  0.00    -0.344 N 
HETATM    3  C   UNL     1      42.556 -15.836   1.356  1.00  0.00     0.119 A 
HETATM    4  C   UNL     1      42.393 -14.770   2.156  1.00  0.00     0.123 A 
HETATM    5  C   UNL     1      41.923 -13.663   1.309  1.00  0.00     0.280 A 
HETATM    6  O   UNL     1      41.687 -12.534   1.698  1.00  0.00    -0.265 OA
HETATM    7  N   UNL     1      41.832 -14.203   0.015  1.00  0.00    -0.236 N 
HETATM    8  N   UNL     1      42.193 -15.568   0.049  1.00  0.00    -0.179 NA
HETATM    9  C   UNL     1      42.731 -14.848   3.579  1.00  0.00     0.193 A 
HETATM   10  O   UNL     1      42.629 -13.910   4.359  1.00  0.00    -0.287 OA
HETATM   11  C   UNL     1      43.220 -16.173   4.065  1.00  0.00     0.086 A 
HETATM   12  H   UNL     1      42.950 -17.844   1.267  1.00  0.00     0.167 HD
HETATM   13  H   UNL     1      42.965 -15.781  -0.583  1.00  0.00     0.155 HD
ENDROOT
BRANCH   1  14
HETATM   14  C   UNL     1      43.821 -18.508   3.621  1.00  0.00    -0.009 A 
HETATM   15  C   UNL     1      44.027 -18.793   4.981  1.00  0.00     0.015 A 
HETATM   16  C   UNL     1      44.469 -20.056   5.383  1.00  0.00     0.024 A 
HETATM   17  C   UNL     1      44.706 -21.044   4.431  1.00  0.00     0.034 A 
HETATM   18  C   UNL     1      44.501 -20.782   3.078  1.00  0.00     0.024 A 
HETATM   19 CL   UNL     1      45.249 -22.598   4.927  1.00  0.00    -0.084 Cl
HETATM   20  C   UNL     1      44.060 -19.517   2.676  1.00  0.00     0.015 A 
ENDBRANCH   1  14
BRANCH   7  21
HETATM   21  C   UNL     1      41.416 -13.596  -1.189  1.00  0.00     0.055 A 
HETATM   22  C   UNL     1      40.059 -13.534  -1.541  1.00  0.00     0.034 A 
HETATM   23  C   UNL     1      39.652 -12.919  -2.730  1.00  0.00     0.044 A 
HETATM   24  C   UNL     1      40.600 -12.364  -3.576  1.00  0.00     0.116 A 
HETATM   25  F   UNL     1      40.210 -11.774  -4.713  1.00  0.00    -0.206 F 
HETATM   26  C   UNL     1      41.949 -12.416  -3.259  1.00  0.00     0.044 A 
HETATM   27  C   UNL     1      42.355 -13.031  -2.069  1.00  0.00     0.034 A 
ENDBRANCH   7  21
TORSDOF 2
ENDMDL
MODEL 4
REMARK VINA RESULT:      -8.5      5.779      8.098
REMARK  2 active torsions:
REMARK  status: ('A' for Active; 'I' for Inactive)
REMARK    1  A    between atoms: C_2  and  C_3 
REMARK    2  A    between atoms: N_9  and  C_10 
ROOT
HETATM    1  C   UNL     1      43.133 -16.724   4.129  1.00  0.00     0.047 A 
HETATM    2  N   UNL     1      43.708 -16.303   5.314  1.00  0.00    -0.344 N 
HETATM    3  C   UNL     1      43.496 -15.043   5.806  1.00  0.00     0.119 A 
HETATM    4  C   UNL     1      42.651 -14.193   5.199  1.00  0.00     0.123 A 
HETATM    5  C   UNL     1      42.589 -12.980   6.029  1.00  0.00     0.280 A 
HETATM    6  O   UNL     1      41.904 -12.003   5.790  1.00  0.00    -0.265 OA
HETATM    7  N   UNL     1      43.456 -13.226   7.105  1.00  0.00    -0.236 N 
HETATM    8  N   UNL     1      44.050 -14.498   6.950  1.00  0.00    -0.179 NA
HETATM    9  C   UNL     1      41.953 -14.587   3.972  1.00  0.00     0.193 A 
HETATM   10  O   UNL     1      41.155 -13.873   3.381  1.00  0.00    -0.287 OA
HETATM   11  C   UNL     1      42.269 -15.948   3.447  1.00  0.00     0.086 A 
HETATM   12  H   UNL     1      44.513 -16.814   5.662  1.00  0.00     0.167 HD
HETATM   13  H   UNL     1      43.878 -15.106   7.751  1.00  0.00     0.155 HD
ENDROOT
BRANCH   1  14
HETATM   14  C   UNL     1      43.478 -18.073   3.641  1.00  0.00    -0.009 A 
HETATM   15  C   UNL     1      44.235 -18.958   4.426  1.00  0.00     0.015 A 
HETATM   16  C   UNL     1      44.547 -20.236   3.955  1.00  0.00     0.024 A 
HETATM   17  C   UNL     1      44.102 -20.641   2.699  1.00  0.00     0.034 A 
HETATM   18  C   UNL     1      43.345 -19.779   1.909  1.00  0.00     0.024 A 
HETATM   19 CL   UNL     1      44.486 -22.214   2.120  1.00  0.00    -0.084 Cl
HETATM   20  C   UNL     1      43.034 -18.499   2.380  1.00  0.00     0.015 A 
ENDBRANCH   1  14
BRANCH   7  21
HETATM   21  C   UNL     1      43.799 -12.398   8.196  1.00  0.00     0.055 A 
HETATM   22  C   UNL     1      42.942 -11.376   8.631  1.00  0.00     0.034 A 
HETATM   23  C   UNL     1      43.281 -10.568   9.722  1.00  0.00     0.044 A 
HETATM   24  C   UNL     1      44.482 -10.776  10.383  1.00  0.00     0.116 A 
HETATM   25  F   UNL     1      44.807 -10.004  11.428  1.00  0.00    -0.206 F 
HETATM   26  C   UNL     1      45.354 -11.774   9.972  1.00  0.00     0.044 A 
HETATM   27  C   UNL     1      45.013 -12.582   8.881  1.00  0.00     0.034 A 
ENDBRANCH   7  21
TORSDOF 2
ENDMDL
MODEL 5
REMARK VINA RESULT:      -8.5      2.494      2.921
REMARK  2 active torsions:
REMARK  status: ('A' for Active; 'I' for Inactive)
REMARK    1  A    between atoms: C_2  and  C_3 
REMARK    2  A    between atoms: N_9  and  C_10 
ROOT
HETATM    1  C   UNL     1      41.837 -16.834   1.820  1.00  0.00     0.047 A 
HETATM    2  N   UNL     1      42.387 -16.157   0.747  1.00  0.00    -0.344 N 
HETATM    3  C   UNL     1      41.671 -15.226   0.043  1.00  0.00     0.119 A 
HETATM    4  C   UNL     1      40.431 -14.874   0.419  1.00  0.00     0.123 A 
HETATM    5  C   UNL     1      39.994 -13.802  -0.488  1.00  0.00     0.280 A 
HETATM    6  O   UNL     1      38.922 -13.228  -0.429  1.00  0.00    -0.265 OA
HETATM    7  N   UNL     1      41.065 -13.611  -1.376  1.00  0.00    -0.236 N 
HETATM    8  N   UNL     1      42.098 -14.523  -1.069  1.00  0.00    -0.179 NA
HETATM    9  C   UNL     1      39.800 -15.499   1.584  1.00  0.00     0.193 A 
HETATM   10  O   UNL     1      38.685 -15.210   1.995  1.00  0.00    -0.287 OA
HETATM   11  C   UNL     1      40.602 -16.551   2.277  1.00  0.00     0.086 A 
HETATM   12  H   UNL     1      43.208 -16.555   0.301  1.00  0.00     0.167 HD
HETATM   13  H   UNL     1      42.983 -14.055  -0.873  1.00  0.00     0.155 HD
ENDROOT
BRANCH   1  14
HETATM   14  C   UNL     1      42.660 -17.870   2.472  1.00  0.00    -0.009 A 
HETATM   15  C   UNL     1      43.318 -18.855   1.719  1.00  0.00     0.015 A 
HETATM   16  C   UNL     1      44.102 -19.826   2.350  1.00  0.00     0.024 A 
HETATM   17  C   UNL     1      44.236 -19.817   3.736  1.00  0.00     0.034 A 
HETATM   18  C   UNL     1      43.595 -18.844   4.499  1.00  0.00     0.024 A 
HETATM   19 CL   UNL     1      45.200 -21.011   4.511  1.00  0.00    -0.084 Cl
HETATM   20  C   UNL     1      42.810 -17.873   3.868  1.00  0.00     0.015 A 
ENDBRANCH   1  14
BRANCH   7  21
HETATM   21  C   UNL     1      41.187 -12.723  -2.466  1.00  0.00     0.055 A 
HETATM   22  C   UNL     1      42.429 -12.175  -2.822  1.00  0.00     0.034 A 
HETATM   23  C   UNL     1      42.546 -11.306  -3.912  1.00  0.00     0.044 A 
HETATM   24  C   UNL     1      41.420 -10.977  -4.652  1.00  0.00     0.116 A 
HETATM   25  F   UNL     1      41.532 -10.146  -5.697  1.00  0.00    -0.206 F 
HETATM   26  C   UNL     1      40.178 -11.497  -4.320  1.00  0.00     0.044 A 
HETATM   27  C   UNL     1      40.062 -12.366  -3.230  1.00  0.00     0.034 A 
ENDBRANCH   7  21
TORSDOF 2
ENDMDL
MODEL 6
REMARK VINA RESULT:      -8.4      5.155      8.940
REMARK  2 active torsions:
REMARK  status: ('A' for Active; 'I' for Inactive)
REMARK    1  A    between atoms: C_2  and  C_3 
REMARK    2  A    between atoms: N_9  and  C_10 
ROOT
HETATM    1  C   UNL     1      40.447 -14.312   3.433  1.00  0.00     0.047 A 
HETATM    2  N   UNL     1      40.696 -15.661   3.259  1.00  0.00    -0.344 N 
HETATM    3  C   UNL     1      41.702 -16.297   3.936  1.00  0.00     0.119 A 
HETATM    4  C   UNL     1      42.433 -15.652   4.861  1.00  0.00     0.123 A 
HETATM    5  C   UNL     1      43.350 -16.640   5.450  1.00  0.00     0.280 A 
HETATM    6  O   UNL     1      44.151 -16.409   6.338  1.00  0.00    -0.265 OA
HETATM    7  N   UNL     1      43.076 -17.843   4.781  1.00  0.00    -0.236 N 
HETATM    8  N   UNL     1      42.073 -17.623   3.811  1.00  0.00    -0.179 NA
HETATM    9  C   UNL     1      42.188 -14.237   5.150  1.00  0.00     0.193 A 
HETATM   10  O   UNL     1      42.800 -13.595   5.993  1.00  0.00    -0.287 OA
HETATM   11  C   UNL     1      41.121 -13.578   4.338  1.00  0.00     0.086 A 
HETATM   12  H   UNL     1      40.335 -16.109   2.423  1.00  0.00     0.167 HD
HETATM   13  H   UNL     1      41.264 -18.231   3.946  1.00  0.00     0.155 HD
ENDROOT
BRANCH   1  14
HETATM   14  C   UNL     1      39.389 -13.698   2.607  1.00  0.00    -0.009 A 
HETATM   15  C   UNL     1      39.066 -12.338   2.733  1.00  0.00     0.015 A 
HETATM   16  C   UNL     1      38.068 -11.767   1.938  1.00  0.00     0.024 A 
HETATM   17  C   UNL     1      37.388 -12.551   1.010  1.00  0.00     0.034 A 
HETATM   18  C   UNL     1      37.699 -13.902   0.867  1.00  0.00     0.024 A 
HETATM   19 CL   UNL     1      36.160 -11.849   0.032  1.00  0.00    -0.084 Cl
HETATM   20  C   UNL     1      38.697 -14.472   1.663  1.00  0.00     0.015 A 
ENDBRANCH   1  14
BRANCH   7  21
HETATM   21  C   UNL     1      43.671 -19.114   4.928  1.00  0.00     0.055 A 
HETATM   22  C   UNL     1      43.606 -19.812   6.144  1.00  0.00     0.034 A 
HETATM   23  C   UNL     1      44.186 -21.078   6.279  1.00  0.00     0.044 A 
HETATM   24  C   UNL     1      44.836 -21.654   5.198  1.00  0.00     0.116 A 
HETATM   25  F   UNL     1      45.390 -22.866   5.326  1.00  0.00    -0.206 F 
HETATM   26  C   UNL     1      44.923 -20.986   3.985  1.00  0.00     0.044 A 
HETATM   27  C   UNL     1      44.343 -19.720   3.851  1.00  0.00     0.034 A 
ENDBRANCH   7  21
TORSDOF 2
ENDMDL
MODEL 7
REMARK VINA RESULT:      -8.1      5.883      8.857
REMARK  2 active torsions:
REMARK  status: ('A' for Active; 'I' for Inactive)
REMARK    1  A    between atoms: C_2  and  C_3 
REMARK    2  A    between atoms: N_9  and  C_10 
ROOT
HETATM    1  C   UNL     1      42.083 -13.892   5.121  1.00  0.00     0.047 A 
HETATM    2  N   UNL     1      42.013 -15.094   4.442  1.00  0.00    -0.344 N 
HETATM    3  C   UNL     1      42.857 -16.132   4.733  1.00  0.00     0.119 A 
HETATM    4  C   UNL     1      43.733 -16.051   5.748  1.00  0.00     0.123 A 
HETATM    5  C   UNL     1      44.409 -17.354   5.839  1.00  0.00     0.280 A 
HETATM    6  O   UNL     1      45.258 -17.647   6.661  1.00  0.00    -0.265 OA
HETATM    7  N   UNL     1      43.854 -18.130   4.808  1.00  0.00    -0.236 N 
HETATM    8  N   UNL     1      42.911 -17.358   4.095  1.00  0.00    -0.179 NA
HETATM    9  C   UNL     1      43.826 -14.833   6.557  1.00  0.00     0.193 A 
HETATM   10  O   UNL     1      44.583 -14.700   7.508  1.00  0.00    -0.287 OA
HETATM   11  C   UNL     1      42.924 -13.711   6.156  1.00  0.00     0.086 A 
HETATM   12  H   UNL     1      41.544 -15.108   3.542  1.00  0.00     0.167 HD
HETATM   13  H   UNL     1      41.987 -17.790   4.081  1.00  0.00     0.155 HD
ENDROOT
BRANCH   1  14
HETATM   14  C   UNL     1      41.180 -12.807   4.689  1.00  0.00    -0.009 A 
HETATM   15  C   UNL     1      40.000 -13.083   3.982  1.00  0.00     0.015 A 
HETATM   16  C   UNL     1      39.149 -12.047   3.586  1.00  0.00     0.024 A 
HETATM   17  C   UNL     1      39.471 -10.728   3.897  1.00  0.00     0.034 A 
HETATM   18  C   UNL     1      40.636 -10.436   4.603  1.00  0.00     0.024 A 
HETATM   19 CL   UNL     1      38.425  -9.454   3.410  1.00  0.00    -0.084 Cl
HETATM   20  C   UNL     1      41.487 -11.473   4.998  1.00  0.00     0.015 A 
ENDBRANCH   1  14
BRANCH   7  21
HETATM   21  C   UNL     1      44.143 -19.455   4.419  1.00  0.00     0.055 A 
HETATM   22  C   UNL     1      44.477 -20.436   5.366  1.00  0.00     0.034 A 
HETATM   23  C   UNL     1      44.749 -21.751   4.975  1.00  0.00     0.044 A 
HETATM   24  C   UNL     1      44.691 -22.094   3.633  1.00  0.00     0.116 A 
HETATM   25  F   UNL     1      44.950 -23.354   3.258  1.00  0.00    -0.206 F 
HETATM   26  C   UNL     1      44.372 -21.146   2.672  1.00  0.00     0.044 A 
HETATM   27  C   UNL     1      44.099 -19.831   3.065  1.00  0.00     0.034 A 
ENDBRANCH   7  21
TORSDOF 2
ENDMDL
MODEL 8
REMARK VINA RESULT:      -8.0      5.604      7.198
REMARK  2 active torsions:
REMARK  status: ('A' for Active; 'I' for Inactive)
REMARK    1  A    between atoms: C_2  and  C_3 
REMARK    2  A    between atoms: N_9  and  C_10 
ROOT
HETATM    1  C   UNL     1      42.907 -15.403   3.487  1.00  0.00     0.047 A 
HETATM    2  N   UNL     1      42.546 -15.030   4.769  1.00  0.00    -0.344 N 
HETATM    3  C   UNL     1      42.176 -13.745   5.065  1.00  0.00     0.119 A 
HETATM    4  C   UNL     1      42.069 -12.815   4.102  1.00  0.00     0.123 A 
HETATM    5  C   UNL     1      41.571 -11.588   4.742  1.00  0.00     0.280 A 
HETATM    6  O   UNL     1      41.337 -10.542   4.165  1.00  0.00    -0.265 OA
HETATM    7  N   UNL     1      41.431 -11.912   6.101  1.00  0.00    -0.236 N 
HETATM    8  N   UNL     1      41.842 -13.247   6.310  1.00  0.00    -0.179 NA
HETATM    9  C   UNL     1      42.372 -13.147   2.708  1.00  0.00     0.193 A 
HETATM   10  O   UNL     1      42.273 -12.357   1.779  1.00  0.00    -0.287 OA
HETATM   11  C   UNL     1      42.829 -14.546   2.452  1.00  0.00     0.086 A 
HETATM   12  H   UNL     1      42.836 -15.625   5.539  1.00  0.00     0.167 HD
HETATM   13  H   UNL     1      41.108 -13.816   6.734  1.00  0.00     0.155 HD
ENDROOT
BRANCH   1  14
HETATM   14  C   UNL     1      43.359 -16.792   3.280  1.00  0.00    -0.009 A 
HETATM   15  C   UNL     1      43.471 -17.688   4.355  1.00  0.00     0.015 A 
HETATM   16  C   UNL     1      43.893 -19.004   4.143  1.00  0.00     0.024 A 
HETATM   17  C   UNL     1      44.204 -19.434   2.855  1.00  0.00     0.034 A 
HETATM   18  C   UNL     1      44.094 -18.560   1.775  1.00  0.00     0.024 A 
HETATM   19 CL   UNL     1      44.723 -21.052   2.594  1.00  0.00    -0.084 Cl
HETATM   20  C   UNL     1      43.672 -17.244   1.988  1.00  0.00     0.015 A 
ENDBRANCH   1  14
BRANCH   7  21
HETATM   21  C   UNL     1      41.007 -11.110   7.182  1.00  0.00     0.055 A 
HETATM   22  C   UNL     1      39.654 -10.782   7.359  1.00  0.00     0.034 A 
HETATM   23  C   UNL     1      39.239  -9.998   8.442  1.00  0.00     0.044 A 
HETATM   24  C   UNL     1      40.176  -9.534   9.352  1.00  0.00     0.116 A 
HETATM   25  F   UNL     1      39.780  -8.785  10.389  1.00  0.00    -0.206 F 
HETATM   26  C   UNL     1      41.522  -9.834   9.199  1.00  0.00     0.044 A 
HETATM   27  C   UNL     1      41.936 -10.619   8.117  1.00  0.00     0.034 A 
ENDBRANCH   7  21
TORSDOF 2
ENDMDL
MODEL 9
REMARK VINA RESULT:      -8.0      4.625      8.568
REMARK  2 active torsions:
REMARK  status: ('A' for Active; 'I' for Inactive)
REMARK    1  A    between atoms: C_2  and  C_3 
REMARK    2  A    between atoms: N_9  and  C_10 
ROOT
HETATM    1  C   UNL     1      40.127 -14.744   0.598  1.00  0.00     0.047 A 
HETATM    2  N   UNL     1      40.794 -15.923   0.323  1.00  0.00    -0.344 N 
HETATM    3  C   UNL     1      41.375 -16.666   1.316  1.00  0.00     0.119 A 
HETATM    4  C   UNL     1      41.246 -16.320   2.608  1.00  0.00     0.123 A 
HETATM    5  C   UNL     1      41.905 -17.368   3.402  1.00  0.00     0.280 A 
HETATM    6  O   UNL     1      41.967 -17.391   4.618  1.00  0.00    -0.265 OA
HETATM    7  N   UNL     1      42.402 -18.285   2.462  1.00  0.00    -0.236 N 
HETATM    8  N   UNL     1      42.103 -17.831   1.159  1.00  0.00    -0.179 NA
HETATM    9  C   UNL     1      40.500 -15.118   2.987  1.00  0.00     0.193 A 
HETATM   10  O   UNL     1      40.324 -14.757   4.142  1.00  0.00    -0.287 OA
HETATM   11  C   UNL     1      39.940 -14.313   1.860  1.00  0.00     0.086 A 
HETATM   12  H   UNL     1      41.107 -16.084  -0.629  1.00  0.00     0.167 HD
HETATM   13  H   UNL     1      41.567 -18.514   0.624  1.00  0.00     0.155 HD
ENDROOT
BRANCH   1  14
HETATM   14  C   UNL     1      39.595 -13.975  -0.544  1.00  0.00    -0.009 A 
HETATM   15  C   UNL     1      40.090 -14.170  -1.844  1.00  0.00     0.015 A 
HETATM   16  C   UNL     1      39.572 -13.441  -2.918  1.00  0.00     0.024 A 
HETATM   17  C   UNL     1      38.555 -12.515  -2.702  1.00  0.00     0.034 A 
HETATM   18  C   UNL     1      38.048 -12.312  -1.420  1.00  0.00     0.024 A 
HETATM   19 CL   UNL     1      37.918 -11.618  -4.023  1.00  0.00    -0.084 Cl
HETATM   20  C   UNL     1      38.568 -13.040  -0.345  1.00  0.00     0.015 A 
ENDBRANCH   1  14
BRANCH   7  21
HETATM   21  C   UNL     1      43.137 -19.474   2.661  1.00  0.00     0.055 A 
HETATM   22  C   UNL     1      43.015 -20.561   1.782  1.00  0.00     0.034 A 
HETATM   23  C   UNL     1      43.757 -21.731   1.976  1.00  0.00     0.044 A 
HETATM   24  C   UNL     1      44.625 -21.822   3.053  1.00  0.00     0.116 A 
HETATM   25  F   UNL     1      45.337 -22.941   3.240  1.00  0.00    -0.206 F 
HETATM   26  C   UNL     1      44.762 -20.767   3.944  1.00  0.00     0.044 A 
HETATM   27  C   UNL     1      44.020 -19.597   3.748  1.00  0.00     0.034 A 
ENDBRANCH   7  21
TORSDOF 2
ENDMDL
MODEL 10
REMARK VINA RESULT:      -7.9      5.019      6.570
REMARK  2 active torsions:
REMARK  status: ('A' for Active; 'I' for Inactive)
REMARK    1  A    between atoms: C_2  and  C_3 
REMARK    2  A    between atoms: N_9  and  C_10 
ROOT
HETATM    1  C   UNL     1      43.250 -16.781   4.331  1.00  0.00     0.047 A 
HETATM    2  N   UNL     1      42.899 -16.050   5.451  1.00  0.00    -0.344 N 
HETATM    3  C   UNL     1      42.505 -14.742   5.360  1.00  0.00     0.119 A 
HETATM    4  C   UNL     1      42.364 -14.141   4.167  1.00  0.00     0.123 A 
HETATM    5  C   UNL     1      41.847 -12.788   4.424  1.00  0.00     0.280 A 
HETATM    6  O   UNL     1      41.582 -11.964   3.568  1.00  0.00    -0.265 OA
HETATM    7  N   UNL     1      41.733 -12.697   5.821  1.00  0.00    -0.236 N 
HETATM    8  N   UNL     1      42.176 -13.902   6.408  1.00  0.00    -0.179 NA
HETATM    9  C   UNL     1      42.654 -14.866   2.928  1.00  0.00     0.193 A 
HETATM   10  O   UNL     1      42.526 -14.389   1.809  1.00  0.00    -0.287 OA
HETATM   11  C   UNL     1      43.139 -16.270   3.089  1.00  0.00     0.086 A 
HETATM   12  H   UNL     1      43.212 -16.385   6.356  1.00  0.00     0.167 HD
HETATM   13  H   UNL     1      41.462 -14.333   6.996  1.00  0.00     0.155 HD
ENDROOT
BRANCH   1  14
HETATM   14  C   UNL     1      43.730 -18.161   4.535  1.00  0.00    -0.009 A 
HETATM   15  C   UNL     1      43.745 -18.743   5.812  1.00  0.00     0.015 A 
HETATM   16  C   UNL     1      44.195 -20.055   5.990  1.00  0.00     0.024 A 
HETATM   17  C   UNL     1      44.629 -20.794   4.893  1.00  0.00     0.034 A 
HETATM   18  C   UNL     1      44.617 -20.234   3.617  1.00  0.00     0.024 A 
HETATM   19 CL   UNL     1      45.182 -22.407   5.112  1.00  0.00    -0.084 Cl
HETATM   20  C   UNL     1      44.168 -18.922   3.440  1.00  0.00     0.015 A 
ENDBRANCH   1  14
BRANCH   7  21
HETATM   21  C   UNL     1      41.307 -11.617   6.624  1.00  0.00     0.055 A 
HETATM   22  C   UNL     1      42.162 -11.034   7.572  1.00  0.00     0.034 A 
HETATM   23  C   UNL     1      41.738  -9.954   8.355  1.00  0.00     0.044 A 
HETATM   24  C   UNL     1      40.455  -9.453   8.197  1.00  0.00     0.116 A 
HETATM   25  F   UNL     1      40.049  -8.420   8.945  1.00  0.00    -0.206 F 
HETATM   26  C   UNL     1      39.584 -10.014   7.273  1.00  0.00     0.044 A 
HETATM   27  C   UNL     1      40.010 -11.093   6.491  1.00  0.00     0.034 A 
ENDBRANCH   7  21
TORSDOF 2
ENDMDL
