MODEL 1
REMARK VINA RESULT:      -8.4      0.000      0.000
REMARK  7 active torsions:
REMARK  status: ('A' for Active; 'I' for Inactive)
REMARK    1  A    between atoms: C_3  and  N_4 
REMARK       I    between atoms: N_4  and  C_5 
REMARK    2  A    between atoms: C_5  and  C_6 
REMARK    3  A    between atoms: C_7  and  C_8 
REMARK    4  A    between atoms: C_19  and  C_20 
REMARK    5  A    between atoms: C_20  and  C_21 
REMARK    6  A    between atoms: C_21  and  C_22 
REMARK    7  A    between atoms: C_22  and  O_23 
ROOT
HETATM    1  C   UNL     1      41.394 -15.714   3.185  1.00  0.00     0.062 C 
HETATM    2  C   UNL     1      40.915 -15.375   4.602  1.00  0.00     0.202 C 
HETATM    3  N   UNL     1      40.436 -13.989   4.674  1.00  0.00    -0.083 N 
HETATM    4  C   UNL     1      40.690 -13.046   3.715  1.00  0.00     0.726 A 
HETATM    5  N   UNL     1      41.297 -13.416   2.574  1.00  0.00    -0.192 N 
HETATM    6  N   UNL     1      39.798 -13.453   5.736  1.00  0.00    -0.140 NA
HETATM    7  C   UNL     1      39.758 -12.162   5.378  1.00  0.00     0.166 A 
HETATM    8  N   UNL     1      40.290 -11.874   4.138  1.00  0.00    -0.046 NA
HETATM    9  C   UNL     1      41.619 -14.734   2.270  1.00  0.00     0.037 C 
HETATM   10  C   UNL     1      42.259 -14.941   0.918  1.00  0.00     0.070 C 
HETATM   11  H   UNL     1      41.479 -12.707   1.868  1.00  0.00     0.184 HD
ENDROOT
BRANCH   1  12
HETATM   12  C   UNL     1      41.605 -17.174   2.937  1.00  0.00     0.256 C 
HETATM   13  N   UNL     1      42.922 -17.568   2.983  1.00  0.00    -0.323 N 
HETATM   14  H   UNL     1      43.609 -16.833   2.867  1.00  0.00     0.169 HD
HETATM   15  O   UNL     1      40.666 -17.871   2.578  1.00  0.00    -0.267 OA
BRANCH  13  16
HETATM   16  C   UNL     1      43.442 -18.884   3.008  1.00  0.00     0.041 A 
HETATM   17  C   UNL     1      44.249 -19.442   4.017  1.00  0.00    -0.035 A 
HETATM   18  C   UNL     1      44.752 -18.707   5.230  1.00  0.00     0.050 C 
HETATM   19  C   UNL     1      44.671 -20.783   3.885  1.00  0.00     0.009 A 
HETATM   20  C   UNL     1      44.357 -21.538   2.758  1.00  0.00     0.001 A 
HETATM   21  C   UNL     1      43.611 -20.968   1.738  1.00  0.00     0.002 A 
HETATM   22  C   UNL     1      43.162 -19.652   1.861  1.00  0.00     0.030 A 
ENDBRANCH  13  16
ENDBRANCH   1  12
BRANCH   2  23
HETATM   23  C   UNL     1      41.991 -15.571   5.674  1.00  0.00    -0.027 A 
HETATM   24  C   UNL     1      43.068 -14.674   5.809  1.00  0.00     0.028 A 
HETATM   25  C   UNL     1      44.028 -14.872   6.802  1.00  0.00     0.011 A 
HETATM   26 BR   UNL     1      45.467 -13.657   6.965  1.00  0.00    -0.051 Br
HETATM   27  C   UNL     1      43.935 -15.954   7.673  1.00  0.00     0.019 A 
HETATM   28  C   UNL     1      42.872 -16.846   7.553  1.00  0.00     0.002 A 
HETATM   29  C   UNL     1      41.906 -16.656   6.562  1.00  0.00     0.010 A 
ENDBRANCH   2  23
BRANCH   7  30
HETATM   30  C   UNL     1      39.307 -11.082   6.290  1.00  0.00     0.085 C 
BRANCH  30  31
HETATM   31  C   UNL     1      40.061 -11.080   7.623  1.00  0.00     0.034 C 
BRANCH  31  32
HETATM   32  C   UNL     1      39.210 -11.438   8.841  1.00  0.00     0.164 C 
BRANCH  32  33
HETATM   33  O   UNL     1      38.786 -12.793   8.797  1.00  0.00    -0.401 OA
HETATM   34  H   UNL     1      38.431 -12.942   7.896  1.00  0.00     0.209 HD
ENDBRANCH  32  33
ENDBRANCH  31  32
ENDBRANCH  30  31
ENDBRANCH   7  30
TORSDOF 7
ENDMDL
MODEL 2
REMARK VINA RESULT:      -8.1      3.119      6.357
REMARK  7 active torsions:
REMARK  status: ('A' for Active; 'I' for Inactive)
REMARK    1  A    between atoms: C_3  and  N_4 
REMARK       I    between atoms: N_4  and  C_5 
REMARK    2  A    between atoms: C_5  and  C_6 
REMARK    3  A    between atoms: C_7  and  C_8 
REMARK    4  A    between atoms: C_19  and  C_20 
REMARK    5  A    between atoms: C_20  and  C_21 
REMARK    6  A    between atoms: C_21  and  C_22 
REMARK    7  A    between atoms: C_22  and  O_23 
ROOT
HETATM    1  C   UNL     1      40.856 -15.058   3.115  1.00  0.00     0.062 C 
HETATM    2  C   UNL     1      41.248 -16.419   3.702  1.00  0.00     0.202 C 
HETATM    3  N   UNL     1      41.738 -16.274   5.079  1.00  0.00    -0.083 N 
HETATM    4  C   UNL     1      42.105 -15.077   5.632  1.00  0.00     0.726 A 
HETATM    5  N   UNL     1      41.892 -13.941   4.944  1.00  0.00    -0.192 N 
HETATM    6  N   UNL     1      41.996 -17.303   5.914  1.00  0.00    -0.140 NA
HETATM    7  C   UNL     1      42.583 -16.657   6.931  1.00  0.00     0.166 A 
HETATM    8  N   UNL     1      42.660 -15.286   6.798  1.00  0.00    -0.046 NA
HETATM    9  C   UNL     1      41.240 -13.901   3.716  1.00  0.00     0.037 C 
HETATM   10  C   UNL     1      41.065 -12.520   3.131  1.00  0.00     0.070 C 
HETATM   11  H   UNL     1      42.166 -13.058   5.366  1.00  0.00     0.184 HD
ENDROOT
BRANCH   1  12
HETATM   12  C   UNL     1      40.063 -15.136   1.849  1.00  0.00     0.256 C 
HETATM   13  N   UNL     1      40.676 -14.554   0.764  1.00  0.00    -0.323 N 
HETATM   14  H   UNL     1      41.409 -13.888   0.974  1.00  0.00     0.169 HD
HETATM   15  O   UNL     1      38.914 -15.556   1.877  1.00  0.00    -0.267 OA
BRANCH  13  16
HETATM   16  C   UNL     1      40.309 -14.640  -0.600  1.00  0.00     0.041 A 
HETATM   17  C   UNL     1      39.250 -13.952  -1.222  1.00  0.00    -0.035 A 
HETATM   18  C   UNL     1      38.281 -13.038  -0.523  1.00  0.00     0.050 C 
HETATM   19  C   UNL     1      39.031 -14.149  -2.602  1.00  0.00     0.009 A 
HETATM   20  C   UNL     1      39.796 -15.048  -3.341  1.00  0.00     0.001 A 
HETATM   21  C   UNL     1      40.800 -15.770  -2.713  1.00  0.00     0.002 A 
HETATM   22  C   UNL     1      41.050 -15.570  -1.354  1.00  0.00     0.030 A 
ENDBRANCH  13  16
ENDBRANCH   1  12
BRANCH   2  23
HETATM   23  C   UNL     1      42.315 -17.153   2.885  1.00  0.00    -0.027 A 
HETATM   24  C   UNL     1      42.335 -18.557   2.790  1.00  0.00     0.028 A 
HETATM   25  C   UNL     1      43.314 -19.197   2.028  1.00  0.00     0.011 A 
HETATM   26 BR   UNL     1      43.323 -21.084   1.916  1.00  0.00    -0.051 Br
HETATM   27  C   UNL     1      44.281 -18.459   1.352  1.00  0.00     0.019 A 
HETATM   28  C   UNL     1      44.270 -17.069   1.435  1.00  0.00     0.002 A 
HETATM   29  C   UNL     1      43.295 -16.419   2.193  1.00  0.00     0.010 A 
ENDBRANCH   2  23
BRANCH   7  30
HETATM   30  C   UNL     1      43.234 -17.357   8.066  1.00  0.00     0.085 C 
BRANCH  30  31
HETATM   31  C   UNL     1      44.150 -18.497   7.610  1.00  0.00     0.034 C 
BRANCH  31  32
HETATM   32  C   UNL     1      45.219 -18.094   6.595  1.00  0.00     0.164 C 
BRANCH  32  33
HETATM   33  O   UNL     1      44.880 -18.525   5.286  1.00  0.00    -0.401 OA
HETATM   34  H   UNL     1      44.210 -19.232   5.393  1.00  0.00     0.209 HD
ENDBRANCH  32  33
ENDBRANCH  31  32
ENDBRANCH  30  31
ENDBRANCH   7  30
TORSDOF 7
ENDMDL
MODEL 3
REMARK VINA RESULT:      -7.9      2.654      4.283
REMARK  7 active torsions:
REMARK  status: ('A' for Active; 'I' for Inactive)
REMARK    1  A    between atoms: C_3  and  N_4 
REMARK       I    between atoms: N_4  and  C_5 
REMARK    2  A    between atoms: C_5  and  C_6 
REMARK    3  A    between atoms: C_7  and  C_8 
REMARK    4  A    between atoms: C_19  and  C_20 
REMARK    5  A    between atoms: C_20  and  C_21 
REMARK    6  A    between atoms: C_21  and  C_22 
REMARK    7  A    between atoms: C_22  and  O_23 
ROOT
HETATM    1  C   UNL     1      41.340 -15.680   4.563  1.00  0.00     0.062 C 
HETATM    2  C   UNL     1      41.604 -14.426   3.720  1.00  0.00     0.202 C 
HETATM    3  N   UNL     1      41.416 -13.209   4.520  1.00  0.00    -0.083 N 
HETATM    4  C   UNL     1      40.778 -13.187   5.731  1.00  0.00     0.726 A 
HETATM    5  N   UNL     1      40.410 -14.347   6.302  1.00  0.00    -0.192 N 
HETATM    6  N   UNL     1      41.738 -11.964   4.110  1.00  0.00    -0.140 NA
HETATM    7  C   UNL     1      41.202 -11.230   5.095  1.00  0.00     0.166 A 
HETATM    8  N   UNL     1      40.610 -11.948   6.114  1.00  0.00    -0.046 NA
HETATM    9  C   UNL     1      40.711 -15.595   5.765  1.00  0.00     0.037 C 
HETATM   10  C   UNL     1      40.244 -16.773   6.584  1.00  0.00     0.070 C 
HETATM   11  H   UNL     1      39.939 -14.319   7.202  1.00  0.00     0.184 HD
ENDROOT
BRANCH   1  12
HETATM   12  C   UNL     1      41.803 -16.956   3.934  1.00  0.00     0.256 C 
HETATM   13  N   UNL     1      43.094 -17.306   4.256  1.00  0.00    -0.323 N 
HETATM   14  H   UNL     1      43.683 -16.558   4.602  1.00  0.00     0.169 HD
HETATM   15  O   UNL     1      41.103 -17.509   3.097  1.00  0.00    -0.267 OA
BRANCH  13  16
HETATM   16  C   UNL     1      43.754 -18.534   4.013  1.00  0.00     0.041 A 
HETATM   17  C   UNL     1      44.130 -19.042   2.755  1.00  0.00    -0.035 A 
HETATM   18  C   UNL     1      43.840 -18.387   1.433  1.00  0.00     0.050 C 
HETATM   19  C   UNL     1      44.795 -20.286   2.698  1.00  0.00     0.009 A 
HETATM   20  C   UNL     1      45.032 -21.041   3.844  1.00  0.00     0.001 A 
HETATM   21  C   UNL     1      44.608 -20.564   5.076  1.00  0.00     0.002 A 
HETATM   22  C   UNL     1      43.971 -19.325   5.157  1.00  0.00     0.030 A 
ENDBRANCH  13  16
ENDBRANCH   1  12
BRANCH   2  23
HETATM   23  C   UNL     1      40.717 -14.328   2.476  1.00  0.00    -0.027 A 
HETATM   24  C   UNL     1      41.267 -14.179   1.189  1.00  0.00     0.028 A 
HETATM   25  C   UNL     1      40.434 -14.103   0.072  1.00  0.00     0.011 A 
HETATM   26 BR   UNL     1      41.194 -13.902  -1.647  1.00  0.00    -0.051 Br
HETATM   27  C   UNL     1      39.051 -14.175   0.212  1.00  0.00     0.019 A 
HETATM   28  C   UNL     1      38.495 -14.327   1.481  1.00  0.00     0.002 A 
HETATM   29  C   UNL     1      39.320 -14.404   2.604  1.00  0.00     0.010 A 
ENDBRANCH   2  23
BRANCH   7  30
HETATM   30  C   UNL     1      41.116  -9.750   5.047  1.00  0.00     0.085 C 
BRANCH  30  31
HETATM   31  C   UNL     1      39.684  -9.234   5.215  1.00  0.00     0.034 C 
BRANCH  31  32
HETATM   32  C   UNL     1      38.699  -9.722   4.154  1.00  0.00     0.164 C 
BRANCH  32  33
HETATM   33  O   UNL     1      37.953 -10.840   4.613  1.00  0.00    -0.401 OA
HETATM   34  H   UNL     1      38.598 -11.566   4.745  1.00  0.00     0.209 HD
ENDBRANCH  32  33
ENDBRANCH  31  32
ENDBRANCH  30  31
ENDBRANCH   7  30
TORSDOF 7
ENDMDL
MODEL 4
REMARK VINA RESULT:      -7.7      4.657      7.459
REMARK  7 active torsions:
REMARK  status: ('A' for Active; 'I' for Inactive)
REMARK    1  A    between atoms: C_3  and  N_4 
REMARK       I    between atoms: N_4  and  C_5 
REMARK    2  A    between atoms: C_5  and  C_6 
REMARK    3  A    between atoms: C_7  and  C_8 
REMARK    4  A    between atoms: C_19  and  C_20 
REMARK    5  A    between atoms: C_20  and  C_21 
REMARK    6  A    between atoms: C_21  and  C_22 
REMARK    7  A    between atoms: C_22  and  O_23 
ROOT
HETATM    1  C   UNL     1      41.560 -14.018   0.948  1.00  0.00     0.062 C 
HETATM    2  C   UNL     1      42.009 -13.783  -0.500  1.00  0.00     0.202 C 
HETATM    3  N   UNL     1      42.274 -12.358  -0.740  1.00  0.00    -0.083 N 
HETATM    4  C   UNL     1      41.863 -11.357   0.098  1.00  0.00     0.726 A 
HETATM    5  N   UNL     1      41.297 -11.675   1.275  1.00  0.00    -0.192 N 
HETATM    6  N   UNL     1      42.844 -11.863  -1.859  1.00  0.00    -0.140 NA
HETATM    7  C   UNL     1      42.681 -10.547  -1.659  1.00  0.00     0.166 A 
HETATM    8  N   UNL     1      42.088 -10.197  -0.464  1.00  0.00    -0.046 NA
HETATM    9  C   UNL     1      41.172 -12.981   1.737  1.00  0.00     0.037 C 
HETATM   10  C   UNL     1      40.545 -13.119   3.103  1.00  0.00     0.070 C 
HETATM   11  H   UNL     1      40.997 -10.923   1.889  1.00  0.00     0.184 HD
ENDROOT
BRANCH   1  12
HETATM   12  C   UNL     1      41.567 -15.452   1.372  1.00  0.00     0.256 C 
HETATM   13  N   UNL     1      42.818 -15.949   1.655  1.00  0.00    -0.323 N 
HETATM   14  H   UNL     1      43.598 -15.434   1.268  1.00  0.00     0.169 HD
HETATM   15  O   UNL     1      40.538 -16.111   1.303  1.00  0.00    -0.267 OA
BRANCH  13  16
HETATM   16  C   UNL     1      43.152 -17.176   2.278  1.00  0.00     0.041 A 
HETATM   17  C   UNL     1      43.318 -17.389   3.659  1.00  0.00    -0.035 A 
HETATM   18  C   UNL     1      43.225 -16.326   4.719  1.00  0.00     0.050 C 
HETATM   19  C   UNL     1      43.642 -18.687   4.111  1.00  0.00     0.009 A 
HETATM   20  C   UNL     1      43.856 -19.737   3.221  1.00  0.00     0.001 A 
HETATM   21  C   UNL     1      43.750 -19.509   1.857  1.00  0.00     0.002 A 
HETATM   22  C   UNL     1      43.405 -18.239   1.392  1.00  0.00     0.030 A 
ENDBRANCH  13  16
ENDBRANCH   1  12
BRANCH   2  23
HETATM   23  C   UNL     1      40.995 -14.267  -1.540  1.00  0.00    -0.027 A 
HETATM   24  C   UNL     1      39.835 -13.527  -1.839  1.00  0.00     0.028 A 
HETATM   25  C   UNL     1      38.935 -13.988  -2.800  1.00  0.00     0.011 A 
HETATM   26 BR   UNL     1      37.383 -12.979  -3.185  1.00  0.00    -0.051 Br
HETATM   27  C   UNL     1      39.169 -15.181  -3.477  1.00  0.00     0.019 A 
HETATM   28  C   UNL     1      40.315 -15.921  -3.193  1.00  0.00     0.002 A 
HETATM   29  C   UNL     1      41.223 -15.468  -2.234  1.00  0.00     0.010 A 
ENDBRANCH   2  23
BRANCH   7  30
HETATM   30  C   UNL     1      42.981  -9.528  -2.696  1.00  0.00     0.085 C 
BRANCH  30  31
HETATM   31  C   UNL     1      41.948  -9.513  -3.827  1.00  0.00     0.034 C 
BRANCH  31  32
HETATM   32  C   UNL     1      42.438 -10.102  -5.149  1.00  0.00     0.164 C 
BRANCH  32  33
HETATM   33  O   UNL     1      42.765 -11.477  -5.015  1.00  0.00    -0.401 OA
HETATM   34  H   UNL     1      42.169 -11.837  -4.325  1.00  0.00     0.209 HD
ENDBRANCH  32  33
ENDBRANCH  31  32
ENDBRANCH  30  31
ENDBRANCH   7  30
TORSDOF 7
ENDMDL
MODEL 5
REMARK VINA RESULT:      -7.7      2.970      5.702
REMARK  7 active torsions:
REMARK  status: ('A' for Active; 'I' for Inactive)
REMARK    1  A    between atoms: C_3  and  N_4 
REMARK       I    between atoms: N_4  and  C_5 
REMARK    2  A    between atoms: C_5  and  C_6 
REMARK    3  A    between atoms: C_7  and  C_8 
REMARK    4  A    between atoms: C_19  and  C_20 
REMARK    5  A    between atoms: C_20  and  C_21 
REMARK    6  A    between atoms: C_21  and  C_22 
REMARK    7  A    between atoms: C_22  and  O_23 
ROOT
HETATM    1  C   UNL     1      41.768 -16.601   2.297  1.00  0.00     0.062 C 
HETATM    2  C   UNL     1      40.625 -15.579   2.288  1.00  0.00     0.202 C 
HETATM    3  N   UNL     1      40.337 -15.130   0.919  1.00  0.00    -0.083 N 
HETATM    4  C   UNL     1      41.178 -15.335  -0.140  1.00  0.00     0.726 A 
HETATM    5  N   UNL     1      42.272 -16.099   0.026  1.00  0.00    -0.192 N 
HETATM    6  N   UNL     1      39.279 -14.367   0.570  1.00  0.00    -0.140 NA
HETATM    7  C   UNL     1      39.583 -14.090  -0.706  1.00  0.00     0.166 A 
HETATM    8  N   UNL     1      40.739 -14.675  -1.181  1.00  0.00    -0.046 NA
HETATM    9  C   UNL     1      42.565 -16.769   1.209  1.00  0.00     0.037 C 
HETATM   10  C   UNL     1      43.820 -17.608   1.174  1.00  0.00     0.070 C 
HETATM   11  H   UNL     1      42.888 -16.246  -0.769  1.00  0.00     0.184 HD
ENDROOT
BRANCH   1  12
HETATM   12  C   UNL     1      41.924 -17.342   3.588  1.00  0.00     0.256 C 
HETATM   13  N   UNL     1      43.119 -17.111   4.228  1.00  0.00    -0.323 N 
HETATM   14  H   UNL     1      43.867 -16.742   3.653  1.00  0.00     0.169 HD
HETATM   15  O   UNL     1      41.094 -18.179   3.911  1.00  0.00    -0.267 OA
BRANCH  13  16
HETATM   16  C   UNL     1      43.491 -17.473   5.545  1.00  0.00     0.041 A 
HETATM   17  C   UNL     1      44.321 -18.550   5.909  1.00  0.00    -0.035 A 
HETATM   18  C   UNL     1      44.916 -19.548   4.953  1.00  0.00     0.050 C 
HETATM   19  C   UNL     1      44.598 -18.761   7.277  1.00  0.00     0.009 A 
HETATM   20  C   UNL     1      44.024 -17.968   8.268  1.00  0.00     0.001 A 
HETATM   21  C   UNL     1      43.160 -16.944   7.910  1.00  0.00     0.002 A 
HETATM   22  C   UNL     1      42.894 -16.703   6.561  1.00  0.00     0.030 A 
ENDBRANCH  13  16
ENDBRANCH   1  12
BRANCH   2  23
HETATM   23  C   UNL     1      40.900 -14.346   3.153  1.00  0.00    -0.027 A 
HETATM   24  C   UNL     1      40.119 -14.053   4.287  1.00  0.00     0.028 A 
HETATM   25  C   UNL     1      40.401 -12.928   5.063  1.00  0.00     0.011 A 
HETATM   26 BR   UNL     1      39.339 -12.552   6.581  1.00  0.00    -0.051 Br
HETATM   27  C   UNL     1      41.455 -12.081   4.729  1.00  0.00     0.019 A 
HETATM   28  C   UNL     1      42.237 -12.363   3.611  1.00  0.00     0.002 A 
HETATM   29  C   UNL     1      41.964 -13.487   2.829  1.00  0.00     0.010 A 
ENDBRANCH   2  23
BRANCH   7  30
HETATM   30  C   UNL     1      38.821 -13.117  -1.527  1.00  0.00     0.085 C 
BRANCH  30  31
HETATM   31  C   UNL     1      38.661 -13.567  -2.982  1.00  0.00     0.034 C 
BRANCH  31  32
HETATM   32  C   UNL     1      37.418 -14.412  -3.258  1.00  0.00     0.164 C 
BRANCH  32  33
HETATM   33  O   UNL     1      37.708 -15.800  -3.185  1.00  0.00    -0.401 OA
HETATM   34  H   UNL     1      38.418 -15.899  -2.517  1.00  0.00     0.209 HD
ENDBRANCH  32  33
ENDBRANCH  31  32
ENDBRANCH  30  31
ENDBRANCH   7  30
TORSDOF 7
ENDMDL
MODEL 6
REMARK VINA RESULT:      -7.6      2.430      3.946
REMARK  7 active torsions:
REMARK  status: ('A' for Active; 'I' for Inactive)
REMARK    1  A    between atoms: C_3  and  N_4 
REMARK       I    between atoms: N_4  and  C_5 
REMARK    2  A    between atoms: C_5  and  C_6 
REMARK    3  A    between atoms: C_7  and  C_8 
REMARK    4  A    between atoms: C_19  and  C_20 
REMARK    5  A    between atoms: C_20  and  C_21 
REMARK    6  A    between atoms: C_21  and  C_22 
REMARK    7  A    between atoms: C_22  and  O_23 
ROOT
HETATM    1  C   UNL     1      41.588 -15.081   4.888  1.00  0.00     0.062 C 
HETATM    2  C   UNL     1      41.474 -13.759   4.119  1.00  0.00     0.202 C 
HETATM    3  N   UNL     1      40.625 -12.805   4.844  1.00  0.00    -0.083 N 
HETATM    4  C   UNL     1      39.794 -13.156   5.873  1.00  0.00     0.726 A 
HETATM    5  N   UNL     1      39.836 -14.412   6.353  1.00  0.00    -0.192 N 
HETATM    6  N   UNL     1      40.473 -11.506   4.509  1.00  0.00    -0.140 NA
HETATM    7  C   UNL     1      39.481 -11.149   5.337  1.00  0.00     0.166 A 
HETATM    8  N   UNL     1      39.043 -12.135   6.197  1.00  0.00    -0.046 NA
HETATM    9  C   UNL     1      40.741 -15.371   5.910  1.00  0.00     0.037 C 
HETATM   10  C   UNL     1      40.649 -16.706   6.608  1.00  0.00     0.070 C 
HETATM   11  H   UNL     1      39.215 -14.660   7.118  1.00  0.00     0.184 HD
ENDROOT
BRANCH   1  12
HETATM   12  C   UNL     1      42.667 -15.992   4.394  1.00  0.00     0.256 C 
HETATM   13  N   UNL     1      42.342 -17.327   4.439  1.00  0.00    -0.323 N 
HETATM   14  H   UNL     1      41.582 -17.578   5.060  1.00  0.00     0.169 HD
HETATM   15  O   UNL     1      43.773 -15.537   4.133  1.00  0.00    -0.267 OA
BRANCH  13  16
HETATM   16  C   UNL     1      43.033 -18.417   3.859  1.00  0.00     0.041 A 
HETATM   17  C   UNL     1      44.092 -19.137   4.442  1.00  0.00    -0.035 A 
HETATM   18  C   UNL     1      44.717 -18.832   5.776  1.00  0.00     0.050 C 
HETATM   19  C   UNL     1      44.662 -20.209   3.722  1.00  0.00     0.009 A 
HETATM   20  C   UNL     1      44.241 -20.528   2.433  1.00  0.00     0.001 A 
HETATM   21  C   UNL     1      43.237 -19.779   1.837  1.00  0.00     0.002 A 
HETATM   22  C   UNL     1      42.643 -18.731   2.543  1.00  0.00     0.030 A 
ENDBRANCH  13  16
ENDBRANCH   1  12
BRANCH   2  23
HETATM   23  C   UNL     1      40.917 -13.922   2.702  1.00  0.00    -0.027 A 
HETATM   24  C   UNL     1      41.606 -13.428   1.578  1.00  0.00     0.028 A 
HETATM   25  C   UNL     1      41.079 -13.602   0.298  1.00  0.00     0.011 A 
HETATM   26 BR   UNL     1      42.019 -12.930  -1.197  1.00  0.00    -0.051 Br
HETATM   27  C   UNL     1      39.868 -14.264   0.112  1.00  0.00     0.019 A 
HETATM   28  C   UNL     1      39.179 -14.761   1.217  1.00  0.00     0.002 A 
HETATM   29  C   UNL     1      39.698 -14.593   2.502  1.00  0.00     0.010 A 
ENDBRANCH   2  23
BRANCH   7  30
HETATM   30  C   UNL     1      38.794  -9.837   5.258  1.00  0.00     0.085 C 
BRANCH  30  31
HETATM   31  C   UNL     1      39.509  -8.745   6.059  1.00  0.00     0.034 C 
BRANCH  31  32
HETATM   32  C   UNL     1      39.698  -9.057   7.543  1.00  0.00     0.164 C 
BRANCH  32  33
HETATM   33  O   UNL     1      38.514  -9.593   8.114  1.00  0.00    -0.401 OA
HETATM   34  H   UNL     1      37.798  -8.953   7.917  1.00  0.00     0.209 HD
ENDBRANCH  32  33
ENDBRANCH  31  32
ENDBRANCH  30  31
ENDBRANCH   7  30
TORSDOF 7
ENDMDL
MODEL 7
REMARK VINA RESULT:      -7.5      2.862      7.791
REMARK  7 active torsions:
REMARK  status: ('A' for Active; 'I' for Inactive)
REMARK    1  A    between atoms: C_3  and  N_4 
REMARK       I    between atoms: N_4  and  C_5 
REMARK    2  A    between atoms: C_5  and  C_6 
REMARK    3  A    between atoms: C_7  and  C_8 
REMARK    4  A    between atoms: C_19  and  C_20 
REMARK    5  A    between atoms: C_20  and  C_21 
REMARK    6  A    between atoms: C_21  and  C_22 
REMARK    7  A    between atoms: C_22  and  O_23 
ROOT
HETATM    1  C   UNL     1      42.743 -15.523   5.743  1.00  0.00     0.062 C 
HETATM    2  C   UNL     1      42.378 -16.863   5.094  1.00  0.00     0.202 C 
HETATM    3  N   UNL     1      43.107 -17.968   5.730  1.00  0.00    -0.083 N 
HETATM    4  C   UNL     1      44.191 -17.793   6.545  1.00  0.00     0.726 A 
HETATM    5  N   UNL     1      44.551 -16.548   6.904  1.00  0.00    -0.192 N 
HETATM    6  N   UNL     1      42.872 -19.277   5.496  1.00  0.00    -0.140 NA
HETATM    7  C   UNL     1      43.900 -19.835   6.150  1.00  0.00     0.166 A 
HETATM    8  N   UNL     1      44.729 -18.955   6.815  1.00  0.00    -0.046 NA
HETATM    9  C   UNL     1      43.829 -15.411   6.554  1.00  0.00     0.037 C 
HETATM   10  C   UNL     1      44.378 -14.113   7.094  1.00  0.00     0.070 C 
HETATM   11  H   UNL     1      45.357 -16.430   7.512  1.00  0.00     0.184 HD
ENDROOT
BRANCH   1  12
HETATM   12  C   UNL     1      41.834 -14.392   5.381  1.00  0.00     0.256 C 
HETATM   13  N   UNL     1      42.438 -13.395   4.652  1.00  0.00    -0.323 N 
HETATM   14  H   UNL     1      43.449 -13.360   4.700  1.00  0.00     0.169 HD
HETATM   15  O   UNL     1      40.706 -14.345   5.852  1.00  0.00    -0.267 OA
BRANCH  13  16
HETATM   16  C   UNL     1      41.828 -12.312   3.975  1.00  0.00     0.041 A 
HETATM   17  C   UNL     1      41.332 -11.134   4.566  1.00  0.00    -0.035 A 
HETATM   18  C   UNL     1      41.315 -10.846   6.042  1.00  0.00     0.050 C 
HETATM   19  C   UNL     1      40.761 -10.146   3.735  1.00  0.00     0.009 A 
HETATM   20  C   UNL     1      40.625 -10.338   2.362  1.00  0.00     0.001 A 
HETATM   21  C   UNL     1      41.060 -11.524   1.790  1.00  0.00     0.002 A 
HETATM   22  C   UNL     1      41.652 -12.502   2.591  1.00  0.00     0.030 A 
ENDBRANCH  13  16
ENDBRANCH   1  12
BRANCH   2  23
HETATM   23  C   UNL     1      42.652 -16.908   3.588  1.00  0.00    -0.027 A 
HETATM   24  C   UNL     1      41.806 -16.263   2.666  1.00  0.00     0.028 A 
HETATM   25  C   UNL     1      42.087 -16.311   1.300  1.00  0.00     0.011 A 
HETATM   26 BR   UNL     1      40.938 -15.439   0.079  1.00  0.00    -0.051 Br
HETATM   27  C   UNL     1      43.205 -16.995   0.830  1.00  0.00     0.019 A 
HETATM   28  C   UNL     1      44.052 -17.634   1.733  1.00  0.00     0.002 A 
HETATM   29  C   UNL     1      43.779 -17.591   3.101  1.00  0.00     0.010 A 
ENDBRANCH   2  23
BRANCH   7  30
HETATM   30  C   UNL     1      44.224 -21.280   6.065  1.00  0.00     0.085 C 
BRANCH  30  31
HETATM   31  C   UNL     1      45.205 -21.602   4.933  1.00  0.00     0.034 C 
BRANCH  31  32
HETATM   32  C   UNL     1      44.630 -21.451   3.526  1.00  0.00     0.164 C 
BRANCH  32  33
HETATM   33  O   UNL     1      44.502 -22.709   2.880  1.00  0.00    -0.401 OA
HETATM   34  H   UNL     1      44.124 -22.527   1.994  1.00  0.00     0.209 HD
ENDBRANCH  32  33
ENDBRANCH  31  32
ENDBRANCH  30  31
ENDBRANCH   7  30
TORSDOF 7
ENDMDL
MODEL 8
REMARK VINA RESULT:      -7.2      3.355      6.219
REMARK  7 active torsions:
REMARK  status: ('A' for Active; 'I' for Inactive)
REMARK    1  A    between atoms: C_3  and  N_4 
REMARK       I    between atoms: N_4  and  C_5 
REMARK    2  A    between atoms: C_5  and  C_6 
REMARK    3  A    between atoms: C_7  and  C_8 
REMARK    4  A    between atoms: C_19  and  C_20 
REMARK    5  A    between atoms: C_20  and  C_21 
REMARK    6  A    between atoms: C_21  and  C_22 
REMARK    7  A    between atoms: C_22  and  O_23 
ROOT
HETATM    1  C   UNL     1      41.399 -14.682   2.278  1.00  0.00     0.062 C 
HETATM    2  C   UNL     1      42.041 -13.700   3.266  1.00  0.00     0.202 C 
HETATM    3  N   UNL     1      42.741 -14.419   4.338  1.00  0.00    -0.083 N 
HETATM    4  C   UNL     1      42.565 -15.751   4.600  1.00  0.00     0.726 A 
HETATM    5  N   UNL     1      41.815 -16.492   3.766  1.00  0.00    -0.192 N 
HETATM    6  N   UNL     1      43.542 -13.837   5.256  1.00  0.00    -0.140 NA
HETATM    7  C   UNL     1      43.759 -14.867   6.086  1.00  0.00     0.166 A 
HETATM    8  N   UNL     1      43.181 -16.063   5.711  1.00  0.00    -0.046 NA
HETATM    9  C   UNL     1      41.261 -15.998   2.590  1.00  0.00     0.037 C 
HETATM   10  C   UNL     1      40.488 -17.006   1.774  1.00  0.00     0.070 C 
HETATM   11  H   UNL     1      41.693 -17.480   3.971  1.00  0.00     0.184 HD
ENDROOT
BRANCH   1  12
HETATM   12  C   UNL     1      40.936 -14.059   1.000  1.00  0.00     0.256 C 
HETATM   13  N   UNL     1      41.953 -13.721   0.137  1.00  0.00    -0.323 N 
HETATM   14  H   UNL     1      42.873 -13.633   0.550  1.00  0.00     0.169 HD
HETATM   15  O   UNL     1      39.757 -13.762   0.861  1.00  0.00    -0.267 OA
BRANCH  13  16
HETATM   16  C   UNL     1      41.855 -13.322  -1.217  1.00  0.00     0.041 A 
HETATM   17  C   UNL     1      41.360 -14.100  -2.281  1.00  0.00    -0.035 A 
HETATM   18  C   UNL     1      40.896 -15.526  -2.169  1.00  0.00     0.050 C 
HETATM   19  C   UNL     1      41.324 -13.536  -3.575  1.00  0.00     0.009 A 
HETATM   20  C   UNL     1      41.820 -12.259  -3.828  1.00  0.00     0.001 A 
HETATM   21  C   UNL     1      42.362 -11.517  -2.788  1.00  0.00     0.002 A 
HETATM   22  C   UNL     1      42.383 -12.047  -1.497  1.00  0.00     0.030 A 
ENDBRANCH  13  16
ENDBRANCH   1  12
BRANCH   2  23
HETATM   23  C   UNL     1      41.038 -12.736   3.907  1.00  0.00    -0.027 A 
HETATM   24  C   UNL     1      41.074 -11.354   3.645  1.00  0.00     0.028 A 
HETATM   25  C   UNL     1      40.141 -10.501   4.235  1.00  0.00     0.011 A 
HETATM   26 BR   UNL     1      40.208  -8.648   3.870  1.00  0.00    -0.051 Br
HETATM   27  C   UNL     1      39.161 -11.002   5.088  1.00  0.00     0.019 A 
HETATM   28  C   UNL     1      39.113 -12.369   5.352  1.00  0.00     0.002 A 
HETATM   29  C   UNL     1      40.042 -13.231   4.766  1.00  0.00     0.010 A 
ENDBRANCH   2  23
BRANCH   7  30
HETATM   30  C   UNL     1      44.451 -14.723   7.390  1.00  0.00     0.085 C 
BRANCH  30  31
HETATM   31  C   UNL     1      45.230 -13.409   7.505  1.00  0.00     0.034 C 
BRANCH  31  32
HETATM   32  C   UNL     1      44.940 -12.601   8.769  1.00  0.00     0.164 C 
BRANCH  32  33
HETATM   33  O   UNL     1      44.185 -13.355   9.705  1.00  0.00    -0.401 OA
HETATM   34  H   UNL     1      43.548 -13.886   9.182  1.00  0.00     0.209 HD
ENDBRANCH  32  33
ENDBRANCH  31  32
ENDBRANCH  30  31
ENDBRANCH   7  30
TORSDOF 7
ENDMDL
MODEL 9
REMARK VINA RESULT:      -7.1      4.480      6.766
REMARK  7 active torsions:
REMARK  status: ('A' for Active; 'I' for Inactive)
REMARK    1  A    between atoms: C_3  and  N_4 
REMARK       I    between atoms: N_4  and  C_5 
REMARK    2  A    between atoms: C_5  and  C_6 
REMARK    3  A    between atoms: C_7  and  C_8 
REMARK    4  A    between atoms: C_19  and  C_20 
REMARK    5  A    between atoms: C_20  and  C_21 
REMARK    6  A    between atoms: C_21  and  C_22 
REMARK    7  A    between atoms: C_22  and  O_23 
ROOT
HETATM    1  C   UNL     1      41.170 -13.741   1.731  1.00  0.00     0.062 C 
HETATM    2  C   UNL     1      41.878 -13.477   0.397  1.00  0.00     0.202 C 
HETATM    3  N   UNL     1      42.091 -12.038   0.193  1.00  0.00    -0.083 N 
HETATM    4  C   UNL     1      41.458 -11.066   0.919  1.00  0.00     0.726 A 
HETATM    5  N   UNL     1      40.693 -11.421   1.968  1.00  0.00    -0.192 N 
HETATM    6  N   UNL     1      42.836 -11.506  -0.799  1.00  0.00    -0.140 NA
HETATM    7  C   UNL     1      42.550 -10.204  -0.654  1.00  0.00     0.166 A 
HETATM    8  N   UNL     1      41.712  -9.894   0.397  1.00  0.00    -0.046 NA
HETATM    9  C   UNL     1      40.566 -12.732   2.414  1.00  0.00     0.037 C 
HETATM   10  C   UNL     1      39.694 -12.911   3.633  1.00  0.00     0.070 C 
HETATM   11  H   UNL     1      40.229 -10.690   2.500  1.00  0.00     0.184 HD
ENDROOT
BRANCH   1  12
HETATM   12  C   UNL     1      41.188 -15.171   2.168  1.00  0.00     0.256 C 
HETATM   13  N   UNL     1      42.413 -15.607   2.618  1.00  0.00    -0.323 N 
HETATM   14  H   UNL     1      43.212 -15.056   2.330  1.00  0.00     0.169 HD
HETATM   15  O   UNL     1      40.209 -15.878   1.973  1.00  0.00    -0.267 OA
BRANCH  13  16
HETATM   16  C   UNL     1      42.719 -16.813   3.293  1.00  0.00     0.041 A 
HETATM   17  C   UNL     1      43.398 -17.920   2.751  1.00  0.00    -0.035 A 
HETATM   18  C   UNL     1      43.869 -18.037   1.327  1.00  0.00     0.050 C 
HETATM   19  C   UNL     1      43.630 -19.043   3.575  1.00  0.00     0.009 A 
HETATM   20  C   UNL     1      43.153 -19.100   4.882  1.00  0.00     0.001 A 
HETATM   21  C   UNL     1      42.433 -18.031   5.394  1.00  0.00     0.002 A 
HETATM   22  C   UNL     1      42.215 -16.901   4.604  1.00  0.00     0.030 A 
ENDBRANCH  13  16
ENDBRANCH   1  12
BRANCH   2  23
HETATM   23  C   UNL     1      41.123 -14.029  -0.816  1.00  0.00    -0.027 A 
HETATM   24  C   UNL     1      39.914 -13.457  -1.253  1.00  0.00     0.028 A 
HETATM   25  C   UNL     1      39.253 -13.975  -2.368  1.00  0.00     0.011 A 
HETATM   26 BR   UNL     1      37.630 -13.194  -2.938  1.00  0.00    -0.051 Br
HETATM   27  C   UNL     1      39.779 -15.061  -3.064  1.00  0.00     0.019 A 
HETATM   28  C   UNL     1      40.978 -15.633  -2.643  1.00  0.00     0.002 A 
HETATM   29  C   UNL     1      41.647 -15.121  -1.529  1.00  0.00     0.010 A 
ENDBRANCH   2  23
BRANCH   7  30
HETATM   30  C   UNL     1      42.980  -9.168  -1.625  1.00  0.00     0.085 C 
BRANCH  30  31
HETATM   31  C   UNL     1      44.293  -8.489  -1.224  1.00  0.00     0.034 C 
BRANCH  31  32
HETATM   32  C   UNL     1      44.134  -7.276  -0.309  1.00  0.00     0.164 C 
BRANCH  32  33
HETATM   33  O   UNL     1      43.972  -7.666   1.046  1.00  0.00    -0.401 OA
HETATM   34  H   UNL     1      44.516  -7.048   1.578  1.00  0.00     0.209 HD
ENDBRANCH  32  33
ENDBRANCH  31  32
ENDBRANCH  30  31
ENDBRANCH   7  30
TORSDOF 7
ENDMDL
MODEL 10
REMARK VINA RESULT:      -7.1      2.750      8.347
REMARK  7 active torsions:
REMARK  status: ('A' for Active; 'I' for Inactive)
REMARK    1  A    between atoms: C_3  and  N_4 
REMARK       I    between atoms: N_4  and  C_5 
REMARK    2  A    between atoms: C_5  and  C_6 
REMARK    3  A    between atoms: C_7  and  C_8 
REMARK    4  A    between atoms: C_19  and  C_20 
REMARK    5  A    between atoms: C_20  and  C_21 
REMARK    6  A    between atoms: C_21  and  C_22 
REMARK    7  A    between atoms: C_22  and  O_23 
ROOT
HETATM    1  C   UNL     1      41.617 -14.651   4.834  1.00  0.00     0.062 C 
HETATM    2  C   UNL     1      41.054 -15.619   3.786  1.00  0.00     0.202 C 
HETATM    3  N   UNL     1      41.943 -16.776   3.613  1.00  0.00    -0.083 N 
HETATM    4  C   UNL     1      43.233 -16.818   4.067  1.00  0.00     0.726 A 
HETATM    5  N   UNL     1      43.695 -15.811   4.829  1.00  0.00    -0.192 N 
HETATM    6  N   UNL     1      41.638 -17.875   2.891  1.00  0.00    -0.140 NA
HETATM    7  C   UNL     1      42.819 -18.511   2.894  1.00  0.00     0.166 A 
HETATM    8  N   UNL     1      43.822 -17.895   3.614  1.00  0.00    -0.046 NA
HETATM    9  C   UNL     1      42.905 -14.748   5.256  1.00  0.00     0.037 C 
HETATM   10  C   UNL     1      43.606 -13.745   6.139  1.00  0.00     0.070 C 
HETATM   11  H   UNL     1      44.654 -15.854   5.162  1.00  0.00     0.184 HD
ENDROOT
BRANCH   1  12
HETATM   12  C   UNL     1      40.645 -13.615   5.302  1.00  0.00     0.256 C 
HETATM   13  N   UNL     1      40.782 -12.395   4.682  1.00  0.00    -0.323 N 
HETATM   14  H   UNL     1      41.672 -12.223   4.232  1.00  0.00     0.169 HD
HETATM   15  O   UNL     1      39.921 -13.849   6.260  1.00  0.00    -0.267 OA
BRANCH  13  16
HETATM   16  C   UNL     1      39.904 -11.285   4.730  1.00  0.00     0.041 A 
HETATM   17  C   UNL     1      39.895 -10.273   5.708  1.00  0.00    -0.035 A 
HETATM   18  C   UNL     1      40.790 -10.227   6.917  1.00  0.00     0.050 C 
HETATM   19  C   UNL     1      38.952  -9.228   5.595  1.00  0.00     0.009 A 
HETATM   20  C   UNL     1      38.002  -9.211   4.577  1.00  0.00     0.001 A 
HETATM   21  C   UNL     1      37.975 -10.241   3.649  1.00  0.00     0.002 A 
HETATM   22  C   UNL     1      38.915 -11.269   3.728  1.00  0.00     0.030 A 
ENDBRANCH  13  16
ENDBRANCH   1  12
BRANCH   2  23
HETATM   23  C   UNL     1      40.830 -14.974   2.415  1.00  0.00    -0.027 A 
HETATM   24  C   UNL     1      39.542 -14.625   1.967  1.00  0.00     0.028 A 
HETATM   25  C   UNL     1      39.370 -14.027   0.718  1.00  0.00     0.011 A 
HETATM   26 BR   UNL     1      37.632 -13.568   0.135  1.00  0.00    -0.051 Br
HETATM   27  C   UNL     1      40.465 -13.767  -0.101  1.00  0.00     0.019 A 
HETATM   28  C   UNL     1      41.746 -14.104   0.333  1.00  0.00     0.002 A 
HETATM   29  C   UNL     1      41.929 -14.701   1.582  1.00  0.00     0.010 A 
ENDBRANCH   2  23
BRANCH   7  30
HETATM   30  C   UNL     1      43.090 -19.718   2.076  1.00  0.00     0.085 C 
BRANCH  30  31
HETATM   31  C   UNL     1      44.291 -20.521   2.586  1.00  0.00     0.034 C 
BRANCH  31  32
HETATM   32  C   UNL     1      44.479 -21.884   1.921  1.00  0.00     0.164 C 
BRANCH  32  33
HETATM   33  O   UNL     1      44.642 -22.913   2.885  1.00  0.00    -0.401 OA
HETATM   34  H   UNL     1      44.932 -22.474   3.712  1.00  0.00     0.209 HD
ENDBRANCH  32  33
ENDBRANCH  31  32
ENDBRANCH  30  31
ENDBRANCH   7  30
TORSDOF 7
ENDMDL
