MODEL 1
REMARK VINA RESULT:      -8.7      0.000      0.000
REMARK  5 active torsions:
REMARK  status: ('A' for Active; 'I' for Inactive)
REMARK    1  A    between atoms: C_6  and  O_7 
REMARK    2  A    between atoms: O_7  and  C_8 
REMARK    3  A    between atoms: C_8  and  C_9 
REMARK       I    between atoms: C_9  and  N_10 
REMARK    4  A    between atoms: N_10  and  N_11 
REMARK    5  A    between atoms: C_12  and  C_13 
ROOT
HETATM    1  C   UNL     1      44.652 -13.893   7.360  1.00  0.00     0.261 C 
HETATM    2  N   UNL     1      43.614 -14.791   7.176  1.00  0.00    -0.246 N 
HETATM    3  O   UNL     1      45.578 -13.713   6.567  1.00  0.00    -0.269 OA
HETATM    4  H   UNL     1      42.906 -14.913   7.894  1.00  0.00     0.192 HD
ENDROOT
BRANCH   2   5
HETATM    5  N   UNL     1      43.551 -15.459   5.993  1.00  0.00    -0.184 NA
HETATM    6  C   UNL     1      42.896 -16.570   5.948  1.00  0.00     0.153 C 
BRANCH   6   7
HETATM    7  C   UNL     1      42.790 -17.257   4.670  1.00  0.00     0.018 A 
HETATM    8  C   UNL     1      43.499 -18.430   4.230  1.00  0.00     0.004 A 
HETATM    9  C   UNL     1      43.087 -18.707   2.928  1.00  0.00     0.043 A 
HETATM   10  C   UNL     1      44.461 -19.283   4.816  1.00  0.00     0.014 A 
HETATM   11  C   UNL     1      43.587 -19.784   2.183  1.00  0.00     0.030 A 
HETATM   12  N   UNL     1      42.160 -17.753   2.588  1.00  0.00    -0.358 N 
HETATM   13  C   UNL     1      44.539 -20.609   2.790  1.00  0.00     0.002 A 
HETATM   14  C   UNL     1      44.972 -20.364   4.089  1.00  0.00     0.001 A 
HETATM   15  H   UNL     1      41.694 -17.715   1.692  1.00  0.00     0.166 HD
HETATM   16  C   UNL     1      41.968 -16.866   3.620  1.00  0.00     0.018 A 
HETATM   17  C   UNL     1      41.016 -15.732   3.487  1.00  0.00     0.069 C 
ENDBRANCH   6   7
ENDBRANCH   2   5
BRANCH   1  18
HETATM   18  C   UNL     1      44.527 -13.028   8.607  1.00  0.00     0.280 C 
BRANCH  18  19
HETATM   19  O   UNL     1      44.408 -11.626   8.348  1.00  0.00    -0.340 OA
BRANCH  19  20
HETATM   20  C   UNL     1      43.854 -11.000   9.443  1.00  0.00     0.092 A 
HETATM   21  C   UNL     1      42.530 -10.548   9.371  1.00  0.00     0.045 A 
HETATM   22  C   UNL     1      41.916  -9.982  10.492  1.00  0.00     0.028 A 
HETATM   23 BR   UNL     1      41.512 -10.720   7.779  1.00  0.00    -0.048 Br
HETATM   24  C   UNL     1      42.626  -9.843  11.690  1.00  0.00    -0.060 A 
HETATM   25  C   UNL     1      41.950  -9.317  12.922  1.00  0.00     0.048 C 
HETATM   26  C   UNL     1      43.962 -10.263  11.744  1.00  0.00     0.016 A 
HETATM   27  C   UNL     1      44.601 -10.813  10.619  1.00  0.00    -0.027 A 
HETATM   28  C   UNL     1      46.038 -11.235  10.737  1.00  0.00     0.051 C 
ENDBRANCH  19  20
ENDBRANCH  18  19
ENDBRANCH   1  18
TORSDOF 5
ENDMDL
MODEL 2
REMARK VINA RESULT:      -8.4      5.890      9.468
REMARK  5 active torsions:
REMARK  status: ('A' for Active; 'I' for Inactive)
REMARK    1  A    between atoms: C_6  and  O_7 
REMARK    2  A    between atoms: O_7  and  C_8 
REMARK    3  A    between atoms: C_8  and  C_9 
REMARK       I    between atoms: C_9  and  N_10 
REMARK    4  A    between atoms: N_10  and  N_11 
REMARK    5  A    between atoms: C_12  and  C_13 
ROOT
HETATM    1  C   UNL     1      41.728 -15.569   0.797  1.00  0.00     0.261 C 
HETATM    2  N   UNL     1      42.533 -15.343   1.901  1.00  0.00    -0.246 N 
HETATM    3  O   UNL     1      41.670 -16.629   0.171  1.00  0.00    -0.269 OA
HETATM    4  H   UNL     1      42.556 -14.428   2.342  1.00  0.00     0.192 HD
ENDROOT
BRANCH   2   5
HETATM    5  N   UNL     1      43.244 -16.391   2.397  1.00  0.00    -0.184 NA
HETATM    6  C   UNL     1      42.803 -16.988   3.452  1.00  0.00     0.153 C 
BRANCH   6   7
HETATM    7  C   UNL     1      43.540 -18.139   3.951  1.00  0.00     0.018 A 
HETATM    8  C   UNL     1      43.737 -19.414   3.312  1.00  0.00     0.004 A 
HETATM    9  C   UNL     1      44.487 -20.208   4.178  1.00  0.00     0.043 A 
HETATM   10  C   UNL     1      43.340 -19.973   2.077  1.00  0.00     0.014 A 
HETATM   11  C   UNL     1      44.857 -21.525   3.877  1.00  0.00     0.030 A 
HETATM   12  N   UNL     1      44.748 -19.450   5.293  1.00  0.00    -0.358 N 
HETATM   13  C   UNL     1      44.448 -22.052   2.647  1.00  0.00     0.002 A 
HETATM   14  C   UNL     1      43.700 -21.287   1.757  1.00  0.00     0.001 A 
HETATM   15  H   UNL     1      45.279 -19.782   6.087  1.00  0.00     0.166 HD
HETATM   16  C   UNL     1      44.183 -18.202   5.182  1.00  0.00     0.018 A 
HETATM   17  C   UNL     1      44.320 -17.202   6.272  1.00  0.00     0.069 C 
ENDBRANCH   6   7
ENDBRANCH   2   5
BRANCH   1  18
HETATM   18  C   UNL     1      40.799 -14.414   0.444  1.00  0.00     0.280 C 
BRANCH  18  19
HETATM   19  O   UNL     1      41.051 -13.819  -0.832  1.00  0.00    -0.340 OA
BRANCH  19  20
HETATM   20  C   UNL     1      39.953 -13.987  -1.646  1.00  0.00     0.092 A 
HETATM   21  C   UNL     1      38.806 -13.217  -1.410  1.00  0.00     0.045 A 
HETATM   22  C   UNL     1      37.707 -13.308  -2.269  1.00  0.00     0.028 A 
HETATM   23 BR   UNL     1      38.714 -12.001   0.044  1.00  0.00    -0.048 Br
HETATM   24  C   UNL     1      37.735 -14.185  -3.359  1.00  0.00    -0.060 A 
HETATM   25  C   UNL     1      36.594 -14.226  -4.333  1.00  0.00     0.048 C 
HETATM   26  C   UNL     1      38.870 -14.979  -3.567  1.00  0.00     0.016 A 
HETATM   27  C   UNL     1      39.974 -14.916  -2.700  1.00  0.00    -0.027 A 
HETATM   28  C   UNL     1      41.157 -15.802  -2.970  1.00  0.00     0.051 C 
ENDBRANCH  19  20
ENDBRANCH  18  19
ENDBRANCH   1  18
TORSDOF 5
ENDMDL
MODEL 3
REMARK VINA RESULT:      -8.4      5.920      9.064
REMARK  5 active torsions:
REMARK  status: ('A' for Active; 'I' for Inactive)
REMARK    1  A    between atoms: C_6  and  O_7 
REMARK    2  A    between atoms: O_7  and  C_8 
REMARK    3  A    between atoms: C_8  and  C_9 
REMARK       I    between atoms: C_9  and  N_10 
REMARK    4  A    between atoms: N_10  and  N_11 
REMARK    5  A    between atoms: C_12  and  C_13 
ROOT
HETATM    1  C   UNL     1      41.267 -15.737   1.204  1.00  0.00     0.261 C 
HETATM    2  N   UNL     1      41.736 -15.731   2.508  1.00  0.00    -0.246 N 
HETATM    3  O   UNL     1      41.315 -16.704   0.442  1.00  0.00    -0.269 OA
HETATM    4  H   UNL     1      41.697 -14.883   3.064  1.00  0.00     0.192 HD
ENDROOT
BRANCH   2   5
HETATM    5  N   UNL     1      42.198 -16.901   3.024  1.00  0.00    -0.184 NA
HETATM    6  C   UNL     1      43.451 -16.990   3.320  1.00  0.00     0.153 C 
BRANCH   6   7
HETATM    7  C   UNL     1      43.933 -18.226   3.917  1.00  0.00     0.018 A 
HETATM    8  C   UNL     1      44.017 -19.530   3.315  1.00  0.00     0.004 A 
HETATM    9  C   UNL     1      44.517 -20.406   4.276  1.00  0.00     0.043 A 
HETATM   10  C   UNL     1      43.707 -20.053   2.039  1.00  0.00     0.014 A 
HETATM   11  C   UNL     1      44.720 -21.771   4.032  1.00  0.00     0.030 A 
HETATM   12  N   UNL     1      44.740 -19.671   5.413  1.00  0.00    -0.358 N 
HETATM   13  C   UNL     1      44.402 -22.259   2.760  1.00  0.00     0.002 A 
HETATM   14  C   UNL     1      43.902 -21.413   1.775  1.00  0.00     0.001 A 
HETATM   15  H   UNL     1      45.106 -20.059   6.272  1.00  0.00     0.166 HD
HETATM   16  C   UNL     1      44.391 -18.355   5.223  1.00  0.00     0.018 A 
HETATM   17  C   UNL     1      44.532 -17.361   6.318  1.00  0.00     0.069 C 
ENDBRANCH   6   7
ENDBRANCH   2   5
BRANCH   1  18
HETATM   18  C   UNL     1      40.564 -14.455   0.779  1.00  0.00     0.280 C 
BRANCH  18  19
HETATM   19  O   UNL     1      39.781 -14.574  -0.412  1.00  0.00    -0.340 OA
BRANCH  19  20
HETATM   20  C   UNL     1      40.322 -13.782  -1.402  1.00  0.00     0.092 A 
HETATM   21  C   UNL     1      40.276 -12.389  -1.261  1.00  0.00     0.045 A 
HETATM   22  C   UNL     1      40.889 -11.564  -2.208  1.00  0.00     0.028 A 
HETATM   23 BR   UNL     1      39.427 -11.574   0.228  1.00  0.00    -0.048 Br
HETATM   24  C   UNL     1      41.534 -12.123  -3.318  1.00  0.00    -0.060 A 
HETATM   25  C   UNL     1      42.266 -11.250  -4.293  1.00  0.00     0.048 C 
HETATM   26  C   UNL     1      41.543 -13.516  -3.472  1.00  0.00     0.016 A 
HETATM   27  C   UNL     1      40.913 -14.358  -2.540  1.00  0.00    -0.027 A 
HETATM   28  C   UNL     1      40.948 -15.842  -2.767  1.00  0.00     0.051 C 
ENDBRANCH  19  20
ENDBRANCH  18  19
ENDBRANCH   1  18
TORSDOF 5
ENDMDL
MODEL 4
REMARK VINA RESULT:      -8.3      6.312      9.369
REMARK  5 active torsions:
REMARK  status: ('A' for Active; 'I' for Inactive)
REMARK    1  A    between atoms: C_6  and  O_7 
REMARK    2  A    between atoms: O_7  and  C_8 
REMARK    3  A    between atoms: C_8  and  C_9 
REMARK       I    between atoms: C_9  and  N_10 
REMARK    4  A    between atoms: N_10  and  N_11 
REMARK    5  A    between atoms: C_12  and  C_13 
ROOT
HETATM    1  C   UNL     1      40.947 -16.470   2.097  1.00  0.00     0.261 C 
HETATM    2  N   UNL     1      41.060 -15.095   1.974  1.00  0.00    -0.246 N 
HETATM    3  O   UNL     1      40.651 -17.238   1.180  1.00  0.00    -0.269 OA
HETATM    4  H   UNL     1      41.269 -14.522   2.786  1.00  0.00     0.192 HD
ENDROOT
BRANCH   2   5
HETATM    5  N   UNL     1      40.930 -14.553   0.734  1.00  0.00    -0.184 NA
HETATM    6  C   UNL     1      41.999 -14.327   0.047  1.00  0.00     0.153 C 
BRANCH   6   7
HETATM    7  C   UNL     1      41.853 -13.792  -1.298  1.00  0.00     0.018 A 
HETATM    8  C   UNL     1      42.220 -12.486  -1.780  1.00  0.00     0.004 A 
HETATM    9  C   UNL     1      41.871 -12.421  -3.127  1.00  0.00     0.043 A 
HETATM   10  C   UNL     1      42.812 -11.345  -1.193  1.00  0.00     0.014 A 
HETATM   11  C   UNL     1      42.079 -11.280  -3.914  1.00  0.00     0.030 A 
HETATM   12  N   UNL     1      41.325 -13.635  -3.460  1.00  0.00    -0.358 N 
HETATM   13  C   UNL     1      42.665 -10.166  -3.304  1.00  0.00     0.002 A 
HETATM   14  C   UNL     1      43.028 -10.196  -1.961  1.00  0.00     0.001 A 
HETATM   15  H   UNL     1      40.984 -13.865  -4.384  1.00  0.00     0.166 HD
HETATM   16  C   UNL     1      41.299 -14.476  -2.373  1.00  0.00     0.018 A 
HETATM   17  C   UNL     1      40.741 -15.849  -2.482  1.00  0.00     0.069 C 
ENDBRANCH   6   7
ENDBRANCH   2   5
BRANCH   1  18
HETATM   18  C   UNL     1      41.326 -17.017   3.467  1.00  0.00     0.280 C 
BRANCH  18  19
HETATM   19  O   UNL     1      42.676 -16.754   3.858  1.00  0.00    -0.340 OA
BRANCH  19  20
HETATM   20  C   UNL     1      43.306 -17.940   4.169  1.00  0.00     0.092 A 
HETATM   21  C   UNL     1      43.307 -18.383   5.497  1.00  0.00     0.045 A 
HETATM   22  C   UNL     1      43.866 -19.621   5.828  1.00  0.00     0.028 A 
HETATM   23 BR   UNL     1      42.519 -17.353   6.884  1.00  0.00    -0.048 Br
HETATM   24  C   UNL     1      44.450 -20.417   4.836  1.00  0.00    -0.060 A 
HETATM   25  C   UNL     1      44.976 -21.783   5.166  1.00  0.00     0.048 C 
HETATM   26  C   UNL     1      44.479 -19.951   3.515  1.00  0.00     0.016 A 
HETATM   27  C   UNL     1      43.940 -18.699   3.171  1.00  0.00    -0.027 A 
HETATM   28  C   UNL     1      44.012 -18.250   1.739  1.00  0.00     0.051 C 
ENDBRANCH  19  20
ENDBRANCH  18  19
ENDBRANCH   1  18
TORSDOF 5
ENDMDL
MODEL 5
REMARK VINA RESULT:      -8.3      6.071      9.532
REMARK  5 active torsions:
REMARK  status: ('A' for Active; 'I' for Inactive)
REMARK    1  A    between atoms: C_6  and  O_7 
REMARK    2  A    between atoms: O_7  and  C_8 
REMARK    3  A    between atoms: C_8  and  C_9 
REMARK       I    between atoms: C_9  and  N_10 
REMARK    4  A    between atoms: N_10  and  N_11 
REMARK    5  A    between atoms: C_12  and  C_13 
ROOT
HETATM    1  C   UNL     1      41.581 -15.521   3.280  1.00  0.00     0.261 C 
HETATM    2  N   UNL     1      42.333 -14.862   2.321  1.00  0.00    -0.246 N 
HETATM    3  O   UNL     1      40.366 -15.393   3.434  1.00  0.00    -0.269 OA
HETATM    4  H   UNL     1      43.339 -14.988   2.281  1.00  0.00     0.192 HD
ENDROOT
BRANCH   2   5
HETATM    5  N   UNL     1      41.675 -14.089   1.416  1.00  0.00    -0.184 NA
HETATM    6  C   UNL     1      41.293 -14.630   0.308  1.00  0.00     0.153 C 
BRANCH   6   7
HETATM    7  C   UNL     1      40.547 -13.813  -0.637  1.00  0.00     0.018 A 
HETATM    8  C   UNL     1      41.047 -13.098  -1.782  1.00  0.00     0.004 A 
HETATM    9  C   UNL     1      39.970 -12.439  -2.370  1.00  0.00     0.043 A 
HETATM   10  C   UNL     1      42.322 -12.943  -2.373  1.00  0.00     0.014 A 
HETATM   11  C   UNL     1      40.099 -11.634  -3.510  1.00  0.00     0.030 A 
HETATM   12  N   UNL     1      38.858 -12.744  -1.626  1.00  0.00    -0.358 N 
HETATM   13  C   UNL     1      41.373 -11.499  -4.072  1.00  0.00     0.002 A 
HETATM   14  C   UNL     1      42.471 -12.144  -3.512  1.00  0.00     0.001 A 
HETATM   15  H   UNL     1      37.931 -12.397  -1.831  1.00  0.00     0.166 HD
HETATM   16  C   UNL     1      39.181 -13.566  -0.573  1.00  0.00     0.018 A 
HETATM   17  C   UNL     1      38.143 -14.026   0.385  1.00  0.00     0.069 C 
ENDBRANCH   6   7
ENDBRANCH   2   5
BRANCH   1  18
HETATM   18  C   UNL     1      42.360 -16.535   4.108  1.00  0.00     0.280 C 
BRANCH  18  19
HETATM   19  O   UNL     1      43.722 -16.706   3.708  1.00  0.00    -0.340 OA
BRANCH  19  20
HETATM   20  C   UNL     1      43.969 -18.040   3.468  1.00  0.00     0.092 A 
HETATM   21  C   UNL     1      44.362 -18.863   4.532  1.00  0.00     0.045 A 
HETATM   22  C   UNL     1      44.539 -20.235   4.334  1.00  0.00     0.028 A 
HETATM   23 BR   UNL     1      44.626 -18.163   6.276  1.00  0.00    -0.048 Br
HETATM   24  C   UNL     1      44.347 -20.795   3.066  1.00  0.00    -0.060 A 
HETATM   25  C   UNL     1      44.451 -22.278   2.864  1.00  0.00     0.048 C 
HETATM   26  C   UNL     1      43.990 -19.961   1.998  1.00  0.00     0.016 A 
HETATM   27  C   UNL     1      43.829 -18.576   2.176  1.00  0.00    -0.027 A 
HETATM   28  C   UNL     1      43.457 -17.733   0.989  1.00  0.00     0.051 C 
ENDBRANCH  19  20
ENDBRANCH  18  19
ENDBRANCH   1  18
TORSDOF 5
ENDMDL
MODEL 6
REMARK VINA RESULT:      -8.3      1.878      2.529
REMARK  5 active torsions:
REMARK  status: ('A' for Active; 'I' for Inactive)
REMARK    1  A    between atoms: C_6  and  O_7 
REMARK    2  A    between atoms: O_7  and  C_8 
REMARK    3  A    between atoms: C_8  and  C_9 
REMARK       I    between atoms: C_9  and  N_10 
REMARK    4  A    between atoms: N_10  and  N_11 
REMARK    5  A    between atoms: C_12  and  C_13 
ROOT
HETATM    1  C   UNL     1      41.718 -12.134   6.234  1.00  0.00     0.261 C 
HETATM    2  N   UNL     1      42.312 -13.377   6.383  1.00  0.00    -0.246 N 
HETATM    3  O   UNL     1      41.300 -11.675   5.171  1.00  0.00    -0.269 OA
HETATM    4  H   UNL     1      42.669 -13.671   7.287  1.00  0.00     0.192 HD
ENDROOT
BRANCH   2   5
HETATM    5  N   UNL     1      42.354 -14.196   5.299  1.00  0.00    -0.184 NA
HETATM    6  C   UNL     1      41.695 -15.305   5.341  1.00  0.00     0.153 C 
BRANCH   6   7
HETATM    7  C   UNL     1      41.703 -16.157   4.162  1.00  0.00     0.018 A 
HETATM    8  C   UNL     1      42.530 -17.306   3.901  1.00  0.00     0.004 A 
HETATM    9  C   UNL     1      42.199 -17.785   2.635  1.00  0.00     0.043 A 
HETATM   10  C   UNL     1      43.538 -17.984   4.623  1.00  0.00     0.014 A 
HETATM   11  C   UNL     1      42.822 -18.897   2.053  1.00  0.00     0.030 A 
HETATM   12  N   UNL     1      41.207 -16.972   2.145  1.00  0.00    -0.358 N 
HETATM   13  C   UNL     1      43.817 -19.546   2.791  1.00  0.00     0.002 A 
HETATM   14  C   UNL     1      44.172 -19.098   4.060  1.00  0.00     0.001 A 
HETATM   15  H   UNL     1      40.777 -17.093   1.238  1.00  0.00     0.166 HD
HETATM   16  C   UNL     1      40.895 -15.981   3.045  1.00  0.00     0.018 A 
HETATM   17  C   UNL     1      39.853 -14.968   2.735  1.00  0.00     0.069 C 
ENDBRANCH   6   7
ENDBRANCH   2   5
BRANCH   1  18
HETATM   18  C   UNL     1      41.510 -11.372   7.537  1.00  0.00     0.280 C 
BRANCH  18  19
HETATM   19  O   UNL     1      42.520 -10.402   7.826  1.00  0.00    -0.340 OA
BRANCH  19  20
HETATM   20  C   UNL     1      42.658 -10.271   9.190  1.00  0.00     0.092 A 
HETATM   21  C   UNL     1      43.668 -10.987   9.845  1.00  0.00     0.045 A 
HETATM   22  C   UNL     1      43.884 -10.811  11.215  1.00  0.00     0.028 A 
HETATM   23 BR   UNL     1      44.801 -12.184   8.903  1.00  0.00    -0.048 Br
HETATM   24  C   UNL     1      43.078  -9.933  11.948  1.00  0.00    -0.060 A 
HETATM   25  C   UNL     1      43.356  -9.673  13.399  1.00  0.00     0.048 C 
HETATM   26  C   UNL     1      42.045  -9.247  11.293  1.00  0.00     0.016 A 
HETATM   27  C   UNL     1      41.802  -9.430   9.922  1.00  0.00    -0.027 A 
HETATM   28  C   UNL     1      40.673  -8.674   9.280  1.00  0.00     0.051 C 
ENDBRANCH  19  20
ENDBRANCH  18  19
ENDBRANCH   1  18
TORSDOF 5
ENDMDL
MODEL 7
REMARK VINA RESULT:      -8.1      5.976      8.450
REMARK  5 active torsions:
REMARK  status: ('A' for Active; 'I' for Inactive)
REMARK    1  A    between atoms: C_6  and  O_7 
REMARK    2  A    between atoms: O_7  and  C_8 
REMARK    3  A    between atoms: C_8  and  C_9 
REMARK       I    between atoms: C_9  and  N_10 
REMARK    4  A    between atoms: N_10  and  N_11 
REMARK    5  A    between atoms: C_12  and  C_13 
ROOT
HETATM    1  C   UNL     1      40.247 -16.048   2.314  1.00  0.00     0.261 C 
HETATM    2  N   UNL     1      41.319 -15.971   3.189  1.00  0.00    -0.246 N 
HETATM    3  O   UNL     1      39.860 -17.079   1.762  1.00  0.00    -0.269 OA
HETATM    4  H   UNL     1      41.604 -15.077   3.575  1.00  0.00     0.192 HD
ENDROOT
BRANCH   2   5
HETATM    5  N   UNL     1      41.936 -17.130   3.543  1.00  0.00    -0.184 NA
HETATM    6  C   UNL     1      43.219 -17.125   3.682  1.00  0.00     0.153 C 
BRANCH   6   7
HETATM    7  C   UNL     1      43.871 -18.353   4.109  1.00  0.00     0.018 A 
HETATM    8  C   UNL     1      43.957 -19.605   3.404  1.00  0.00     0.004 A 
HETATM    9  C   UNL     1      44.656 -20.498   4.215  1.00  0.00     0.043 A 
HETATM   10  C   UNL     1      43.497 -20.069   2.151  1.00  0.00     0.014 A 
HETATM   11  C   UNL     1      44.916 -21.823   3.841  1.00  0.00     0.030 A 
HETATM   12  N   UNL     1      44.994 -19.820   5.360  1.00  0.00    -0.358 N 
HETATM   13  C   UNL     1      44.447 -22.253   2.596  1.00  0.00     0.002 A 
HETATM   14  C   UNL     1      43.747 -21.389   1.760  1.00  0.00     0.001 A 
HETATM   15  H   UNL     1      45.510 -20.232   6.125  1.00  0.00     0.166 HD
HETATM   16  C   UNL     1      44.527 -18.528   5.322  1.00  0.00     0.018 A 
HETATM   17  C   UNL     1      44.760 -17.598   6.457  1.00  0.00     0.069 C 
ENDBRANCH   6   7
ENDBRANCH   2   5
BRANCH   1  18
HETATM   18  C   UNL     1      39.474 -14.747   2.144  1.00  0.00     0.280 C 
BRANCH  18  19
HETATM   19  O   UNL     1      40.190 -13.717   1.456  1.00  0.00    -0.340 OA
BRANCH  19  20
HETATM   20  C   UNL     1      39.419 -13.230   0.424  1.00  0.00     0.092 A 
HETATM   21  C   UNL     1      39.642 -13.703  -0.876  1.00  0.00     0.045 A 
HETATM   22  C   UNL     1      38.821 -13.288  -1.928  1.00  0.00     0.028 A 
HETATM   23 BR   UNL     1      41.025 -14.947  -1.250  1.00  0.00    -0.048 Br
HETATM   24  C   UNL     1      37.784 -12.378  -1.696  1.00  0.00    -0.060 A 
HETATM   25  C   UNL     1      36.845 -11.993  -2.802  1.00  0.00     0.048 C 
HETATM   26  C   UNL     1      37.590 -11.880  -0.401  1.00  0.00     0.016 A 
HETATM   27  C   UNL     1      38.420 -12.270   0.664  1.00  0.00    -0.027 A 
HETATM   28  C   UNL     1      38.168 -11.692   2.027  1.00  0.00     0.051 C 
ENDBRANCH  19  20
ENDBRANCH  18  19
ENDBRANCH   1  18
TORSDOF 5
ENDMDL
MODEL 8
REMARK VINA RESULT:      -8.1      5.254      9.474
REMARK  5 active torsions:
REMARK  status: ('A' for Active; 'I' for Inactive)
REMARK    1  A    between atoms: C_6  and  O_7 
REMARK    2  A    between atoms: O_7  and  C_8 
REMARK    3  A    between atoms: C_8  and  C_9 
REMARK       I    between atoms: C_9  and  N_10 
REMARK    4  A    between atoms: N_10  and  N_11 
REMARK    5  A    between atoms: C_12  and  C_13 
ROOT
HETATM    1  C   UNL     1      41.464 -16.751   0.808  1.00  0.00     0.261 C 
HETATM    2  N   UNL     1      42.574 -17.554   1.016  1.00  0.00    -0.246 N 
HETATM    3  O   UNL     1      40.544 -16.599   1.612  1.00  0.00    -0.269 OA
HETATM    4  H   UNL     1      43.274 -17.662   0.288  1.00  0.00     0.192 HD
ENDROOT
BRANCH   2   5
HETATM    5  N   UNL     1      42.714 -18.145   2.232  1.00  0.00    -0.184 NA
HETATM    6  C   UNL     1      43.831 -17.998   2.862  1.00  0.00     0.153 C 
BRANCH   6   7
HETATM    7  C   UNL     1      43.961 -18.591   4.184  1.00  0.00     0.018 A 
HETATM    8  C   UNL     1      43.737 -17.969   5.462  1.00  0.00     0.004 A 
HETATM    9  C   UNL     1      44.008 -18.919   6.446  1.00  0.00     0.043 A 
HETATM   10  C   UNL     1      43.336 -16.680   5.879  1.00  0.00     0.014 A 
HETATM   11  C   UNL     1      43.901 -18.648   7.817  1.00  0.00     0.030 A 
HETATM   12  N   UNL     1      44.370 -20.074   5.799  1.00  0.00    -0.358 N 
HETATM   13  C   UNL     1      43.503 -17.363   8.198  1.00  0.00     0.002 A 
HETATM   14  C   UNL     1      43.223 -16.390   7.244  1.00  0.00     0.001 A 
HETATM   15  H   UNL     1      44.621 -20.930   6.275  1.00  0.00     0.166 HD
HETATM   16  C   UNL     1      44.354 -19.900   4.436  1.00  0.00     0.018 A 
HETATM   17  C   UNL     1      44.722 -21.010   3.519  1.00  0.00     0.069 C 
ENDBRANCH   6   7
ENDBRANCH   2   5
BRANCH   1  18
HETATM   18  C   UNL     1      41.495 -15.953  -0.489  1.00  0.00     0.280 C 
BRANCH  18  19
HETATM   19  O   UNL     1      40.497 -14.933  -0.581  1.00  0.00    -0.340 OA
BRANCH  19  20
HETATM   20  C   UNL     1      40.889 -13.984  -1.500  1.00  0.00     0.092 A 
HETATM   21  C   UNL     1      41.570 -12.844  -1.054  1.00  0.00     0.045 A 
HETATM   22  C   UNL     1      42.051 -11.906  -1.972  1.00  0.00     0.028 A 
HETATM   23 BR   UNL     1      41.899 -12.548   0.791  1.00  0.00    -0.048 Br
HETATM   24  C   UNL     1      41.838 -12.088  -3.343  1.00  0.00    -0.060 A 
HETATM   25  C   UNL     1      42.425 -11.132  -4.340  1.00  0.00     0.048 C 
HETATM   26  C   UNL     1      41.124 -13.212  -3.780  1.00  0.00     0.016 A 
HETATM   27  C   UNL     1      40.615 -14.153  -2.869  1.00  0.00    -0.027 A 
HETATM   28  C   UNL     1      39.848 -15.331  -3.398  1.00  0.00     0.051 C 
ENDBRANCH  19  20
ENDBRANCH  18  19
ENDBRANCH   1  18
TORSDOF 5
ENDMDL
MODEL 9
REMARK VINA RESULT:      -8.0      5.863      7.040
REMARK  5 active torsions:
REMARK  status: ('A' for Active; 'I' for Inactive)
REMARK    1  A    between atoms: C_6  and  O_7 
REMARK    2  A    between atoms: O_7  and  C_8 
REMARK    3  A    between atoms: C_8  and  C_9 
REMARK       I    between atoms: C_9  and  N_10 
REMARK    4  A    between atoms: N_10  and  N_11 
REMARK    5  A    between atoms: C_12  and  C_13 
ROOT
HETATM    1  C   UNL     1      41.587 -15.879   0.807  1.00  0.00     0.261 C 
HETATM    2  N   UNL     1      42.563 -15.646   1.762  1.00  0.00    -0.246 N 
HETATM    3  O   UNL     1      41.346 -16.975   0.298  1.00  0.00    -0.269 OA
HETATM    4  H   UNL     1      42.731 -14.705   2.106  1.00  0.00     0.192 HD
ENDROOT
BRANCH   2   5
HETATM    5  N   UNL     1      43.246 -16.715   2.250  1.00  0.00    -0.184 NA
HETATM    6  C   UNL     1      42.989 -17.112   3.451  1.00  0.00     0.153 C 
BRANCH   6   7
HETATM    7  C   UNL     1      43.686 -18.286   3.953  1.00  0.00     0.018 A 
HETATM    8  C   UNL     1      43.834 -19.570   3.320  1.00  0.00     0.004 A 
HETATM    9  C   UNL     1      44.559 -20.386   4.186  1.00  0.00     0.043 A 
HETATM   10  C   UNL     1      43.413 -20.121   2.089  1.00  0.00     0.014 A 
HETATM   11  C   UNL     1      44.880 -21.718   3.890  1.00  0.00     0.030 A 
HETATM   12  N   UNL     1      44.851 -19.633   5.296  1.00  0.00    -0.358 N 
HETATM   13  C   UNL     1      44.447 -22.235   2.665  1.00  0.00     0.002 A 
HETATM   14  C   UNL     1      43.723 -21.449   1.774  1.00  0.00     0.001 A 
HETATM   15  H   UNL     1      45.373 -19.980   6.090  1.00  0.00     0.166 HD
HETATM   16  C   UNL     1      44.332 -18.366   5.181  1.00  0.00     0.018 A 
HETATM   17  C   UNL     1      44.508 -17.366   6.266  1.00  0.00     0.069 C 
ENDBRANCH   6   7
ENDBRANCH   2   5
BRANCH   1  18
HETATM   18  C   UNL     1      40.721 -14.670   0.478  1.00  0.00     0.280 C 
BRANCH  18  19
HETATM   19  O   UNL     1      39.399 -14.721   1.022  1.00  0.00    -0.340 OA
BRANCH  19  20
HETATM   20  C   UNL     1      39.109 -13.527   1.643  1.00  0.00     0.092 A 
HETATM   21  C   UNL     1      38.504 -12.503   0.903  1.00  0.00     0.045 A 
HETATM   22  C   UNL     1      38.123 -11.311   1.526  1.00  0.00     0.028 A 
HETATM   23 BR   UNL     1      38.141 -12.705  -0.949  1.00  0.00    -0.048 Br
HETATM   24  C   UNL     1      38.363 -11.123   2.892  1.00  0.00    -0.060 A 
HETATM   25  C   UNL     1      37.882  -9.883   3.587  1.00  0.00     0.048 C 
HETATM   26  C   UNL     1      39.002 -12.136   3.619  1.00  0.00     0.016 A 
HETATM   27  C   UNL     1      39.411 -13.331   3.002  1.00  0.00    -0.027 A 
HETATM   28  C   UNL     1      40.101 -14.374   3.833  1.00  0.00     0.051 C 
ENDBRANCH  19  20
ENDBRANCH  18  19
ENDBRANCH   1  18
TORSDOF 5
ENDMDL
MODEL 10
REMARK VINA RESULT:      -8.0      5.058      6.679
REMARK  5 active torsions:
REMARK  status: ('A' for Active; 'I' for Inactive)
REMARK    1  A    between atoms: C_6  and  O_7 
REMARK    2  A    between atoms: O_7  and  C_8 
REMARK    3  A    between atoms: C_8  and  C_9 
REMARK       I    between atoms: C_9  and  N_10 
REMARK    4  A    between atoms: N_10  and  N_11 
REMARK    5  A    between atoms: C_12  and  C_13 
ROOT
HETATM    1  C   UNL     1      42.662 -13.847   3.707  1.00  0.00     0.261 C 
HETATM    2  N   UNL     1      42.422 -14.821   4.662  1.00  0.00    -0.246 N 
HETATM    3  O   UNL     1      43.557 -13.894   2.862  1.00  0.00    -0.269 OA
HETATM    4  H   UNL     1      41.689 -14.694   5.353  1.00  0.00     0.192 HD
ENDROOT
BRANCH   2   5
HETATM    5  N   UNL     1      43.162 -15.961   4.610  1.00  0.00    -0.184 NA
HETATM    6  C   UNL     1      42.702 -17.019   5.190  1.00  0.00     0.153 C 
BRANCH   6   7
HETATM    7  C   UNL     1      43.473 -18.249   5.091  1.00  0.00     0.018 A 
HETATM    8  C   UNL     1      43.606 -19.125   3.957  1.00  0.00     0.004 A 
HETATM    9  C   UNL     1      44.423 -20.187   4.339  1.00  0.00     0.043 A 
HETATM   10  C   UNL     1      43.100 -19.120   2.637  1.00  0.00     0.014 A 
HETATM   11  C   UNL     1      44.757 -21.240   3.477  1.00  0.00     0.030 A 
HETATM   12  N   UNL     1      44.784 -19.967   5.645  1.00  0.00    -0.358 N 
HETATM   13  C   UNL     1      44.240 -21.208   2.178  1.00  0.00     0.002 A 
HETATM   14  C   UNL     1      43.422 -20.162   1.761  1.00  0.00     0.001 A 
HETATM   15  H   UNL     1      45.379 -20.587   6.177  1.00  0.00     0.166 HD
HETATM   16  C   UNL     1      44.219 -18.807   6.121  1.00  0.00     0.018 A 
HETATM   17  C   UNL     1      44.455 -18.360   7.518  1.00  0.00     0.069 C 
ENDBRANCH   6   7
ENDBRANCH   2   5
BRANCH   1  18
HETATM   18  C   UNL     1      41.650 -12.709   3.695  1.00  0.00     0.280 C 
BRANCH  18  19
HETATM   19  O   UNL     1      40.331 -13.084   4.100  1.00  0.00    -0.340 OA
BRANCH  19  20
HETATM   20  C   UNL     1      39.422 -12.680   3.148  1.00  0.00     0.092 A 
HETATM   21  C   UNL     1      39.041 -13.580   2.144  1.00  0.00     0.045 A 
HETATM   22  C   UNL     1      38.060 -13.225   1.213  1.00  0.00     0.028 A 
HETATM   23 BR   UNL     1      39.801 -15.315   2.032  1.00  0.00    -0.048 Br
HETATM   24  C   UNL     1      37.466 -11.959   1.263  1.00  0.00    -0.060 A 
HETATM   25  C   UNL     1      36.354 -11.601   0.322  1.00  0.00     0.048 C 
HETATM   26  C   UNL     1      37.879 -11.050   2.247  1.00  0.00     0.016 A 
HETATM   27  C   UNL     1      38.879 -11.384   3.176  1.00  0.00    -0.027 A 
HETATM   28  C   UNL     1      39.285 -10.362   4.199  1.00  0.00     0.051 C 
ENDBRANCH  19  20
ENDBRANCH  18  19
ENDBRANCH   1  18
TORSDOF 5
ENDMDL
