MODEL 1
REMARK VINA RESULT:      -8.8      0.000      0.000
REMARK  4 active torsions:
REMARK  status: ('A' for Active; 'I' for Inactive)
REMARK    1  A    between atoms: C_6  and  C_7 
REMARK    2  A    between atoms: C_8  and  C_9 
REMARK       I    between atoms: C_9  and  N_10 
REMARK    3  A    between atoms: N_10  and  C_11 
REMARK    4  A    between atoms: C_18  and  C_19 
REMARK       I    between atoms: C_19  and  N_20 
ROOT
HETATM    1  C   UNL     1      41.432 -16.920   1.098  1.00  0.00     0.035 A 
HETATM    2  C   UNL     1      41.537 -16.359  -0.182  1.00  0.00     0.046 A 
HETATM    3  C   UNL     1      40.914 -15.120  -0.454  1.00  0.00     0.030 A 
HETATM    4  C   UNL     1      40.203 -14.491   0.559  1.00  0.00     0.063 A 
HETATM    5  N   UNL     1      39.723 -13.338   0.003  1.00  0.00    -0.277 N 
HETATM    6  H   UNL     1      39.157 -12.629   0.454  1.00  0.00     0.189 HD
HETATM    7  N   UNL     1      40.067 -13.153  -1.282  1.00  0.00    -0.168 NA
HETATM    8  C   UNL     1      40.805 -14.247  -1.580  1.00  0.00     0.156 A 
HETATM    9  C   UNL     1      40.076 -15.021   1.844  1.00  0.00     0.034 A 
HETATM   10  C   UNL     1      40.709 -16.245   2.091  1.00  0.00     0.032 A 
ENDROOT
BRANCH   1  11
HETATM   11  N   UNL     1      42.045 -18.135   1.474  1.00  0.00    -0.327 N 
HETATM   12  C   UNL     1      43.382 -18.358   1.721  1.00  0.00     0.227 C 
HETATM   13  O   UNL     1      44.296 -17.562   1.562  1.00  0.00    -0.273 OA
HETATM   14  H   UNL     1      41.441 -18.942   1.501  1.00  0.00     0.169 HD
BRANCH  12  15
HETATM   15  C   UNL     1      43.743 -19.716   2.226  1.00  0.00     0.087 A 
HETATM   16  C   UNL     1      43.794 -20.035   3.710  1.00  0.00     0.032 A 
HETATM   17  C   UNL     1      45.044 -20.121   2.862  1.00  0.00     0.025 A 
BRANCH  16  18
HETATM   18  C   UNL     1      43.696 -18.977   4.783  1.00  0.00    -0.051 A 
HETATM   19  C   UNL     1      42.476 -18.339   5.067  1.00  0.00     0.031 A 
HETATM   20  C   UNL     1      42.387 -17.345   6.043  1.00  0.00     0.034 A 
HETATM   21  C   UNL     1      43.515 -16.954   6.756  1.00  0.00     0.024 A 
HETATM   22 CL   UNL     1      40.870 -16.597   6.362  1.00  0.00    -0.084 Cl
HETATM   23  C   UNL     1      44.739 -17.561   6.485  1.00  0.00     0.002 A 
HETATM   24  C   UNL     1      44.826 -18.553   5.505  1.00  0.00     0.007 A 
ENDBRANCH  16  18
ENDBRANCH  12  15
ENDBRANCH   1  11
BRANCH   8  25
HETATM   25  C   UNL     1      41.392 -14.426  -2.916  1.00  0.00     0.270 C 
HETATM   26  N   UNL     1      42.623 -13.848  -3.066  1.00  0.00    -0.365 N 
HETATM   27  H   UNL     1      43.032 -13.365  -2.276  1.00  0.00     0.159 HD
HETATM   28  H   UNL     1      43.108 -13.929  -3.946  1.00  0.00     0.159 HD
HETATM   29  O   UNL     1      40.862 -15.036  -3.837  1.00  0.00    -0.266 OA
ENDBRANCH   8  25
TORSDOF 4
ENDMDL
MODEL 2
REMARK VINA RESULT:      -8.2      3.020      7.205
REMARK  4 active torsions:
REMARK  status: ('A' for Active; 'I' for Inactive)
REMARK    1  A    between atoms: C_6  and  C_7 
REMARK    2  A    between atoms: C_8  and  C_9 
REMARK       I    between atoms: C_9  and  N_10 
REMARK    3  A    between atoms: N_10  and  C_11 
REMARK    4  A    between atoms: C_18  and  C_19 
REMARK       I    between atoms: C_19  and  N_20 
ROOT
HETATM    1  C   UNL     1      43.496 -18.419   2.215  1.00  0.00     0.035 A 
HETATM    2  C   UNL     1      43.702 -18.379   3.601  1.00  0.00     0.046 A 
HETATM    3  C   UNL     1      44.114 -19.548   4.279  1.00  0.00     0.030 A 
HETATM    4  C   UNL     1      44.299 -20.715   3.550  1.00  0.00     0.063 A 
HETATM    5  N   UNL     1      44.686 -21.655   4.463  1.00  0.00    -0.277 N 
HETATM    6  H   UNL     1      44.908 -22.628   4.286  1.00  0.00     0.189 HD
HETATM    7  N   UNL     1      44.782 -21.202   5.724  1.00  0.00    -0.168 NA
HETATM    8  C   UNL     1      44.432 -19.899   5.627  1.00  0.00     0.156 A 
HETATM    9  C   UNL     1      44.101 -20.793   2.171  1.00  0.00     0.034 A 
HETATM   10  C   UNL     1      43.701 -19.618   1.520  1.00  0.00     0.032 A 
ENDROOT
BRANCH   1  11
HETATM   11  N   UNL     1      43.115 -17.297   1.447  1.00  0.00    -0.327 N 
HETATM   12  C   UNL     1      41.852 -16.978   0.998  1.00  0.00     0.227 C 
HETATM   13  O   UNL     1      40.846 -17.665   1.101  1.00  0.00    -0.273 OA
HETATM   14  H   UNL     1      43.867 -16.699   1.141  1.00  0.00     0.169 HD
BRANCH  12  15
HETATM   15  C   UNL     1      41.708 -15.661   0.309  1.00  0.00     0.087 A 
HETATM   16  C   UNL     1      41.659 -14.352   1.078  1.00  0.00     0.032 A 
HETATM   17  C   UNL     1      40.473 -14.805   0.256  1.00  0.00     0.025 A 
BRANCH  16  18
HETATM   18  C   UNL     1      41.538 -14.285   2.582  1.00  0.00    -0.051 A 
HETATM   19  C   UNL     1      42.678 -14.192   3.400  1.00  0.00     0.031 A 
HETATM   20  C   UNL     1      42.570 -14.152   4.791  1.00  0.00     0.034 A 
HETATM   21  C   UNL     1      41.323 -14.212   5.404  1.00  0.00     0.024 A 
HETATM   22 CL   UNL     1      43.992 -14.030   5.753  1.00  0.00    -0.084 Cl
HETATM   23  C   UNL     1      40.179 -14.319   4.617  1.00  0.00     0.002 A 
HETATM   24  C   UNL     1      40.290 -14.362   3.224  1.00  0.00     0.007 A 
ENDBRANCH  16  18
ENDBRANCH  12  15
ENDBRANCH   1  11
BRANCH   8  25
HETATM   25  C   UNL     1      44.420 -19.026   6.809  1.00  0.00     0.270 C 
HETATM   26  N   UNL     1      43.694 -19.520   7.859  1.00  0.00    -0.365 N 
HETATM   27  H   UNL     1      43.244 -20.421   7.756  1.00  0.00     0.159 HD
HETATM   28  H   UNL     1      43.638 -18.995   8.717  1.00  0.00     0.159 HD
HETATM   29  O   UNL     1      44.997 -17.948   6.890  1.00  0.00    -0.266 OA
ENDBRANCH   8  25
TORSDOF 4
ENDMDL
MODEL 3
REMARK VINA RESULT:      -8.0      2.675      3.890
REMARK  4 active torsions:
REMARK  status: ('A' for Active; 'I' for Inactive)
REMARK    1  A    between atoms: C_6  and  C_7 
REMARK    2  A    between atoms: C_8  and  C_9 
REMARK       I    between atoms: C_9  and  N_10 
REMARK    3  A    between atoms: N_10  and  C_11 
REMARK    4  A    between atoms: C_18  and  C_19 
REMARK       I    between atoms: C_19  and  N_20 
ROOT
HETATM    1  C   UNL     1      42.789 -16.104   3.119  1.00  0.00     0.035 A 
HETATM    2  C   UNL     1      42.500 -14.975   2.339  1.00  0.00     0.046 A 
HETATM    3  C   UNL     1      41.925 -15.140   1.059  1.00  0.00     0.030 A 
HETATM    4  C   UNL     1      41.665 -16.425   0.601  1.00  0.00     0.063 A 
HETATM    5  N   UNL     1      41.123 -16.265  -0.643  1.00  0.00    -0.277 N 
HETATM    6  H   UNL     1      40.812 -16.992  -1.275  1.00  0.00     0.189 HD
HETATM    7  N   UNL     1      40.995 -14.986  -1.034  1.00  0.00    -0.168 NA
HETATM    8  C   UNL     1      41.485 -14.277   0.009  1.00  0.00     0.156 A 
HETATM    9  C   UNL     1      41.942 -17.571   1.349  1.00  0.00     0.034 A 
HETATM   10  C   UNL     1      42.504 -17.381   2.617  1.00  0.00     0.032 A 
ENDROOT
BRANCH   1  11
HETATM   11  N   UNL     1      43.334 -16.039   4.419  1.00  0.00    -0.327 N 
HETATM   12  C   UNL     1      42.732 -16.414   5.600  1.00  0.00     0.227 C 
HETATM   13  O   UNL     1      41.573 -16.778   5.745  1.00  0.00    -0.273 OA
HETATM   14  H   UNL     1      44.244 -15.610   4.493  1.00  0.00     0.169 HD
BRANCH  12  15
HETATM   15  C   UNL     1      43.584 -16.357   6.825  1.00  0.00     0.087 A 
HETATM   16  C   UNL     1      44.459 -17.523   7.251  1.00  0.00     0.032 A 
HETATM   17  C   UNL     1      43.324 -17.050   8.133  1.00  0.00     0.025 A 
BRANCH  16  18
HETATM   18  C   UNL     1      44.381 -18.888   6.609  1.00  0.00    -0.051 A 
HETATM   19  C   UNL     1      44.780 -19.088   5.276  1.00  0.00     0.031 A 
HETATM   20  C   UNL     1      44.688 -20.344   4.673  1.00  0.00     0.034 A 
HETATM   21  C   UNL     1      44.188 -21.432   5.381  1.00  0.00     0.024 A 
HETATM   22 CL   UNL     1      45.196 -20.545   3.041  1.00  0.00    -0.084 Cl
HETATM   23  C   UNL     1      43.773 -21.256   6.698  1.00  0.00     0.002 A 
HETATM   24  C   UNL     1      43.863 -19.997   7.299  1.00  0.00     0.007 A 
ENDBRANCH  16  18
ENDBRANCH  12  15
ENDBRANCH   1  11
BRANCH   8  25
HETATM   25  C   UNL     1      41.514 -12.808  -0.018  1.00  0.00     0.270 C 
HETATM   26  N   UNL     1      40.299 -12.231  -0.271  1.00  0.00    -0.365 N 
HETATM   27  H   UNL     1      39.495 -12.832  -0.406  1.00  0.00     0.159 HD
HETATM   28  H   UNL     1      40.220 -11.227  -0.297  1.00  0.00     0.159 HD
HETATM   29  O   UNL     1      42.514 -12.124   0.168  1.00  0.00    -0.266 OA
ENDBRANCH   8  25
TORSDOF 4
ENDMDL
MODEL 4
REMARK VINA RESULT:      -7.9      3.282      7.213
REMARK  4 active torsions:
REMARK  status: ('A' for Active; 'I' for Inactive)
REMARK    1  A    between atoms: C_6  and  C_7 
REMARK    2  A    between atoms: C_8  and  C_9 
REMARK       I    between atoms: C_9  and  N_10 
REMARK    3  A    between atoms: N_10  and  C_11 
REMARK    4  A    between atoms: C_18  and  C_19 
REMARK       I    between atoms: C_19  and  N_20 
ROOT
HETATM    1  C   UNL     1      43.302 -17.805   2.582  1.00  0.00     0.035 A 
HETATM    2  C   UNL     1      43.034 -17.590   3.942  1.00  0.00     0.046 A 
HETATM    3  C   UNL     1      43.457 -18.544   4.895  1.00  0.00     0.030 A 
HETATM    4  C   UNL     1      44.124 -19.680   4.456  1.00  0.00     0.063 A 
HETATM    5  N   UNL     1      44.397 -20.400   5.585  1.00  0.00    -0.277 N 
HETATM    6  H   UNL     1      44.876 -21.291   5.644  1.00  0.00     0.189 HD
HETATM    7  N   UNL     1      43.976 -19.829   6.726  1.00  0.00    -0.168 NA
HETATM    8  C   UNL     1      43.393 -18.679   6.316  1.00  0.00     0.156 A 
HETATM    9  C   UNL     1      44.405 -19.928   3.111  1.00  0.00     0.034 A 
HETATM   10  C   UNL     1      43.984 -18.964   2.187  1.00  0.00     0.032 A 
ENDROOT
BRANCH   1  11
HETATM   11  N   UNL     1      42.948 -16.896   1.562  1.00  0.00    -0.327 N 
HETATM   12  C   UNL     1      41.680 -16.558   1.143  1.00  0.00     0.227 C 
HETATM   13  O   UNL     1      40.630 -17.061   1.516  1.00  0.00    -0.273 OA
HETATM   14  H   UNL     1      43.715 -16.501   1.040  1.00  0.00     0.169 HD
BRANCH  12  15
HETATM   15  C   UNL     1      41.588 -15.470   0.124  1.00  0.00     0.087 A 
HETATM   16  C   UNL     1      41.645 -14.002   0.507  1.00  0.00     0.032 A 
HETATM   17  C   UNL     1      40.404 -14.581  -0.136  1.00  0.00     0.025 A 
BRANCH  16  18
HETATM   18  C   UNL     1      41.585 -13.521   1.938  1.00  0.00    -0.051 A 
HETATM   19  C   UNL     1      40.398 -12.999   2.480  1.00  0.00     0.031 A 
HETATM   20  C   UNL     1      40.346 -12.533   3.795  1.00  0.00     0.034 A 
HETATM   21  C   UNL     1      41.479 -12.568   4.602  1.00  0.00     0.024 A 
HETATM   22 CL   UNL     1      38.869 -11.909   4.420  1.00  0.00    -0.084 Cl
HETATM   23  C   UNL     1      42.671 -13.068   4.084  1.00  0.00     0.002 A 
HETATM   24  C   UNL     1      42.722 -13.530   2.765  1.00  0.00     0.007 A 
ENDBRANCH  16  18
ENDBRANCH  12  15
ENDBRANCH   1  11
BRANCH   8  25
HETATM   25  C   UNL     1      42.804 -17.740   7.281  1.00  0.00     0.270 C 
HETATM   26  N   UNL     1      43.465 -17.683   8.478  1.00  0.00    -0.365 N 
HETATM   27  H   UNL     1      44.287 -18.261   8.606  1.00  0.00     0.159 HD
HETATM   28  H   UNL     1      43.139 -17.058   9.198  1.00  0.00     0.159 HD
HETATM   29  O   UNL     1      41.814 -17.049   7.071  1.00  0.00    -0.266 OA
ENDBRANCH   8  25
TORSDOF 4
ENDMDL
MODEL 5
REMARK VINA RESULT:      -7.9      3.503      7.971
REMARK  4 active torsions:
REMARK  status: ('A' for Active; 'I' for Inactive)
REMARK    1  A    between atoms: C_6  and  C_7 
REMARK    2  A    between atoms: C_8  and  C_9 
REMARK       I    between atoms: C_9  and  N_10 
REMARK    3  A    between atoms: N_10  and  C_11 
REMARK    4  A    between atoms: C_18  and  C_19 
REMARK       I    between atoms: C_19  and  N_20 
ROOT
HETATM    1  C   UNL     1      41.756 -17.464   3.114  1.00  0.00     0.035 A 
HETATM    2  C   UNL     1      42.275 -18.061   4.272  1.00  0.00     0.046 A 
HETATM    3  C   UNL     1      43.332 -18.992   4.163  1.00  0.00     0.030 A 
HETATM    4  C   UNL     1      43.827 -19.299   2.903  1.00  0.00     0.063 A 
HETATM    5  N   UNL     1      44.822 -20.212   3.115  1.00  0.00    -0.277 N 
HETATM    6  H   UNL     1      45.404 -20.659   2.417  1.00  0.00     0.189 HD
HETATM    7  N   UNL     1      45.028 -20.521   4.406  1.00  0.00    -0.168 NA
HETATM    8  C   UNL     1      44.115 -19.773   5.068  1.00  0.00     0.156 A 
HETATM    9  C   UNL     1      43.333 -18.727   1.729  1.00  0.00     0.034 A 
HETATM   10  C   UNL     1      42.291 -17.801   1.864  1.00  0.00     0.032 A 
ENDROOT
BRANCH   1  11
HETATM   11  N   UNL     1      40.723 -16.501   3.125  1.00  0.00    -0.327 N 
HETATM   12  C   UNL     1      40.850 -15.138   3.278  1.00  0.00     0.227 C 
HETATM   13  O   UNL     1      41.877 -14.525   3.534  1.00  0.00    -0.273 OA
HETATM   14  H   UNL     1      39.784 -16.865   3.079  1.00  0.00     0.169 HD
BRANCH  12  15
HETATM   15  C   UNL     1      39.600 -14.336   3.124  1.00  0.00     0.087 A 
HETATM   16  C   UNL     1      39.235 -13.659   1.815  1.00  0.00     0.032 A 
HETATM   17  C   UNL     1      39.496 -12.838   3.059  1.00  0.00     0.025 A 
BRANCH  16  18
HETATM   18  C   UNL     1      40.186 -13.560   0.646  1.00  0.00    -0.051 A 
HETATM   19  C   UNL     1      40.192 -14.531  -0.371  1.00  0.00     0.031 A 
HETATM   20  C   UNL     1      41.085 -14.453  -1.440  1.00  0.00     0.034 A 
HETATM   21  C   UNL     1      42.003 -13.411  -1.520  1.00  0.00     0.024 A 
HETATM   22 CL   UNL     1      41.051 -15.660  -2.668  1.00  0.00    -0.084 Cl
HETATM   23  C   UNL     1      42.027 -12.445  -0.518  1.00  0.00     0.002 A 
HETATM   24  C   UNL     1      41.134 -12.526   0.554  1.00  0.00     0.007 A 
ENDBRANCH  16  18
ENDBRANCH  12  15
ENDBRANCH   1  11
BRANCH   8  25
HETATM   25  C   UNL     1      44.018 -19.814   6.534  1.00  0.00     0.270 C 
HETATM   26  N   UNL     1      43.657 -21.035   7.034  1.00  0.00    -0.365 N 
HETATM   27  H   UNL     1      43.498 -21.797   6.387  1.00  0.00     0.159 HD
HETATM   28  H   UNL     1      43.577 -21.161   8.031  1.00  0.00     0.159 HD
HETATM   29  O   UNL     1      44.238 -18.864   7.277  1.00  0.00    -0.266 OA
ENDBRANCH   8  25
TORSDOF 4
ENDMDL
MODEL 6
REMARK VINA RESULT:      -7.8      2.728      4.109
REMARK  4 active torsions:
REMARK  status: ('A' for Active; 'I' for Inactive)
REMARK    1  A    between atoms: C_6  and  C_7 
REMARK    2  A    between atoms: C_8  and  C_9 
REMARK       I    between atoms: C_9  and  N_10 
REMARK    3  A    between atoms: N_10  and  C_11 
REMARK    4  A    between atoms: C_18  and  C_19 
REMARK       I    between atoms: C_19  and  N_20 
ROOT
HETATM    1  C   UNL     1      41.829 -15.008   4.750  1.00  0.00     0.035 A 
HETATM    2  C   UNL     1      41.735 -15.261   3.374  1.00  0.00     0.046 A 
HETATM    3  C   UNL     1      40.718 -14.635   2.618  1.00  0.00     0.030 A 
HETATM    4  C   UNL     1      39.830 -13.785   3.263  1.00  0.00     0.063 A 
HETATM    5  N   UNL     1      38.978 -13.343   2.290  1.00  0.00    -0.277 N 
HETATM    6  H   UNL     1      38.198 -12.706   2.401  1.00  0.00     0.189 HD
HETATM    7  N   UNL     1      39.239 -13.821   1.062  1.00  0.00    -0.168 NA
HETATM    8  C   UNL     1      40.314 -14.621   1.248  1.00  0.00     0.156 A 
HETATM    9  C   UNL     1      39.893 -13.512   4.631  1.00  0.00     0.034 A 
HETATM   10  C   UNL     1      40.914 -14.138   5.357  1.00  0.00     0.032 A 
ENDROOT
BRANCH   1  11
HETATM   11  N   UNL     1      42.828 -15.561   5.580  1.00  0.00    -0.327 N 
HETATM   12  C   UNL     1      42.740 -16.697   6.355  1.00  0.00     0.227 C 
HETATM   13  O   UNL     1      41.741 -17.378   6.539  1.00  0.00    -0.273 OA
HETATM   14  H   UNL     1      43.678 -15.024   5.662  1.00  0.00     0.169 HD
BRANCH  12  15
HETATM   15  C   UNL     1      43.994 -17.127   7.043  1.00  0.00     0.087 A 
HETATM   16  C   UNL     1      44.961 -18.110   6.409  1.00  0.00     0.032 A 
HETATM   17  C   UNL     1      44.248 -18.456   7.697  1.00  0.00     0.025 A 
BRANCH  16  18
HETATM   18  C   UNL     1      44.643 -18.885   5.152  1.00  0.00    -0.051 A 
HETATM   19  C   UNL     1      44.784 -20.283   5.104  1.00  0.00     0.031 A 
HETATM   20  C   UNL     1      44.512 -20.999   3.938  1.00  0.00     0.034 A 
HETATM   21  C   UNL     1      44.100 -20.339   2.784  1.00  0.00     0.024 A 
HETATM   22 CL   UNL     1      44.690 -22.711   3.927  1.00  0.00    -0.084 Cl
HETATM   23  C   UNL     1      43.967 -18.954   2.801  1.00  0.00     0.002 A 
HETATM   24  C   UNL     1      44.243 -18.238   3.970  1.00  0.00     0.007 A 
ENDBRANCH  16  18
ENDBRANCH  12  15
ENDBRANCH   1  11
BRANCH   8  25
HETATM   25  C   UNL     1      40.929 -15.339   0.122  1.00  0.00     0.270 C 
HETATM   26  N   UNL     1      40.956 -16.698   0.276  1.00  0.00    -0.365 N 
HETATM   27  H   UNL     1      40.556 -17.100   1.115  1.00  0.00     0.159 HD
HETATM   28  H   UNL     1      41.349 -17.274  -0.451  1.00  0.00     0.159 HD
HETATM   29  O   UNL     1      41.385 -14.806  -0.883  1.00  0.00    -0.266 OA
ENDBRANCH   8  25
TORSDOF 4
ENDMDL
MODEL 7
REMARK VINA RESULT:      -7.8      1.926      3.282
REMARK  4 active torsions:
REMARK  status: ('A' for Active; 'I' for Inactive)
REMARK    1  A    between atoms: C_6  and  C_7 
REMARK    2  A    between atoms: C_8  and  C_9 
REMARK       I    between atoms: C_9  and  N_10 
REMARK    3  A    between atoms: N_10  and  C_11 
REMARK    4  A    between atoms: C_18  and  C_19 
REMARK       I    between atoms: C_19  and  N_20 
ROOT
HETATM    1  C   UNL     1      41.554 -16.785   1.512  1.00  0.00     0.035 A 
HETATM    2  C   UNL     1      41.149 -15.907   2.528  1.00  0.00     0.046 A 
HETATM    3  C   UNL     1      40.594 -14.653   2.186  1.00  0.00     0.030 A 
HETATM    4  C   UNL     1      40.470 -14.319   0.844  1.00  0.00     0.063 A 
HETATM    5  N   UNL     1      39.914 -13.070   0.831  1.00  0.00    -0.277 N 
HETATM    6  H   UNL     1      39.681 -12.510   0.019  1.00  0.00     0.189 HD
HETATM    7  N   UNL     1      39.653 -12.563   2.048  1.00  0.00    -0.168 NA
HETATM    8  C   UNL     1      40.067 -13.532   2.897  1.00  0.00     0.156 A 
HETATM    9  C   UNL     1      40.864 -15.166  -0.193  1.00  0.00     0.034 A 
HETATM   10  C   UNL     1      41.404 -16.406   0.171  1.00  0.00     0.032 A 
ENDROOT
BRANCH   1  11
HETATM   11  N   UNL     1      42.089 -18.068   1.754  1.00  0.00    -0.327 N 
HETATM   12  C   UNL     1      43.418 -18.431   1.783  1.00  0.00     0.227 C 
HETATM   13  O   UNL     1      44.374 -17.721   1.505  1.00  0.00    -0.273 OA
HETATM   14  H   UNL     1      41.416 -18.813   1.852  1.00  0.00     0.169 HD
BRANCH  12  15
HETATM   15  C   UNL     1      43.711 -19.838   2.188  1.00  0.00     0.087 A 
HETATM   16  C   UNL     1      43.845 -20.244   3.645  1.00  0.00     0.032 A 
HETATM   17  C   UNL     1      45.020 -20.371   2.700  1.00  0.00     0.025 A 
BRANCH  16  18
HETATM   18  C   UNL     1      43.906 -19.245   4.776  1.00  0.00    -0.051 A 
HETATM   19  C   UNL     1      42.760 -18.543   5.189  1.00  0.00     0.031 A 
HETATM   20  C   UNL     1      42.818 -17.603   6.219  1.00  0.00     0.034 A 
HETATM   21  C   UNL     1      44.022 -17.331   6.859  1.00  0.00     0.024 A 
HETATM   22 CL   UNL     1      41.387 -16.774   6.698  1.00  0.00    -0.084 Cl
HETATM   23  C   UNL     1      45.175 -18.002   6.459  1.00  0.00     0.002 A 
HETATM   24  C   UNL     1      45.115 -18.940   5.425  1.00  0.00     0.007 A 
ENDBRANCH  16  18
ENDBRANCH  12  15
ENDBRANCH   1  11
BRANCH   8  25
HETATM   25  C   UNL     1      39.942 -13.369   4.353  1.00  0.00     0.270 C 
HETATM   26  N   UNL     1      40.282 -12.123   4.805  1.00  0.00    -0.365 N 
HETATM   27  H   UNL     1      40.573 -11.425   4.132  1.00  0.00     0.159 HD
HETATM   28  H   UNL     1      40.216 -11.915   5.789  1.00  0.00     0.159 HD
HETATM   29  O   UNL     1      39.568 -14.243   5.125  1.00  0.00    -0.266 OA
ENDBRANCH   8  25
TORSDOF 4
ENDMDL
MODEL 8
REMARK VINA RESULT:      -7.8      2.216      2.769
REMARK  4 active torsions:
REMARK  status: ('A' for Active; 'I' for Inactive)
REMARK    1  A    between atoms: C_6  and  C_7 
REMARK    2  A    between atoms: C_8  and  C_9 
REMARK       I    between atoms: C_9  and  N_10 
REMARK    3  A    between atoms: N_10  and  C_11 
REMARK    4  A    between atoms: C_18  and  C_19 
REMARK       I    between atoms: C_19  and  N_20 
ROOT
HETATM    1  C   UNL     1      41.587 -15.408  -0.302  1.00  0.00     0.035 A 
HETATM    2  C   UNL     1      40.699 -15.679  -1.353  1.00  0.00     0.046 A 
HETATM    3  C   UNL     1      40.058 -14.609  -2.017  1.00  0.00     0.030 A 
HETATM    4  C   UNL     1      40.320 -13.310  -1.603  1.00  0.00     0.063 A 
HETATM    5  N   UNL     1      39.567 -12.510  -2.416  1.00  0.00    -0.277 N 
HETATM    6  H   UNL     1      39.508 -11.499  -2.399  1.00  0.00     0.189 HD
HETATM    7  N   UNL     1      38.842 -13.173  -3.333  1.00  0.00    -0.168 NA
HETATM    8  C   UNL     1      39.136 -14.473  -3.100  1.00  0.00     0.156 A 
HETATM    9  C   UNL     1      41.196 -13.004  -0.560  1.00  0.00     0.034 A 
HETATM   10  C   UNL     1      41.826 -14.081   0.076  1.00  0.00     0.032 A 
ENDROOT
BRANCH   1  11
HETATM   11  N   UNL     1      42.298 -16.407   0.398  1.00  0.00    -0.327 N 
HETATM   12  C   UNL     1      41.775 -17.448   1.134  1.00  0.00     0.227 C 
HETATM   13  O   UNL     1      40.596 -17.637   1.394  1.00  0.00    -0.273 OA
HETATM   14  H   UNL     1      43.301 -16.304   0.412  1.00  0.00     0.169 HD
BRANCH  12  15
HETATM   15  C   UNL     1      42.757 -18.437   1.671  1.00  0.00     0.087 A 
HETATM   16  C   UNL     1      43.053 -18.551   3.155  1.00  0.00     0.032 A 
HETATM   17  C   UNL     1      44.139 -18.142   2.185  1.00  0.00     0.025 A 
BRANCH  16  18
HETATM   18  C   UNL     1      42.553 -17.554   4.174  1.00  0.00    -0.051 A 
HETATM   19  C   UNL     1      43.233 -16.345   4.402  1.00  0.00     0.031 A 
HETATM   20  C   UNL     1      42.785 -15.432   5.358  1.00  0.00     0.034 A 
HETATM   21  C   UNL     1      41.653 -15.704   6.119  1.00  0.00     0.024 A 
HETATM   22 CL   UNL     1      43.644 -13.959   5.598  1.00  0.00    -0.084 Cl
HETATM   23  C   UNL     1      40.970 -16.901   5.922  1.00  0.00     0.002 A 
HETATM   24  C   UNL     1      41.422 -17.816   4.967  1.00  0.00     0.007 A 
ENDBRANCH  16  18
ENDBRANCH  12  15
ENDBRANCH   1  11
BRANCH   8  25
HETATM   25  C   UNL     1      38.544 -15.543  -3.915  1.00  0.00     0.270 C 
HETATM   26  N   UNL     1      39.158 -16.758  -3.772  1.00  0.00    -0.365 N 
HETATM   27  H   UNL     1      39.939 -16.834  -3.132  1.00  0.00     0.159 HD
HETATM   28  H   UNL     1      38.812 -17.554  -4.283  1.00  0.00     0.159 HD
HETATM   29  O   UNL     1      37.584 -15.403  -4.665  1.00  0.00    -0.266 OA
ENDBRANCH   8  25
TORSDOF 4
ENDMDL
MODEL 9
REMARK VINA RESULT:      -7.6      3.471      4.948
REMARK  4 active torsions:
REMARK  status: ('A' for Active; 'I' for Inactive)
REMARK    1  A    between atoms: C_6  and  C_7 
REMARK    2  A    between atoms: C_8  and  C_9 
REMARK       I    between atoms: C_9  and  N_10 
REMARK    3  A    between atoms: N_10  and  C_11 
REMARK    4  A    between atoms: C_18  and  C_19 
REMARK       I    between atoms: C_19  and  N_20 
ROOT
HETATM    1  C   UNL     1      39.994 -14.364   2.145  1.00  0.00     0.035 A 
HETATM    2  C   UNL     1      39.956 -14.034   3.508  1.00  0.00     0.046 A 
HETATM    3  C   UNL     1      39.302 -12.851   3.921  1.00  0.00     0.030 A 
HETATM    4  C   UNL     1      38.716 -12.039   2.960  1.00  0.00     0.063 A 
HETATM    5  N   UNL     1      38.176 -10.991   3.650  1.00  0.00    -0.277 N 
HETATM    6  H   UNL     1      37.669 -10.200   3.269  1.00  0.00     0.189 HD
HETATM    7  N   UNL     1      38.347 -11.053   4.981  1.00  0.00    -0.168 NA
HETATM    8  C   UNL     1      39.041 -12.199   5.165  1.00  0.00     0.156 A 
HETATM    9  C   UNL     1      38.737 -12.334   1.595  1.00  0.00     0.034 A 
HETATM   10  C   UNL     1      39.383 -13.516   1.212  1.00  0.00     0.032 A 
ENDROOT
BRANCH   1  11
HETATM   11  N   UNL     1      40.594 -15.537   1.640  1.00  0.00    -0.327 N 
HETATM   12  C   UNL     1      41.940 -15.801   1.510  1.00  0.00     0.227 C 
HETATM   13  O   UNL     1      42.859 -15.021   1.716  1.00  0.00    -0.273 OA
HETATM   14  H   UNL     1      39.962 -16.233   1.277  1.00  0.00     0.169 HD
BRANCH  12  15
HETATM   15  C   UNL     1      42.305 -17.178   1.061  1.00  0.00     0.087 A 
HETATM   16  C   UNL     1      42.582 -18.298   2.048  1.00  0.00     0.032 A 
HETATM   17  C   UNL     1      43.668 -17.808   1.115  1.00  0.00     0.025 A 
BRANCH  16  18
HETATM   18  C   UNL     1      42.721 -18.070   3.534  1.00  0.00    -0.051 A 
HETATM   19  C   UNL     1      41.607 -17.747   4.328  1.00  0.00     0.031 A 
HETATM   20  C   UNL     1      41.737 -17.514   5.698  1.00  0.00     0.034 A 
HETATM   21  C   UNL     1      42.982 -17.588   6.312  1.00  0.00     0.024 A 
HETATM   22 CL   UNL     1      40.343 -17.131   6.633  1.00  0.00    -0.084 Cl
HETATM   23  C   UNL     1      44.104 -17.893   5.545  1.00  0.00     0.002 A 
HETATM   24  C   UNL     1      43.973 -18.122   4.173  1.00  0.00     0.007 A 
ENDBRANCH  16  18
ENDBRANCH  12  15
ENDBRANCH   1  11
BRANCH   8  25
HETATM   25  C   UNL     1      39.427 -12.646   6.511  1.00  0.00     0.270 C 
HETATM   26  N   UNL     1      40.127 -13.822   6.529  1.00  0.00    -0.365 N 
HETATM   27  H   UNL     1      40.331 -14.279   5.649  1.00  0.00     0.159 HD
HETATM   28  H   UNL     1      40.444 -14.200   7.408  1.00  0.00     0.159 HD
HETATM   29  O   UNL     1      39.170 -12.046   7.548  1.00  0.00    -0.266 OA
ENDBRANCH   8  25
TORSDOF 4
ENDMDL
MODEL 10
REMARK VINA RESULT:      -7.6      4.542      6.334
REMARK  4 active torsions:
REMARK  status: ('A' for Active; 'I' for Inactive)
REMARK    1  A    between atoms: C_6  and  C_7 
REMARK    2  A    between atoms: C_8  and  C_9 
REMARK       I    between atoms: C_9  and  N_10 
REMARK    3  A    between atoms: N_10  and  C_11 
REMARK    4  A    between atoms: C_18  and  C_19 
REMARK       I    between atoms: C_19  and  N_20 
ROOT
HETATM    1  C   UNL     1      43.316 -14.647   5.441  1.00  0.00     0.035 A 
HETATM    2  C   UNL     1      42.848 -13.570   6.207  1.00  0.00     0.046 A 
HETATM    3  C   UNL     1      42.219 -12.479   5.566  1.00  0.00     0.030 A 
HETATM    4  C   UNL     1      42.086 -12.500   4.185  1.00  0.00     0.063 A 
HETATM    5  N   UNL     1      41.453 -11.333   3.863  1.00  0.00    -0.277 N 
HETATM    6  H   UNL     1      41.193 -11.010   2.938  1.00  0.00     0.189 HD
HETATM    7  N   UNL     1      41.151 -10.554   4.915  1.00  0.00    -0.168 NA
HETATM    8  C   UNL     1      41.617 -11.251   5.977  1.00  0.00     0.156 A 
HETATM    9  C   UNL     1      42.541 -13.554   3.390  1.00  0.00     0.034 A 
HETATM   10  C   UNL     1      43.154 -14.627   4.050  1.00  0.00     0.032 A 
ENDROOT
BRANCH   1  11
HETATM   11  N   UNL     1      43.928 -15.794   5.993  1.00  0.00    -0.327 N 
HETATM   12  C   UNL     1      43.318 -16.968   6.375  1.00  0.00     0.227 C 
HETATM   13  O   UNL     1      42.116 -17.192   6.396  1.00  0.00    -0.273 OA
HETATM   14  H   UNL     1      44.914 -15.714   6.187  1.00  0.00     0.169 HD
BRANCH  12  15
HETATM   15  C   UNL     1      44.223 -18.072   6.814  1.00  0.00     0.087 A 
HETATM   16  C   UNL     1      44.810 -19.070   5.831  1.00  0.00     0.032 A 
HETATM   17  C   UNL     1      43.873 -19.529   6.927  1.00  0.00     0.025 A 
BRANCH  16  18
HETATM   18  C   UNL     1      44.369 -19.162   4.389  1.00  0.00    -0.051 A 
HETATM   19  C   UNL     1      44.362 -20.392   3.709  1.00  0.00     0.031 A 
HETATM   20  C   UNL     1      43.976 -20.477   2.370  1.00  0.00     0.034 A 
HETATM   21  C   UNL     1      43.596 -19.336   1.672  1.00  0.00     0.024 A 
HETATM   22 CL   UNL     1      43.974 -22.006   1.579  1.00  0.00    -0.084 Cl
HETATM   23  C   UNL     1      43.608 -18.104   2.319  1.00  0.00     0.002 A 
HETATM   24  C   UNL     1      43.998 -18.020   3.659  1.00  0.00     0.007 A 
ENDBRANCH  16  18
ENDBRANCH  12  15
ENDBRANCH   1  11
BRANCH   8  25
HETATM   25  C   UNL     1      41.470 -10.736   7.346  1.00  0.00     0.270 C 
HETATM   26  N   UNL     1      40.455 -11.319   8.055  1.00  0.00    -0.365 N 
HETATM   27  H   UNL     1      39.904 -12.042   7.608  1.00  0.00     0.159 HD
HETATM   28  H   UNL     1      40.287 -11.038   9.008  1.00  0.00     0.159 HD
HETATM   29  O   UNL     1      42.176  -9.868   7.848  1.00  0.00    -0.266 OA
ENDBRANCH   8  25
TORSDOF 4
ENDMDL
