MODEL 1
REMARK VINA RESULT:      -7.5      0.000      0.000
REMARK  11 active torsions:
REMARK  status: ('A' for Active; 'I' for Inactive)
REMARK    1  A    between atoms: C_2  and  C_3 
REMARK    2  A    between atoms: C_3  and  N_4 
REMARK    3  A    between atoms: N_4  and  C_6 
REMARK    4  A    between atoms: N_4  and  C_30 
REMARK    5  A    between atoms: C_6  and  C_7 
REMARK    6  A    between atoms: N_8  and  C_9 
REMARK    7  A    between atoms: C_13  and  N_14 
REMARK    8  A    between atoms: C_17  and  C_18 
REMARK       I    between atoms: C_18  and  N_19 
REMARK    9  A    between atoms: N_19  and  N_20 
REMARK   10  A    between atoms: C_21  and  C_22 
REMARK   11  A    between atoms: C_30  and  C_31 
ROOT
HETATM    1  C   UNL     1      41.126 -10.765   8.583  1.00  0.00     0.096 A 
HETATM    2  N   UNL     1      40.083 -10.331   9.397  1.00  0.00    -0.215 N 
HETATM    3  N   UNL     1      38.912 -10.477   8.722  1.00  0.00     0.012 NA
HETATM    4  N   UNL     1      39.147 -11.056   7.557  1.00  0.00    -0.152 NA
HETATM    5  C   UNL     1      40.493 -11.243   7.441  1.00  0.00     0.170 A 
ENDROOT
BRANCH   5   6
HETATM    6  C   UNL     1      41.126 -11.885   6.297  1.00  0.00     0.293 C 
HETATM    7  N   UNL     1      41.058 -13.265   6.311  1.00  0.00    -0.242 N 
HETATM    8  H   UNL     1      40.580 -13.752   7.065  1.00  0.00     0.192 HD
HETATM    9  O   UNL     1      41.708 -11.207   5.454  1.00  0.00    -0.264 OA
BRANCH   7  10
HETATM   10  N   UNL     1      41.731 -13.966   5.358  1.00  0.00    -0.184 NA
HETATM   11  C   UNL     1      41.878 -15.234   5.572  1.00  0.00     0.150 C 
BRANCH  11  12
HETATM   12  C   UNL     1      42.611 -16.088   4.616  1.00  0.00    -0.016 A 
HETATM   13  C   UNL     1      43.097 -17.325   5.046  1.00  0.00     0.032 A 
HETATM   14  C   UNL     1      43.805 -18.125   4.149  1.00  0.00     0.011 A 
HETATM   15 BR   UNL     1      44.475 -19.799   4.720  1.00  0.00    -0.051 Br
HETATM   16  C   UNL     1      44.026 -17.705   2.837  1.00  0.00     0.019 A 
HETATM   17  C   UNL     1      43.537 -16.470   2.412  1.00  0.00     0.002 A 
HETATM   18  C   UNL     1      42.830 -15.660   3.301  1.00  0.00     0.013 A 
ENDBRANCH  11  12
ENDBRANCH   7  10
ENDBRANCH   5   6
BRANCH   1  19
HETATM   19  C   UNL     1      42.576 -10.631   8.878  1.00  0.00     0.296 C 
BRANCH  19  20
HETATM   20  N   UNL     1      43.277 -11.881   9.399  1.00  0.00    -0.066 N 
HETATM   21  H   UNL     1      42.590 -12.642   9.333  1.00  0.00     0.280 HD
BRANCH  20  22
HETATM   22  C   UNL     1      43.649 -11.698  10.869  1.00  0.00     0.235 C 
BRANCH  22  23
HETATM   23  C   UNL     1      43.953 -10.242  11.215  1.00  0.00     0.023 C 
HETATM   24  C   UNL     1      43.646  -9.888  12.662  1.00  0.00     0.007 C 
ENDBRANCH  22  23
ENDBRANCH  20  22
BRANCH  20  25
HETATM   25  C   UNL     1      44.499 -12.249   8.569  1.00  0.00     0.235 C 
BRANCH  25  26
HETATM   26  C   UNL     1      44.361 -13.600   7.865  1.00  0.00     0.023 C 
HETATM   27  C   UNL     1      45.375 -13.821   6.753  1.00  0.00     0.007 C 
ENDBRANCH  25  26
ENDBRANCH  20  25
ENDBRANCH  19  20
ENDBRANCH   1  19
BRANCH   2  28
HETATM   28  C   UNL     1      40.135  -9.864  10.731  1.00  0.00     0.225 A 
HETATM   29  N   UNL     1      40.267  -8.558  10.972  1.00  0.00    -0.081 NA
HETATM   30  O   UNL     1      40.296  -8.481  12.369  1.00  0.00    -0.103 OA
HETATM   31  N   UNL     1      40.211  -9.742  12.942  1.00  0.00    -0.083 NA
HETATM   32  C   UNL     1      40.114 -10.601  11.929  1.00  0.00     0.201 A 
BRANCH  32  33
HETATM   33  N   UNL     1      40.008 -11.930  12.064  1.00  0.00    -0.379 N 
HETATM   34  H   UNL     1      39.293 -12.332  12.666  1.00  0.00     0.158 HD
HETATM   35  H   UNL     1      40.684 -12.599  11.699  1.00  0.00     0.158 HD
ENDBRANCH  32  33
ENDBRANCH   2  28
TORSDOF 11
ENDMDL
MODEL 2
REMARK VINA RESULT:      -7.4      4.827     10.167
REMARK  11 active torsions:
REMARK  status: ('A' for Active; 'I' for Inactive)
REMARK    1  A    between atoms: C_2  and  C_3 
REMARK    2  A    between atoms: C_3  and  N_4 
REMARK    3  A    between atoms: N_4  and  C_6 
REMARK    4  A    between atoms: N_4  and  C_30 
REMARK    5  A    between atoms: C_6  and  C_7 
REMARK    6  A    between atoms: N_8  and  C_9 
REMARK    7  A    between atoms: C_13  and  N_14 
REMARK    8  A    between atoms: C_17  and  C_18 
REMARK       I    between atoms: C_18  and  N_19 
REMARK    9  A    between atoms: N_19  and  N_20 
REMARK   10  A    between atoms: C_21  and  C_22 
REMARK   11  A    between atoms: C_30  and  C_31 
ROOT
HETATM    1  C   UNL     1      43.591 -18.537   5.020  1.00  0.00     0.096 A 
HETATM    2  N   UNL     1      44.503 -19.476   4.549  1.00  0.00    -0.215 N 
HETATM    3  N   UNL     1      45.688 -19.296   5.192  1.00  0.00     0.012 NA
HETATM    4  N   UNL     1      45.551 -18.348   6.103  1.00  0.00    -0.152 NA
HETATM    5  C   UNL     1      44.280 -17.862   6.022  1.00  0.00     0.170 A 
ENDROOT
BRANCH   5   6
HETATM    6  C   UNL     1      43.751 -16.823   6.896  1.00  0.00     0.293 C 
HETATM    7  N   UNL     1      44.500 -15.663   6.916  1.00  0.00    -0.242 N 
HETATM    8  H   UNL     1      45.334 -15.575   6.340  1.00  0.00     0.192 HD
HETATM    9  O   UNL     1      42.752 -17.041   7.577  1.00  0.00    -0.264 OA
BRANCH   7  10
HETATM   10  N   UNL     1      44.167 -14.680   7.797  1.00  0.00    -0.184 NA
HETATM   11  C   UNL     1      44.860 -13.589   7.732  1.00  0.00     0.150 C 
BRANCH  11  12
HETATM   12  C   UNL     1      44.600 -12.465   8.654  1.00  0.00    -0.016 A 
HETATM   13  C   UNL     1      43.411 -11.745   8.528  1.00  0.00     0.032 A 
HETATM   14  C   UNL     1      43.172 -10.672   9.386  1.00  0.00     0.011 A 
HETATM   15 BR   UNL     1      41.568  -9.683   9.220  1.00  0.00    -0.051 Br
HETATM   16  C   UNL     1      44.102 -10.318  10.364  1.00  0.00     0.019 A 
HETATM   17  C   UNL     1      45.288 -11.042  10.487  1.00  0.00     0.002 A 
HETATM   18  C   UNL     1      45.539 -12.115   9.633  1.00  0.00     0.013 A 
ENDBRANCH  11  12
ENDBRANCH   7  10
ENDBRANCH   5   6
BRANCH   1  19
HETATM   19  C   UNL     1      42.232 -18.289   4.471  1.00  0.00     0.296 C 
BRANCH  19  20
HETATM   20  N   UNL     1      42.110 -17.156   3.457  1.00  0.00    -0.066 N 
HETATM   21  H   UNL     1      41.687 -17.569   2.617  1.00  0.00     0.280 HD
BRANCH  20  22
HETATM   22  C   UNL     1      43.497 -16.634   3.087  1.00  0.00     0.235 C 
BRANCH  22  23
HETATM   23  C   UNL     1      43.875 -16.961   1.643  1.00  0.00     0.023 C 
HETATM   24  C   UNL     1      42.678 -17.039   0.708  1.00  0.00     0.007 C 
ENDBRANCH  22  23
ENDBRANCH  20  22
BRANCH  20  25
HETATM   25  C   UNL     1      41.217 -16.028   3.954  1.00  0.00     0.235 C 
BRANCH  25  26
HETATM   26  C   UNL     1      41.999 -14.781   4.368  1.00  0.00     0.023 C 
HETATM   27  C   UNL     1      41.428 -14.072   5.586  1.00  0.00     0.007 C 
ENDBRANCH  25  26
ENDBRANCH  20  25
ENDBRANCH  19  20
ENDBRANCH   1  19
BRANCH   2  28
HETATM   28  C   UNL     1      44.302 -20.516   3.611  1.00  0.00     0.225 A 
HETATM   29  N   UNL     1      43.747 -20.243   2.428  1.00  0.00    -0.081 NA
HETATM   30  O   UNL     1      43.696 -21.489   1.792  1.00  0.00    -0.103 OA
HETATM   31  N   UNL     1      44.192 -22.490   2.614  1.00  0.00    -0.083 NA
HETATM   32  C   UNL     1      44.565 -21.890   3.742  1.00  0.00     0.201 A 
BRANCH  32  33
HETATM   33  N   UNL     1      45.103 -22.518   4.798  1.00  0.00    -0.379 N 
HETATM   34  H   UNL     1      45.320 -22.003   5.648  1.00  0.00     0.158 HD
HETATM   35  H   UNL     1      45.440 -23.479   4.782  1.00  0.00     0.158 HD
ENDBRANCH  32  33
ENDBRANCH   2  28
TORSDOF 11
ENDMDL
MODEL 3
REMARK VINA RESULT:      -7.1      6.060      8.717
REMARK  11 active torsions:
REMARK  status: ('A' for Active; 'I' for Inactive)
REMARK    1  A    between atoms: C_2  and  C_3 
REMARK    2  A    between atoms: C_3  and  N_4 
REMARK    3  A    between atoms: N_4  and  C_6 
REMARK    4  A    between atoms: N_4  and  C_30 
REMARK    5  A    between atoms: C_6  and  C_7 
REMARK    6  A    between atoms: N_8  and  C_9 
REMARK    7  A    between atoms: C_13  and  N_14 
REMARK    8  A    between atoms: C_17  and  C_18 
REMARK       I    between atoms: C_18  and  N_19 
REMARK    9  A    between atoms: N_19  and  N_20 
REMARK   10  A    between atoms: C_21  and  C_22 
REMARK   11  A    between atoms: C_30  and  C_31 
ROOT
HETATM    1  C   UNL     1      43.143 -16.287   4.823  1.00  0.00     0.096 A 
HETATM    2  N   UNL     1      43.817 -16.610   5.997  1.00  0.00    -0.215 N 
HETATM    3  N   UNL     1      44.325 -15.471   6.538  1.00  0.00     0.012 NA
HETATM    4  N   UNL     1      43.938 -14.433   5.814  1.00  0.00    -0.152 NA
HETATM    5  C   UNL     1      43.215 -14.901   4.757  1.00  0.00     0.170 A 
ENDROOT
BRANCH   5   6
HETATM    6  C   UNL     1      42.596 -14.042   3.756  1.00  0.00     0.293 C 
HETATM    7  N   UNL     1      41.223 -13.944   3.862  1.00  0.00    -0.242 N 
HETATM    8  H   UNL     1      40.725 -14.431   4.604  1.00  0.00     0.192 HD
HETATM    9  O   UNL     1      43.284 -13.523   2.879  1.00  0.00    -0.264 OA
BRANCH   7  10
HETATM   10  N   UNL     1      40.534 -13.273   2.899  1.00  0.00    -0.184 NA
HETATM   11  C   UNL     1      39.535 -13.898   2.364  1.00  0.00     0.150 C 
BRANCH  11  12
HETATM   12  C   UNL     1      38.731 -13.274   1.293  1.00  0.00    -0.016 A 
HETATM   13  C   UNL     1      38.743 -13.843   0.018  1.00  0.00     0.032 A 
HETATM   14  C   UNL     1      37.998 -13.245  -0.999  1.00  0.00     0.011 A 
HETATM   15 BR   UNL     1      38.011 -14.001  -2.732  1.00  0.00    -0.051 Br
HETATM   16  C   UNL     1      37.247 -12.095  -0.754  1.00  0.00     0.019 A 
HETATM   17  C   UNL     1      37.238 -11.533   0.522  1.00  0.00     0.002 A 
HETATM   18  C   UNL     1      37.980 -12.120   1.547  1.00  0.00     0.013 A 
ENDBRANCH  11  12
ENDBRANCH   7  10
ENDBRANCH   5   6
BRANCH   1  19
HETATM   19  C   UNL     1      42.578 -17.255   3.848  1.00  0.00     0.296 C 
BRANCH  19  20
HETATM   20  N   UNL     1      43.583 -17.979   2.957  1.00  0.00    -0.066 N 
HETATM   21  H   UNL     1      44.438 -18.082   3.516  1.00  0.00     0.280 HD
BRANCH  20  22
HETATM   22  C   UNL     1      43.910 -17.124   1.734  1.00  0.00     0.235 C 
BRANCH  22  23
HETATM   23  C   UNL     1      42.815 -17.187   0.671  1.00  0.00     0.023 C 
HETATM   24  C   UNL     1      42.009 -15.902   0.557  1.00  0.00     0.007 C 
ENDBRANCH  22  23
ENDBRANCH  20  22
BRANCH  20  25
HETATM   25  C   UNL     1      43.098 -19.362   2.542  1.00  0.00     0.235 C 
BRANCH  25  26
HETATM   26  C   UNL     1      44.225 -20.392   2.456  1.00  0.00     0.023 C 
HETATM   27  C   UNL     1      43.843 -21.662   1.712  1.00  0.00     0.007 C 
ENDBRANCH  25  26
ENDBRANCH  20  25
ENDBRANCH  19  20
ENDBRANCH   1  19
BRANCH   2  28
HETATM   28  C   UNL     1      43.949 -17.870   6.626  1.00  0.00     0.225 A 
HETATM   29  N   UNL     1      44.256 -18.946   5.898  1.00  0.00    -0.081 NA
HETATM   30  O   UNL     1      44.283 -19.983   6.838  1.00  0.00    -0.103 OA
HETATM   31  N   UNL     1      43.964 -19.519   8.106  1.00  0.00    -0.083 NA
HETATM   32  C   UNL     1      43.754 -18.211   7.976  1.00  0.00     0.201 A 
BRANCH  32  33
HETATM   33  N   UNL     1      43.423 -17.388   8.983  1.00  0.00    -0.379 N 
HETATM   34  H   UNL     1      43.329 -16.388   8.821  1.00  0.00     0.158 HD
HETATM   35  H   UNL     1      43.374 -17.670   9.960  1.00  0.00     0.158 HD
ENDBRANCH  32  33
ENDBRANCH   2  28
TORSDOF 11
ENDMDL
MODEL 4
REMARK VINA RESULT:      -7.1      7.675     10.797
REMARK  11 active torsions:
REMARK  status: ('A' for Active; 'I' for Inactive)
REMARK    1  A    between atoms: C_2  and  C_3 
REMARK    2  A    between atoms: C_3  and  N_4 
REMARK    3  A    between atoms: N_4  and  C_6 
REMARK    4  A    between atoms: N_4  and  C_30 
REMARK    5  A    between atoms: C_6  and  C_7 
REMARK    6  A    between atoms: N_8  and  C_9 
REMARK    7  A    between atoms: C_13  and  N_14 
REMARK    8  A    between atoms: C_17  and  C_18 
REMARK       I    between atoms: C_18  and  N_19 
REMARK    9  A    between atoms: N_19  and  N_20 
REMARK   10  A    between atoms: C_21  and  C_22 
REMARK   11  A    between atoms: C_30  and  C_31 
ROOT
HETATM    1  C   UNL     1      39.523 -14.348  -1.680  1.00  0.00     0.096 A 
HETATM    2  N   UNL     1      39.214 -14.326  -3.038  1.00  0.00    -0.215 N 
HETATM    3  N   UNL     1      40.354 -14.539  -3.748  1.00  0.00     0.012 NA
HETATM    4  N   UNL     1      41.352 -14.776  -2.914  1.00  0.00    -0.152 NA
HETATM    5  C   UNL     1      40.876 -14.665  -1.641  1.00  0.00     0.170 A 
ENDROOT
BRANCH   5   6
HETATM    6  C   UNL     1      41.684 -14.891  -0.451  1.00  0.00     0.293 C 
HETATM    7  N   UNL     1      41.998 -16.216  -0.220  1.00  0.00    -0.242 N 
HETATM    8  H   UNL     1      41.688 -16.941  -0.863  1.00  0.00     0.192 HD
HETATM    9  O   UNL     1      41.981 -13.948   0.280  1.00  0.00    -0.264 OA
BRANCH   7  10
HETATM   10  N   UNL     1      42.638 -16.549   0.934  1.00  0.00    -0.184 NA
HETATM   11  C   UNL     1      42.627 -17.802   1.258  1.00  0.00     0.150 C 
BRANCH  11  12
HETATM   12  C   UNL     1      43.271 -18.274   2.501  1.00  0.00    -0.016 A 
HETATM   13  C   UNL     1      43.261 -17.447   3.626  1.00  0.00     0.032 A 
HETATM   14  C   UNL     1      43.884 -17.884   4.795  1.00  0.00     0.011 A 
HETATM   15 BR   UNL     1      43.884 -16.770   6.323  1.00  0.00    -0.051 Br
HETATM   16  C   UNL     1      44.509 -19.130   4.849  1.00  0.00     0.019 A 
HETATM   17  C   UNL     1      44.514 -19.953   3.723  1.00  0.00     0.002 A 
HETATM   18  C   UNL     1      43.896 -19.526   2.548  1.00  0.00     0.013 A 
ENDBRANCH  11  12
ENDBRANCH   7  10
ENDBRANCH   5   6
BRANCH   1  19
HETATM   19  C   UNL     1      38.596 -14.005  -0.570  1.00  0.00     0.296 C 
BRANCH  19  20
HETATM   20  N   UNL     1      39.010 -12.834   0.315  1.00  0.00    -0.066 N 
HETATM   21  H   UNL     1      40.000 -12.654   0.109  1.00  0.00     0.280 HD
BRANCH  20  22
HETATM   22  C   UNL     1      38.891 -13.223   1.788  1.00  0.00     0.235 C 
BRANCH  22  23
HETATM   23  C   UNL     1      39.009 -14.731   2.001  1.00  0.00     0.023 C 
HETATM   24  C   UNL     1      40.061 -15.114   3.031  1.00  0.00     0.007 C 
ENDBRANCH  22  23
ENDBRANCH  20  22
BRANCH  20  25
HETATM   25  C   UNL     1      38.210 -11.572   0.018  1.00  0.00     0.235 C 
BRANCH  25  26
HETATM   26  C   UNL     1      36.708 -11.830  -0.107  1.00  0.00     0.023 C 
HETATM   27  C   UNL     1      35.864 -11.053   0.891  1.00  0.00     0.007 C 
ENDBRANCH  25  26
ENDBRANCH  20  25
ENDBRANCH  19  20
ENDBRANCH   1  19
BRANCH   2  28
HETATM   28  C   UNL     1      37.952 -14.177  -3.658  1.00  0.00     0.225 A 
HETATM   29  N   UNL     1      37.322 -15.249  -4.146  1.00  0.00    -0.081 NA
HETATM   30  O   UNL     1      36.142 -14.722  -4.683  1.00  0.00    -0.103 OA
HETATM   31  N   UNL     1      36.097 -13.343  -4.535  1.00  0.00    -0.083 NA
HETATM   32  C   UNL     1      37.219 -13.004  -3.903  1.00  0.00     0.201 A 
BRANCH  32  33
HETATM   33  N   UNL     1      37.554 -11.750  -3.567  1.00  0.00    -0.379 N 
HETATM   34  H   UNL     1      38.406 -11.568  -3.041  1.00  0.00     0.158 HD
HETATM   35  H   UNL     1      36.947 -10.942  -3.690  1.00  0.00     0.158 HD
ENDBRANCH  32  33
ENDBRANCH   2  28
TORSDOF 11
ENDMDL
MODEL 5
REMARK VINA RESULT:      -7.0      7.459     10.300
REMARK  11 active torsions:
REMARK  status: ('A' for Active; 'I' for Inactive)
REMARK    1  A    between atoms: C_2  and  C_3 
REMARK    2  A    between atoms: C_3  and  N_4 
REMARK    3  A    between atoms: N_4  and  C_6 
REMARK    4  A    between atoms: N_4  and  C_30 
REMARK    5  A    between atoms: C_6  and  C_7 
REMARK    6  A    between atoms: N_8  and  C_9 
REMARK    7  A    between atoms: C_13  and  N_14 
REMARK    8  A    between atoms: C_17  and  C_18 
REMARK       I    between atoms: C_18  and  N_19 
REMARK    9  A    between atoms: N_19  and  N_20 
REMARK   10  A    between atoms: C_21  and  C_22 
REMARK   11  A    between atoms: C_30  and  C_31 
ROOT
HETATM    1  C   UNL     1      41.446 -13.932  -1.463  1.00  0.00     0.096 A 
HETATM    2  N   UNL     1      41.169 -13.785  -2.819  1.00  0.00    -0.215 N 
HETATM    3  N   UNL     1      40.947 -15.014  -3.356  1.00  0.00     0.012 NA
HETATM    4  N   UNL     1      40.986 -15.924  -2.397  1.00  0.00    -0.152 NA
HETATM    5  C   UNL     1      41.292 -15.293  -1.227  1.00  0.00     0.170 A 
ENDROOT
BRANCH   5   6
HETATM    6  C   UNL     1      41.392 -15.972   0.058  1.00  0.00     0.293 C 
HETATM    7  N   UNL     1      42.577 -16.655   0.249  1.00  0.00    -0.242 N 
HETATM    8  H   UNL     1      43.302 -16.644  -0.465  1.00  0.00     0.192 HD
HETATM    9  O   UNL     1      40.445 -15.952   0.841  1.00  0.00    -0.264 OA
BRANCH   7  10
HETATM   10  N   UNL     1      42.719 -17.429   1.359  1.00  0.00    -0.184 NA
HETATM   11  C   UNL     1      43.863 -18.013   1.512  1.00  0.00     0.150 C 
BRANCH  11  12
HETATM   12  C   UNL     1      44.121 -18.895   2.669  1.00  0.00    -0.016 A 
HETATM   13  C   UNL     1      44.160 -18.340   3.949  1.00  0.00     0.032 A 
HETATM   14  C   UNL     1      44.421 -19.168   5.041  1.00  0.00     0.011 A 
HETATM   15 BR   UNL     1      44.484 -18.428   6.780  1.00  0.00    -0.051 Br
HETATM   16  C   UNL     1      44.638 -20.535   4.865  1.00  0.00     0.019 A 
HETATM   17  C   UNL     1      44.595 -21.085   3.584  1.00  0.00     0.002 A 
HETATM   18  C   UNL     1      44.338 -20.266   2.484  1.00  0.00     0.013 A 
ENDBRANCH  11  12
ENDBRANCH   7  10
ENDBRANCH   5   6
BRANCH   1  19
HETATM   19  C   UNL     1      41.897 -12.855  -0.543  1.00  0.00     0.296 C 
BRANCH  19  20
HETATM   20  N   UNL     1      40.824 -12.232   0.344  1.00  0.00    -0.066 N 
HETATM   21  H   UNL     1      40.975 -11.217   0.305  1.00  0.00     0.280 HD
BRANCH  20  22
HETATM   22  C   UNL     1      41.010 -12.689   1.789  1.00  0.00     0.235 C 
BRANCH  22  23
HETATM   23  C   UNL     1      42.452 -13.093   2.091  1.00  0.00     0.023 C 
HETATM   24  C   UNL     1      42.567 -14.176   3.153  1.00  0.00     0.007 C 
ENDBRANCH  22  23
ENDBRANCH  20  22
BRANCH  20  25
HETATM   25  C   UNL     1      39.416 -12.538  -0.148  1.00  0.00     0.235 C 
BRANCH  25  26
HETATM   26  C   UNL     1      38.452 -12.904   0.980  1.00  0.00     0.023 C 
HETATM   27  C   UNL     1      37.510 -14.048   0.640  1.00  0.00     0.007 C 
ENDBRANCH  25  26
ENDBRANCH  20  25
ENDBRANCH  19  20
ENDBRANCH   1  19
BRANCH   2  28
HETATM   28  C   UNL     1      41.056 -12.596  -3.577  1.00  0.00     0.225 A 
HETATM   29  N   UNL     1      42.153 -11.904  -3.893  1.00  0.00    -0.081 NA
HETATM   30  O   UNL     1      41.657 -10.811  -4.614  1.00  0.00    -0.103 OA
HETATM   31  N   UNL     1      40.273 -10.851  -4.694  1.00  0.00    -0.083 NA
HETATM   32  C   UNL     1      39.898 -11.954  -4.050  1.00  0.00     0.201 A 
BRANCH  32  33
HETATM   33  N   UNL     1      38.628 -12.357  -3.904  1.00  0.00    -0.379 N 
HETATM   34  H   UNL     1      37.862 -11.783  -4.248  1.00  0.00     0.158 HD
HETATM   35  H   UNL     1      38.342 -13.161  -3.348  1.00  0.00     0.158 HD
ENDBRANCH  32  33
ENDBRANCH   2  28
TORSDOF 11
ENDMDL
MODEL 6
REMARK VINA RESULT:      -7.0      8.082     10.520
REMARK  11 active torsions:
REMARK  status: ('A' for Active; 'I' for Inactive)
REMARK    1  A    between atoms: C_2  and  C_3 
REMARK    2  A    between atoms: C_3  and  N_4 
REMARK    3  A    between atoms: N_4  and  C_6 
REMARK    4  A    between atoms: N_4  and  C_30 
REMARK    5  A    between atoms: C_6  and  C_7 
REMARK    6  A    between atoms: N_8  and  C_9 
REMARK    7  A    between atoms: C_13  and  N_14 
REMARK    8  A    between atoms: C_17  and  C_18 
REMARK       I    between atoms: C_18  and  N_19 
REMARK    9  A    between atoms: N_19  and  N_20 
REMARK   10  A    between atoms: C_21  and  C_22 
REMARK   11  A    between atoms: C_30  and  C_31 
ROOT
HETATM    1  C   UNL     1      40.049 -13.657  -0.486  1.00  0.00     0.096 A 
HETATM    2  N   UNL     1      38.898 -13.056  -0.988  1.00  0.00    -0.215 N 
HETATM    3  N   UNL     1      37.822 -13.537  -0.309  1.00  0.00     0.012 NA
HETATM    4  N   UNL     1      38.237 -14.347   0.651  1.00  0.00    -0.152 NA
HETATM    5  C   UNL     1      39.594 -14.442   0.567  1.00  0.00     0.170 A 
ENDROOT
BRANCH   5   6
HETATM    6  C   UNL     1      40.410 -15.226   1.485  1.00  0.00     0.293 C 
HETATM    7  N   UNL     1      40.594 -16.540   1.101  1.00  0.00    -0.242 N 
HETATM    8  H   UNL     1      40.194 -16.887   0.233  1.00  0.00     0.192 HD
HETATM    9  O   UNL     1      40.821 -14.722   2.528  1.00  0.00    -0.264 OA
BRANCH   7  10
HETATM   10  N   UNL     1      41.230 -17.391   1.952  1.00  0.00    -0.184 NA
HETATM   11  C   UNL     1      42.412 -17.782   1.599  1.00  0.00     0.150 C 
BRANCH  11  12
HETATM   12  C   UNL     1      43.185 -18.724   2.434  1.00  0.00    -0.016 A 
HETATM   13  C   UNL     1      43.536 -18.347   3.733  1.00  0.00     0.032 A 
HETATM   14  C   UNL     1      44.281 -19.228   4.517  1.00  0.00     0.011 A 
HETATM   15 BR   UNL     1      44.769 -18.728   6.274  1.00  0.00    -0.051 Br
HETATM   16  C   UNL     1      44.673 -20.471   4.020  1.00  0.00     0.019 A 
HETATM   17  C   UNL     1      44.318 -20.843   2.723  1.00  0.00     0.002 A 
HETATM   18  C   UNL     1      43.575 -19.970   1.928  1.00  0.00     0.013 A 
ENDBRANCH  11  12
ENDBRANCH   7  10
ENDBRANCH   5   6
BRANCH   1  19
HETATM   19  C   UNL     1      41.417 -13.528  -1.051  1.00  0.00     0.296 C 
BRANCH  19  20
HETATM   20  N   UNL     1      41.706 -14.341  -2.310  1.00  0.00    -0.066 N 
HETATM   21  H   UNL     1      42.646 -14.736  -2.185  1.00  0.00     0.280 HD
BRANCH  20  22
HETATM   22  C   UNL     1      41.730 -13.424  -3.531  1.00  0.00     0.235 C 
BRANCH  22  23
HETATM   23  C   UNL     1      42.476 -12.118  -3.263  1.00  0.00     0.023 C 
HETATM   24  C   UNL     1      42.312 -11.090  -4.372  1.00  0.00     0.007 C 
ENDBRANCH  22  23
ENDBRANCH  20  22
BRANCH  20  25
HETATM   25  C   UNL     1      40.716 -15.481  -2.503  1.00  0.00     0.235 C 
BRANCH  25  26
HETATM   26  C   UNL     1      39.946 -15.390  -3.820  1.00  0.00     0.023 C 
HETATM   27  C   UNL     1      38.819 -16.403  -3.947  1.00  0.00     0.007 C 
ENDBRANCH  25  26
ENDBRANCH  20  25
ENDBRANCH  19  20
ENDBRANCH   1  19
BRANCH   2  28
HETATM   28  C   UNL     1      38.780 -12.062  -1.986  1.00  0.00     0.225 A 
HETATM   29  N   UNL     1      39.421 -10.900  -1.845  1.00  0.00    -0.081 NA
HETATM   30  O   UNL     1      39.062 -10.183  -2.992  1.00  0.00    -0.103 OA
HETATM   31  N   UNL     1      38.191 -10.913  -3.786  1.00  0.00    -0.083 NA
HETATM   32  C   UNL     1      38.012 -12.076  -3.164  1.00  0.00     0.201 A 
BRANCH  32  33
HETATM   33  N   UNL     1      37.233 -13.070  -3.615  1.00  0.00    -0.379 N 
HETATM   34  H   UNL     1      36.654 -12.937  -4.441  1.00  0.00     0.158 HD
HETATM   35  H   UNL     1      37.071 -13.942  -3.115  1.00  0.00     0.158 HD
ENDBRANCH  32  33
ENDBRANCH   2  28
TORSDOF 11
ENDMDL
MODEL 7
REMARK VINA RESULT:      -7.0      3.621      8.505
REMARK  11 active torsions:
REMARK  status: ('A' for Active; 'I' for Inactive)
REMARK    1  A    between atoms: C_2  and  C_3 
REMARK    2  A    between atoms: C_3  and  N_4 
REMARK    3  A    between atoms: N_4  and  C_6 
REMARK    4  A    between atoms: N_4  and  C_30 
REMARK    5  A    between atoms: C_6  and  C_7 
REMARK    6  A    between atoms: N_8  and  C_9 
REMARK    7  A    between atoms: C_13  and  N_14 
REMARK    8  A    between atoms: C_17  and  C_18 
REMARK       I    between atoms: C_18  and  N_19 
REMARK    9  A    between atoms: N_19  and  N_20 
REMARK   10  A    between atoms: C_21  and  C_22 
REMARK   11  A    between atoms: C_30  and  C_31 
ROOT
HETATM    1  C   UNL     1      40.682 -13.973   4.901  1.00  0.00     0.096 A 
HETATM    2  N   UNL     1      40.918 -13.984   3.529  1.00  0.00    -0.215 N 
HETATM    3  N   UNL     1      40.826 -12.711   3.061  1.00  0.00     0.012 NA
HETATM    4  N   UNL     1      40.627 -11.885   4.073  1.00  0.00    -0.152 NA
HETATM    5  C   UNL     1      40.532 -12.627   5.213  1.00  0.00     0.170 A 
ENDROOT
BRANCH   5   6
HETATM    6  C   UNL     1      40.343 -12.055   6.540  1.00  0.00     0.293 C 
HETATM    7  N   UNL     1      41.452 -11.400   7.039  1.00  0.00    -0.242 N 
HETATM    8  H   UNL     1      42.303 -11.329   6.488  1.00  0.00     0.192 HD
HETATM    9  O   UNL     1      39.283 -12.225   7.138  1.00  0.00    -0.264 OA
BRANCH   7  10
HETATM   10  N   UNL     1      41.424 -10.944   8.321  1.00  0.00    -0.184 NA
HETATM   11  C   UNL     1      42.570 -10.734   8.883  1.00  0.00     0.150 C 
BRANCH  11  12
HETATM   12  C   UNL     1      42.660 -10.260  10.279  1.00  0.00    -0.016 A 
HETATM   13  C   UNL     1      41.635  -9.461  10.791  1.00  0.00     0.032 A 
HETATM   14  C   UNL     1      41.726  -8.998  12.104  1.00  0.00     0.011 A 
HETATM   15 BR   UNL     1      40.349  -7.910  12.807  1.00  0.00    -0.051 Br
HETATM   16  C   UNL     1      42.822  -9.326  12.903  1.00  0.00     0.019 A 
HETATM   17  C   UNL     1      43.842 -10.125  12.387  1.00  0.00     0.002 A 
HETATM   18  C   UNL     1      43.763 -10.592  11.075  1.00  0.00     0.013 A 
ENDBRANCH  11  12
ENDBRANCH   7  10
ENDBRANCH   5   6
BRANCH   1  19
HETATM   19  C   UNL     1      40.535 -15.170   5.769  1.00  0.00     0.296 C 
BRANCH  19  20
HETATM   20  N   UNL     1      41.767 -15.578   6.571  1.00  0.00    -0.066 N 
HETATM   21  H   UNL     1      41.608 -15.246   7.530  1.00  0.00     0.280 HD
BRANCH  20  22
HETATM   22  C   UNL     1      43.006 -14.874   6.020  1.00  0.00     0.235 C 
BRANCH  22  23
HETATM   23  C   UNL     1      44.208 -14.997   6.955  1.00  0.00     0.023 C 
HETATM   24  C   UNL     1      44.715 -13.656   7.465  1.00  0.00     0.007 C 
ENDBRANCH  22  23
ENDBRANCH  20  22
BRANCH  20  25
HETATM   25  C   UNL     1      41.966 -17.087   6.601  1.00  0.00     0.235 C 
BRANCH  25  26
HETATM   26  C   UNL     1      41.587 -17.769   5.285  1.00  0.00     0.023 C 
HETATM   27  C   UNL     1      42.760 -18.419   4.568  1.00  0.00     0.007 C 
ENDBRANCH  25  26
ENDBRANCH  20  25
ENDBRANCH  19  20
ENDBRANCH   1  19
BRANCH   2  28
HETATM   28  C   UNL     1      41.262 -15.074   2.697  1.00  0.00     0.225 A 
HETATM   29  N   UNL     1      42.545 -15.311   2.411  1.00  0.00    -0.081 NA
HETATM   30  O   UNL     1      42.494 -16.430   1.572  1.00  0.00    -0.103 OA
HETATM   31  N   UNL     1      41.184 -16.828   1.346  1.00  0.00    -0.083 NA
HETATM   32  C   UNL     1      40.420 -15.987   2.040  1.00  0.00     0.201 A 
BRANCH  32  33
HETATM   33  N   UNL     1      39.080 -16.037   2.087  1.00  0.00    -0.379 N 
HETATM   34  H   UNL     1      38.602 -16.228   2.964  1.00  0.00     0.158 HD
HETATM   35  H   UNL     1      38.478 -16.021   1.266  1.00  0.00     0.158 HD
ENDBRANCH  32  33
ENDBRANCH   2  28
TORSDOF 11
ENDMDL
MODEL 8
REMARK VINA RESULT:      -6.9      6.299      9.085
REMARK  11 active torsions:
REMARK  status: ('A' for Active; 'I' for Inactive)
REMARK    1  A    between atoms: C_2  and  C_3 
REMARK    2  A    between atoms: C_3  and  N_4 
REMARK    3  A    between atoms: N_4  and  C_6 
REMARK    4  A    between atoms: N_4  and  C_30 
REMARK    5  A    between atoms: C_6  and  C_7 
REMARK    6  A    between atoms: N_8  and  C_9 
REMARK    7  A    between atoms: C_13  and  N_14 
REMARK    8  A    between atoms: C_17  and  C_18 
REMARK       I    between atoms: C_18  and  N_19 
REMARK    9  A    between atoms: N_19  and  N_20 
REMARK   10  A    between atoms: C_21  and  C_22 
REMARK   11  A    between atoms: C_30  and  C_31 
ROOT
HETATM    1  C   UNL     1      42.370 -16.738   4.692  1.00  0.00     0.096 A 
HETATM    2  N   UNL     1      42.367 -17.148   6.022  1.00  0.00    -0.215 N 
HETATM    3  N   UNL     1      41.532 -16.339   6.727  1.00  0.00     0.012 NA
HETATM    4  N   UNL     1      40.943 -15.491   5.900  1.00  0.00    -0.152 NA
HETATM    5  C   UNL     1      41.436 -15.709   4.648  1.00  0.00     0.170 A 
ENDROOT
BRANCH   5   6
HETATM    6  C   UNL     1      40.997 -14.981   3.465  1.00  0.00     0.293 C 
HETATM    7  N   UNL     1      39.766 -15.377   2.979  1.00  0.00    -0.242 N 
HETATM    8  H   UNL     1      39.235 -16.107   3.447  1.00  0.00     0.192 HD
HETATM    9  O   UNL     1      41.729 -14.136   2.955  1.00  0.00    -0.264 OA
BRANCH   7  10
HETATM   10  N   UNL     1      39.323 -14.852   1.804  1.00  0.00    -0.184 NA
HETATM   11  C   UNL     1      38.570 -13.803   1.890  1.00  0.00     0.150 C 
BRANCH  11  12
HETATM   12  C   UNL     1      38.014 -13.162   0.680  1.00  0.00    -0.016 A 
HETATM   13  C   UNL     1      38.245 -13.751  -0.565  1.00  0.00     0.032 A 
HETATM   14  C   UNL     1      37.736 -13.138  -1.710  1.00  0.00     0.011 A 
HETATM   15 BR   UNL     1      38.047 -13.920  -3.404  1.00  0.00    -0.051 Br
HETATM   16  C   UNL     1      37.003 -11.954  -1.622  1.00  0.00     0.019 A 
HETATM   17  C   UNL     1      36.774 -11.372  -0.375  1.00  0.00     0.002 A 
HETATM   18  C   UNL     1      37.280 -11.975   0.777  1.00  0.00     0.013 A 
ENDBRANCH  11  12
ENDBRANCH   7  10
ENDBRANCH   5   6
BRANCH   1  19
HETATM   19  C   UNL     1      43.264 -17.254   3.623  1.00  0.00     0.296 C 
BRANCH  19  20
HETATM   20  N   UNL     1      42.794 -18.513   2.900  1.00  0.00    -0.066 N 
HETATM   21  H   UNL     1      42.171 -19.002   3.554  1.00  0.00     0.280 HD
BRANCH  20  22
HETATM   22  C   UNL     1      43.985 -19.421   2.603  1.00  0.00     0.235 C 
BRANCH  22  23
HETATM   23  C   UNL     1      43.585 -20.664   1.811  1.00  0.00     0.023 C 
HETATM   24  C   UNL     1      44.393 -21.900   2.175  1.00  0.00     0.007 C 
ENDBRANCH  22  23
ENDBRANCH  20  22
BRANCH  20  25
HETATM   25  C   UNL     1      42.019 -18.196   1.629  1.00  0.00     0.235 C 
BRANCH  25  26
HETATM   26  C   UNL     1      42.604 -17.018   0.848  1.00  0.00     0.023 C 
HETATM   27  C   UNL     1      41.612 -16.347  -0.090  1.00  0.00     0.007 C 
ENDBRANCH  25  26
ENDBRANCH  20  25
ENDBRANCH  19  20
ENDBRANCH   1  19
BRANCH   2  28
HETATM   28  C   UNL     1      43.036 -18.244   6.614  1.00  0.00     0.225 A 
HETATM   29  N   UNL     1      43.216 -19.368   5.916  1.00  0.00    -0.081 NA
HETATM   30  O   UNL     1      43.884 -20.210   6.812  1.00  0.00    -0.103 OA
HETATM   31  N   UNL     1      44.068 -19.590   8.039  1.00  0.00    -0.083 NA
HETATM   32  C   UNL     1      43.541 -18.373   7.920  1.00  0.00     0.201 A 
BRANCH  32  33
HETATM   33  N   UNL     1      43.520 -17.453   8.894  1.00  0.00    -0.379 N 
HETATM   34  H   UNL     1      42.654 -17.242   9.385  1.00  0.00     0.158 HD
HETATM   35  H   UNL     1      44.298 -16.834   9.114  1.00  0.00     0.158 HD
ENDBRANCH  32  33
ENDBRANCH   2  28
TORSDOF 11
ENDMDL
MODEL 9
REMARK VINA RESULT:      -6.8      6.262      9.591
REMARK  11 active torsions:
REMARK  status: ('A' for Active; 'I' for Inactive)
REMARK    1  A    between atoms: C_2  and  C_3 
REMARK    2  A    between atoms: C_3  and  N_4 
REMARK    3  A    between atoms: N_4  and  C_6 
REMARK    4  A    between atoms: N_4  and  C_30 
REMARK    5  A    between atoms: C_6  and  C_7 
REMARK    6  A    between atoms: N_8  and  C_9 
REMARK    7  A    between atoms: C_13  and  N_14 
REMARK    8  A    between atoms: C_17  and  C_18 
REMARK       I    between atoms: C_18  and  N_19 
REMARK    9  A    between atoms: N_19  and  N_20 
REMARK   10  A    between atoms: C_21  and  C_22 
REMARK   11  A    between atoms: C_30  and  C_31 
ROOT
HETATM    1  C   UNL     1      43.088 -18.026   3.461  1.00  0.00     0.096 A 
HETATM    2  N   UNL     1      43.952 -18.999   2.967  1.00  0.00    -0.215 N 
HETATM    3  N   UNL     1      44.525 -18.535   1.825  1.00  0.00     0.012 NA
HETATM    4  N   UNL     1      44.134 -17.290   1.614  1.00  0.00    -0.152 NA
HETATM    5  C   UNL     1      43.253 -16.950   2.597  1.00  0.00     0.170 A 
ENDROOT
BRANCH   5   6
HETATM    6  C   UNL     1      42.632 -15.637   2.711  1.00  0.00     0.293 C 
HETATM    7  N   UNL     1      41.432 -15.516   2.039  1.00  0.00    -0.242 N 
HETATM    8  H   UNL     1      41.038 -16.307   1.535  1.00  0.00     0.192 HD
HETATM    9  O   UNL     1      43.206 -14.735   3.318  1.00  0.00    -0.264 OA
BRANCH   7  10
HETATM   10  N   UNL     1      40.835 -14.294   1.974  1.00  0.00    -0.184 NA
HETATM   11  C   UNL     1      39.621 -14.222   2.415  1.00  0.00     0.150 C 
BRANCH  11  12
HETATM   12  C   UNL     1      38.869 -12.951   2.372  1.00  0.00    -0.016 A 
HETATM   13  C   UNL     1      37.980 -12.725   1.319  1.00  0.00     0.032 A 
HETATM   14  C   UNL     1      37.282 -11.518   1.267  1.00  0.00     0.011 A 
HETATM   15 BR   UNL     1      36.081 -11.196  -0.158  1.00  0.00    -0.051 Br
HETATM   16  C   UNL     1      37.461 -10.546   2.252  1.00  0.00     0.019 A 
HETATM   17  C   UNL     1      38.349 -10.778   3.302  1.00  0.00     0.002 A 
HETATM   18  C   UNL     1      39.054 -11.980   3.364  1.00  0.00     0.013 A 
ENDBRANCH  11  12
ENDBRANCH   7  10
ENDBRANCH   5   6
BRANCH   1  19
HETATM   19  C   UNL     1      42.150 -18.191   4.602  1.00  0.00     0.296 C 
BRANCH  19  20
HETATM   20  N   UNL     1      42.690 -17.817   5.979  1.00  0.00    -0.066 N 
HETATM   21  H   UNL     1      42.859 -18.704   6.470  1.00  0.00     0.280 HD
BRANCH  20  22
HETATM   22  C   UNL     1      41.637 -17.032   6.759  1.00  0.00     0.235 C 
BRANCH  22  23
HETATM   23  C   UNL     1      40.640 -16.327   5.841  1.00  0.00     0.023 C 
HETATM   24  C   UNL     1      40.739 -14.810   5.893  1.00  0.00     0.007 C 
ENDBRANCH  22  23
ENDBRANCH  20  22
BRANCH  20  25
HETATM   25  C   UNL     1      43.999 -17.043   5.897  1.00  0.00     0.235 C 
BRANCH  25  26
HETATM   26  C   UNL     1      44.204 -16.087   7.072  1.00  0.00     0.023 C 
HETATM   27  C   UNL     1      44.519 -14.658   6.656  1.00  0.00     0.007 C 
ENDBRANCH  25  26
ENDBRANCH  20  25
ENDBRANCH  19  20
ENDBRANCH   1  19
BRANCH   2  28
HETATM   28  C   UNL     1      44.284 -20.256   3.524  1.00  0.00     0.225 A 
HETATM   29  N   UNL     1      44.679 -20.333   4.798  1.00  0.00    -0.081 NA
HETATM   30  O   UNL     1      44.929 -21.698   4.983  1.00  0.00    -0.103 OA
HETATM   31  N   UNL     1      44.709 -22.411   3.813  1.00  0.00    -0.083 NA
HETATM   32  C   UNL     1      44.312 -21.519   2.908  1.00  0.00     0.201 A 
BRANCH  32  33
HETATM   33  N   UNL     1      43.994 -21.811   1.638  1.00  0.00    -0.379 N 
HETATM   34  H   UNL     1      43.055 -21.635   1.288  1.00  0.00     0.158 HD
HETATM   35  H   UNL     1      44.599 -22.327   1.001  1.00  0.00     0.158 HD
ENDBRANCH  32  33
ENDBRANCH   2  28
TORSDOF 11
ENDMDL
MODEL 10
REMARK VINA RESULT:      -6.8      7.052      9.910
REMARK  11 active torsions:
REMARK  status: ('A' for Active; 'I' for Inactive)
REMARK    1  A    between atoms: C_2  and  C_3 
REMARK    2  A    between atoms: C_3  and  N_4 
REMARK    3  A    between atoms: N_4  and  C_6 
REMARK    4  A    between atoms: N_4  and  C_30 
REMARK    5  A    between atoms: C_6  and  C_7 
REMARK    6  A    between atoms: N_8  and  C_9 
REMARK    7  A    between atoms: C_13  and  N_14 
REMARK    8  A    between atoms: C_17  and  C_18 
REMARK       I    between atoms: C_18  and  N_19 
REMARK    9  A    between atoms: N_19  and  N_20 
REMARK   10  A    between atoms: C_21  and  C_22 
REMARK   11  A    between atoms: C_30  and  C_31 
ROOT
HETATM    1  C   UNL     1      41.436 -13.998  -1.294  1.00  0.00     0.096 A 
HETATM    2  N   UNL     1      41.206 -13.772  -2.648  1.00  0.00    -0.215 N 
HETATM    3  N   UNL     1      41.059 -14.971  -3.272  1.00  0.00     0.012 NA
HETATM    4  N   UNL     1      41.101 -15.940  -2.374  1.00  0.00    -0.152 NA
HETATM    5  C   UNL     1      41.332 -15.377  -1.154  1.00  0.00     0.170 A 
ENDROOT
BRANCH   5   6
HETATM    6  C   UNL     1      41.412 -16.136   0.087  1.00  0.00     0.293 C 
HETATM    7  N   UNL     1      42.573 -16.870   0.231  1.00  0.00    -0.242 N 
HETATM    8  H   UNL     1      43.296 -16.841  -0.485  1.00  0.00     0.192 HD
HETATM    9  O   UNL     1      40.468 -16.130   0.874  1.00  0.00    -0.264 OA
BRANCH   7  10
HETATM   10  N   UNL     1      42.690 -17.715   1.292  1.00  0.00    -0.184 NA
HETATM   11  C   UNL     1      43.824 -17.703   1.915  1.00  0.00     0.150 C 
BRANCH  11  12
HETATM   12  C   UNL     1      44.071 -18.594   3.067  1.00  0.00    -0.016 A 
HETATM   13  C   UNL     1      43.928 -18.087   4.360  1.00  0.00     0.032 A 
HETATM   14  C   UNL     1      44.178 -18.922   5.448  1.00  0.00     0.011 A 
HETATM   15 BR   UNL     1      43.996 -18.246   7.205  1.00  0.00    -0.051 Br
HETATM   16  C   UNL     1      44.562 -20.250   5.257  1.00  0.00     0.019 A 
HETATM   17  C   UNL     1      44.701 -20.752   3.963  1.00  0.00     0.002 A 
HETATM   18  C   UNL     1      44.457 -19.925   2.867  1.00  0.00     0.013 A 
ENDBRANCH  11  12
ENDBRANCH   7  10
ENDBRANCH   5   6
BRANCH   1  19
HETATM   19  C   UNL     1      41.802 -12.967  -0.288  1.00  0.00     0.296 C 
BRANCH  19  20
HETATM   20  N   UNL     1      41.245 -13.169   1.118  1.00  0.00    -0.066 N 
HETATM   21  H   UNL     1      40.980 -14.159   1.181  1.00  0.00     0.280 HD
BRANCH  20  22
HETATM   22  C   UNL     1      39.987 -12.324   1.308  1.00  0.00     0.235 C 
BRANCH  22  23
HETATM   23  C   UNL     1      39.133 -12.808   2.479  1.00  0.00     0.023 C 
HETATM   24  C   UNL     1      38.841 -11.723   3.504  1.00  0.00     0.007 C 
ENDBRANCH  22  23
ENDBRANCH  20  22
BRANCH  20  25
HETATM   25  C   UNL     1      42.275 -12.865   2.198  1.00  0.00     0.235 C 
BRANCH  25  26
HETATM   26  C   UNL     1      42.952 -14.120   2.751  1.00  0.00     0.023 C 
HETATM   27  C   UNL     1      42.102 -14.888   3.751  1.00  0.00     0.007 C 
ENDBRANCH  25  26
ENDBRANCH  20  25
ENDBRANCH  19  20
ENDBRANCH   1  19
BRANCH   2  28
HETATM   28  C   UNL     1      41.070 -12.541  -3.331  1.00  0.00     0.225 A 
HETATM   29  N   UNL     1      42.127 -11.736  -3.464  1.00  0.00    -0.081 NA
HETATM   30  O   UNL     1      41.617 -10.636  -4.163  1.00  0.00    -0.103 OA
HETATM   31  N   UNL     1      40.260 -10.785  -4.412  1.00  0.00    -0.083 NA
HETATM   32  C   UNL     1      39.919 -11.964  -3.895  1.00  0.00     0.201 A 
BRANCH  32  33
HETATM   33  N   UNL     1      38.683 -12.483  -3.931  1.00  0.00    -0.379 N 
HETATM   34  H   UNL     1      37.905 -11.991  -3.496  1.00  0.00     0.158 HD
HETATM   35  H   UNL     1      38.465 -13.421  -4.262  1.00  0.00     0.158 HD
ENDBRANCH  32  33
ENDBRANCH   2  28
TORSDOF 11
ENDMDL
