MODEL 1
REMARK VINA RESULT:      -8.3      0.000      0.000
REMARK  3 active torsions:
REMARK  status: ('A' for Active; 'I' for Inactive)
REMARK    1  A    between atoms: C_3  and  N_4 
REMARK       I    between atoms: N_4  and  C_5 
REMARK    2  A    between atoms: C_5  and  C_6 
REMARK    3  A    between atoms: C_6  and  C_7 
ROOT
HETATM    1  C   UNL     1      42.543 -17.042   5.486  1.00  0.00     0.286 C 
HETATM    2  N   UNL     1      43.764 -16.130   5.414  1.00  0.00    -0.056 N 
HETATM    3  H   UNL     1      44.115 -16.073   6.394  1.00  0.00     0.278 HD
HETATM    4  H   UNL     1      44.519 -16.557   4.866  1.00  0.00     0.278 HD
HETATM    5  C   UNL     1      43.477 -14.728   4.958  1.00  0.00     0.209 C 
HETATM    6  C   UNL     1      42.356 -14.122   5.836  1.00  0.00     0.115 C 
HETATM    7  N   UNL     1      41.196 -15.005   5.965  1.00  0.00    -0.353 N 
HETATM    8  C   UNL     1      41.308 -16.366   6.119  1.00  0.00     0.249 C 
HETATM    9  O   UNL     1      40.401 -17.004   6.643  1.00  0.00    -0.271 OA
HETATM   10  C   UNL     1      43.146 -14.718   3.463  1.00  0.00     0.035 C 
HETATM   11  C   UNL     1      42.766 -13.316   2.996  1.00  0.00     0.002 C 
HETATM   12  C   UNL     1      41.618 -12.745   3.823  1.00  0.00     0.002 C 
HETATM   13  C   UNL     1      41.943 -12.741   5.317  1.00  0.00     0.027 C 
HETATM   14  H   UNL     1      40.376 -14.635   6.443  1.00  0.00     0.163 HD
ENDROOT
BRANCH   1  15
HETATM   15  C   UNL     1      42.885 -18.365   6.189  1.00  0.00     0.146 C 
BRANCH  15  16
HETATM   16  C   UNL     1      44.368 -18.621   6.156  1.00  0.00     0.224 C 
HETATM   17  N   UNL     1      44.956 -19.397   5.213  1.00  0.00    -0.326 N 
HETATM   18  H   UNL     1      45.946 -19.555   5.407  1.00  0.00     0.169 HD
HETATM   19  O   UNL     1      45.078 -18.057   7.001  1.00  0.00    -0.273 OA
BRANCH  17  20
HETATM   20  C   UNL     1      44.515 -20.033   4.028  1.00  0.00     0.056 A 
HETATM   21  C   UNL     1      43.994 -19.371   2.913  1.00  0.00     0.031 A 
HETATM   22  C   UNL     1      43.615 -20.088   1.769  1.00  0.00     0.002 A 
HETATM   23  C   UNL     1      43.754 -21.472   1.719  1.00  0.00     0.002 A 
HETATM   24  C   UNL     1      44.279 -22.150   2.813  1.00  0.00     0.026 A 
HETATM   25  C   UNL     1      44.660 -21.437   3.953  1.00  0.00     0.060 A 
HETATM   26 CL   UNL     1      45.320 -22.332   5.282  1.00  0.00    -0.082 Cl
ENDBRANCH  17  20
ENDBRANCH  15  16
ENDBRANCH   1  15
TORSDOF 3
ENDMDL
MODEL 2
REMARK VINA RESULT:      -8.1      2.010      2.369
REMARK  3 active torsions:
REMARK  status: ('A' for Active; 'I' for Inactive)
REMARK    1  A    between atoms: C_3  and  N_4 
REMARK       I    between atoms: N_4  and  C_5 
REMARK    2  A    between atoms: C_5  and  C_6 
REMARK    3  A    between atoms: C_6  and  C_7 
ROOT
HETATM    1  C   UNL     1      41.604 -17.576   4.971  1.00  0.00     0.286 C 
HETATM    2  N   UNL     1      42.433 -16.802   3.951  1.00  0.00    -0.056 N 
HETATM    3  H   UNL     1      43.166 -16.317   4.512  1.00  0.00     0.278 HD
HETATM    4  H   UNL     1      42.933 -17.435   3.317  1.00  0.00     0.278 HD
HETATM    5  C   UNL     1      41.678 -15.747   3.194  1.00  0.00     0.209 C 
HETATM    6  C   UNL     1      40.970 -14.804   4.196  1.00  0.00     0.115 C 
HETATM    7  N   UNL     1      40.213 -15.527   5.218  1.00  0.00    -0.353 N 
HETATM    8  C   UNL     1      40.672 -16.678   5.813  1.00  0.00     0.249 C 
HETATM    9  O   UNL     1      40.259 -17.008   6.919  1.00  0.00    -0.271 OA
HETATM   10  C   UNL     1      40.717 -16.402   2.198  1.00  0.00     0.035 C 
HETATM   11  C   UNL     1      39.875 -15.352   1.479  1.00  0.00     0.002 C 
HETATM   12  C   UNL     1      39.129 -14.462   2.469  1.00  0.00     0.002 C 
HETATM   13  C   UNL     1      40.082 -13.795   3.461  1.00  0.00     0.027 C 
HETATM   14  H   UNL     1      39.637 -14.976   5.853  1.00  0.00     0.163 HD
ENDROOT
BRANCH   1  15
HETATM   15  C   UNL     1      42.501 -18.450   5.861  1.00  0.00     0.146 C 
BRANCH  15  16
HETATM   16  C   UNL     1      43.952 -18.089   5.676  1.00  0.00     0.224 C 
HETATM   17  N   UNL     1      44.847 -18.928   5.099  1.00  0.00    -0.326 N 
HETATM   18  H   UNL     1      45.801 -18.571   5.158  1.00  0.00     0.169 HD
HETATM   19  O   UNL     1      44.323 -16.960   6.027  1.00  0.00    -0.273 OA
BRANCH  17  20
HETATM   20  C   UNL     1      44.760 -20.175   4.435  1.00  0.00     0.056 A 
HETATM   21  C   UNL     1      44.872 -21.420   5.059  1.00  0.00     0.031 A 
HETATM   22  C   UNL     1      44.738 -22.605   4.319  1.00  0.00     0.002 A 
HETATM   23  C   UNL     1      44.486 -22.563   2.951  1.00  0.00     0.002 A 
HETATM   24  C   UNL     1      44.362 -21.334   2.312  1.00  0.00     0.026 A 
HETATM   25  C   UNL     1      44.493 -20.154   3.047  1.00  0.00     0.060 A 
HETATM   26 CL   UNL     1      44.315 -18.651   2.202  1.00  0.00    -0.082 Cl
ENDBRANCH  17  20
ENDBRANCH  15  16
ENDBRANCH   1  15
TORSDOF 3
ENDMDL
MODEL 3
REMARK VINA RESULT:      -8.0      2.531      3.132
REMARK  3 active torsions:
REMARK  status: ('A' for Active; 'I' for Inactive)
REMARK    1  A    between atoms: C_3  and  N_4 
REMARK       I    between atoms: N_4  and  C_5 
REMARK    2  A    between atoms: C_5  and  C_6 
REMARK    3  A    between atoms: C_6  and  C_7 
ROOT
HETATM    1  C   UNL     1      42.024 -16.884   3.154  1.00  0.00     0.286 C 
HETATM    2  N   UNL     1      42.351 -16.982   4.641  1.00  0.00    -0.056 N 
HETATM    3  H   UNL     1      41.737 -17.743   5.003  1.00  0.00     0.278 HD
HETATM    4  H   UNL     1      43.315 -17.299   4.792  1.00  0.00     0.278 HD
HETATM    5  C   UNL     1      42.048 -15.745   5.436  1.00  0.00     0.209 C 
HETATM    6  C   UNL     1      40.576 -15.329   5.196  1.00  0.00     0.115 C 
HETATM    7  N   UNL     1      40.224 -15.282   3.777  1.00  0.00    -0.353 N 
HETATM    8  C   UNL     1      40.662 -16.216   2.868  1.00  0.00     0.249 C 
HETATM    9  O   UNL     1      40.035 -16.410   1.832  1.00  0.00    -0.271 OA
HETATM   10  C   UNL     1      43.051 -14.640   5.094  1.00  0.00     0.035 C 
HETATM   11  C   UNL     1      42.709 -13.345   5.826  1.00  0.00     0.002 C 
HETATM   12  C   UNL     1      41.277 -12.904   5.537  1.00  0.00     0.002 C 
HETATM   13  C   UNL     1      40.267 -13.997   5.886  1.00  0.00     0.027 C 
HETATM   14  H   UNL     1      39.303 -14.919   3.534  1.00  0.00     0.163 HD
ENDROOT
BRANCH   1  15
HETATM   15  C   UNL     1      42.132 -18.258   2.475  1.00  0.00     0.146 C 
BRANCH  15  16
HETATM   16  C   UNL     1      43.454 -18.404   1.769  1.00  0.00     0.224 C 
HETATM   17  N   UNL     1      44.434 -19.228   2.212  1.00  0.00    -0.326 N 
HETATM   18  H   UNL     1      45.299 -19.118   1.682  1.00  0.00     0.169 HD
HETATM   19  O   UNL     1      43.626 -17.776   0.715  1.00  0.00    -0.273 OA
BRANCH  17  20
HETATM   20  C   UNL     1      44.531 -20.203   3.234  1.00  0.00     0.056 A 
HETATM   21  C   UNL     1      44.648 -19.921   4.598  1.00  0.00     0.031 A 
HETATM   22  C   UNL     1      44.703 -20.958   5.540  1.00  0.00     0.002 A 
HETATM   23  C   UNL     1      44.638 -22.288   5.137  1.00  0.00     0.002 A 
HETATM   24  C   UNL     1      44.512 -22.592   3.786  1.00  0.00     0.026 A 
HETATM   25  C   UNL     1      44.454 -21.560   2.846  1.00  0.00     0.060 A 
HETATM   26 CL   UNL     1      44.284 -21.996   1.177  1.00  0.00    -0.082 Cl
ENDBRANCH  17  20
ENDBRANCH  15  16
ENDBRANCH   1  15
TORSDOF 3
ENDMDL
MODEL 4
REMARK VINA RESULT:      -7.8      2.948      3.540
REMARK  3 active torsions:
REMARK  status: ('A' for Active; 'I' for Inactive)
REMARK    1  A    between atoms: C_3  and  N_4 
REMARK       I    between atoms: N_4  and  C_5 
REMARK    2  A    between atoms: C_5  and  C_6 
REMARK    3  A    between atoms: C_6  and  C_7 
ROOT
HETATM    1  C   UNL     1      41.438 -16.548   3.262  1.00  0.00     0.286 C 
HETATM    2  N   UNL     1      40.509 -15.647   4.070  1.00  0.00    -0.056 N 
HETATM    3  H   UNL     1      39.791 -16.289   4.470  1.00  0.00     0.278 HD
HETATM    4  H   UNL     1      40.994 -15.230   4.871  1.00  0.00     0.278 HD
HETATM    5  C   UNL     1      39.781 -14.608   3.265  1.00  0.00     0.209 C 
HETATM    6  C   UNL     1      39.042 -15.294   2.091  1.00  0.00     0.115 C 
HETATM    7  N   UNL     1      39.901 -16.206   1.335  1.00  0.00    -0.353 N 
HETATM    8  C   UNL     1      40.820 -17.034   1.935  1.00  0.00     0.249 C 
HETATM    9  O   UNL     1      41.194 -18.054   1.365  1.00  0.00    -0.271 OA
HETATM   10  C   UNL     1      40.755 -13.517   2.812  1.00  0.00     0.035 C 
HETATM   11  C   UNL     1      40.056 -12.496   1.919  1.00  0.00     0.002 C 
HETATM   12  C   UNL     1      39.380 -13.168   0.727  1.00  0.00     0.002 C 
HETATM   13  C   UNL     1      38.397 -14.252   1.171  1.00  0.00     0.027 C 
HETATM   14  H   UNL     1      39.515 -16.617   0.486  1.00  0.00     0.163 HD
ENDROOT
BRANCH   1  15
HETATM   15  C   UNL     1      41.942 -17.723   4.114  1.00  0.00     0.146 C 
BRANCH  15  16
HETATM   16  C   UNL     1      43.304 -17.426   4.683  1.00  0.00     0.224 C 
HETATM   17  N   UNL     1      44.272 -18.369   4.797  1.00  0.00    -0.326 N 
HETATM   18  H   UNL     1      45.087 -18.024   5.305  1.00  0.00     0.169 HD
HETATM   19  O   UNL     1      43.558 -16.260   5.015  1.00  0.00    -0.273 OA
BRANCH  17  20
HETATM   20  C   UNL     1      44.410 -19.712   4.372  1.00  0.00     0.056 A 
HETATM   21  C   UNL     1      44.488 -20.815   5.226  1.00  0.00     0.031 A 
HETATM   22  C   UNL     1      44.590 -22.114   4.709  1.00  0.00     0.002 A 
HETATM   23  C   UNL     1      44.612 -22.331   3.333  1.00  0.00     0.002 A 
HETATM   24  C   UNL     1      44.526 -21.249   2.465  1.00  0.00     0.026 A 
HETATM   25  C   UNL     1      44.422 -19.954   2.980  1.00  0.00     0.060 A 
HETATM   26 CL   UNL     1      44.305 -18.644   1.851  1.00  0.00    -0.082 Cl
ENDBRANCH  17  20
ENDBRANCH  15  16
ENDBRANCH   1  15
TORSDOF 3
ENDMDL
MODEL 5
REMARK VINA RESULT:      -7.7      2.347      2.988
REMARK  3 active torsions:
REMARK  status: ('A' for Active; 'I' for Inactive)
REMARK    1  A    between atoms: C_3  and  N_4 
REMARK       I    between atoms: N_4  and  C_5 
REMARK    2  A    between atoms: C_5  and  C_6 
REMARK    3  A    between atoms: C_6  and  C_7 
ROOT
HETATM    1  C   UNL     1      41.622 -17.211   2.800  1.00  0.00     0.286 C 
HETATM    2  N   UNL     1      42.087 -15.841   2.316  1.00  0.00    -0.056 N 
HETATM    3  H   UNL     1      43.128 -15.880   2.355  1.00  0.00     0.278 HD
HETATM    4  H   UNL     1      41.846 -15.690   1.330  1.00  0.00     0.278 HD
HETATM    5  C   UNL     1      41.649 -14.688   3.173  1.00  0.00     0.209 C 
HETATM    6  C   UNL     1      42.065 -14.953   4.640  1.00  0.00     0.115 C 
HETATM    7  N   UNL     1      41.678 -16.284   5.109  1.00  0.00    -0.353 N 
HETATM    8  C   UNL     1      41.773 -17.408   4.323  1.00  0.00     0.249 C 
HETATM    9  O   UNL     1      41.863 -18.516   4.841  1.00  0.00    -0.271 OA
HETATM   10  C   UNL     1      40.146 -14.448   3.004  1.00  0.00     0.035 C 
HETATM   11  C   UNL     1      39.663 -13.337   3.932  1.00  0.00     0.002 C 
HETATM   12  C   UNL     1      40.019 -13.631   5.386  1.00  0.00     0.002 C 
HETATM   13  C   UNL     1      41.519 -13.861   5.567  1.00  0.00     0.027 C 
HETATM   14  H   UNL     1      41.825 -16.495   6.094  1.00  0.00     0.163 HD
ENDROOT
BRANCH   1  15
HETATM   15  C   UNL     1      42.314 -18.336   2.014  1.00  0.00     0.146 C 
BRANCH  15  16
HETATM   16  C   UNL     1      43.797 -18.095   1.927  1.00  0.00     0.224 C 
HETATM   17  N   UNL     1      44.709 -18.922   2.495  1.00  0.00    -0.326 N 
HETATM   18  H   UNL     1      45.657 -18.548   2.437  1.00  0.00     0.169 HD
HETATM   19  O   UNL     1      44.194 -17.123   1.268  1.00  0.00    -0.273 OA
BRANCH  17  20
HETATM   20  C   UNL     1      44.647 -20.179   3.144  1.00  0.00     0.056 A 
HETATM   21  C   UNL     1      44.474 -21.404   2.495  1.00  0.00     0.031 A 
HETATM   22  C   UNL     1      44.460 -22.603   3.223  1.00  0.00     0.002 A 
HETATM   23  C   UNL     1      44.623 -22.595   4.606  1.00  0.00     0.002 A 
HETATM   24  C   UNL     1      44.806 -21.388   5.270  1.00  0.00     0.026 A 
HETATM   25  C   UNL     1      44.822 -20.194   4.546  1.00  0.00     0.060 A 
HETATM   26 CL   UNL     1      45.067 -18.720   5.425  1.00  0.00    -0.082 Cl
ENDBRANCH  17  20
ENDBRANCH  15  16
ENDBRANCH   1  15
TORSDOF 3
ENDMDL
MODEL 6
REMARK VINA RESULT:      -7.6      4.794      5.881
REMARK  3 active torsions:
REMARK  status: ('A' for Active; 'I' for Inactive)
REMARK    1  A    between atoms: C_3  and  N_4 
REMARK       I    between atoms: N_4  and  C_5 
REMARK    2  A    between atoms: C_5  and  C_6 
REMARK    3  A    between atoms: C_6  and  C_7 
ROOT
HETATM    1  C   UNL     1      40.569 -14.937   1.010  1.00  0.00     0.286 C 
HETATM    2  N   UNL     1      41.508 -14.293  -0.006  1.00  0.00    -0.056 N 
HETATM    3  H   UNL     1      41.612 -13.305   0.313  1.00  0.00     0.278 HD
HETATM    4  H   UNL     1      42.445 -14.705   0.036  1.00  0.00     0.278 HD
HETATM    5  C   UNL     1      40.984 -14.256  -1.413  1.00  0.00     0.209 C 
HETATM    6  C   UNL     1      39.584 -13.597  -1.422  1.00  0.00     0.115 C 
HETATM    7  N   UNL     1      38.683 -14.162  -0.417  1.00  0.00    -0.353 N 
HETATM    8  C   UNL     1      39.097 -14.501   0.849  1.00  0.00     0.249 C 
HETATM    9  O   UNL     1      38.288 -14.553   1.770  1.00  0.00    -0.271 OA
HETATM   10  C   UNL     1      40.993 -15.664  -2.015  1.00  0.00     0.035 C 
HETATM   11  C   UNL     1      40.383 -15.665  -3.414  1.00  0.00     0.002 C 
HETATM   12  C   UNL     1      38.977 -15.071  -3.409  1.00  0.00     0.002 C 
HETATM   13  C   UNL     1      38.960 -13.660  -2.820  1.00  0.00     0.027 C 
HETATM   14  H   UNL     1      37.713 -13.851  -0.429  1.00  0.00     0.163 HD
ENDROOT
BRANCH   1  15
HETATM   15  C   UNL     1      41.072 -14.711   2.444  1.00  0.00     0.146 C 
BRANCH  15  16
HETATM   16  C   UNL     1      42.534 -14.351   2.449  1.00  0.00     0.224 C 
HETATM   17  N   UNL     1      43.515 -15.277   2.579  1.00  0.00    -0.326 N 
HETATM   18  H   UNL     1      44.437 -14.850   2.676  1.00  0.00     0.169 HD
HETATM   19  O   UNL     1      42.845 -13.164   2.279  1.00  0.00    -0.273 OA
BRANCH  17  20
HETATM   20  C   UNL     1      43.554 -16.692   2.608  1.00  0.00     0.056 A 
HETATM   21  C   UNL     1      43.636 -17.512   1.480  1.00  0.00     0.031 A 
HETATM   22  C   UNL     1      43.703 -18.907   1.612  1.00  0.00     0.002 A 
HETATM   23  C   UNL     1      43.695 -19.501   2.871  1.00  0.00     0.002 A 
HETATM   24  C   UNL     1      43.624 -18.704   4.008  1.00  0.00     0.026 A 
HETATM   25  C   UNL     1      43.559 -17.315   3.877  1.00  0.00     0.060 A 
HETATM   26 CL   UNL     1      43.484 -16.369   5.328  1.00  0.00    -0.082 Cl
ENDBRANCH  17  20
ENDBRANCH  15  16
ENDBRANCH   1  15
TORSDOF 3
ENDMDL
MODEL 7
REMARK VINA RESULT:      -7.4      5.610      7.595
REMARK  3 active torsions:
REMARK  status: ('A' for Active; 'I' for Inactive)
REMARK    1  A    between atoms: C_3  and  N_4 
REMARK       I    between atoms: N_4  and  C_5 
REMARK    2  A    between atoms: C_5  and  C_6 
REMARK    3  A    between atoms: C_6  and  C_7 
ROOT
HETATM    1  C   UNL     1      40.042 -15.182   1.684  1.00  0.00     0.286 C 
HETATM    2  N   UNL     1      40.151 -16.590   1.104  1.00  0.00    -0.056 N 
HETATM    3  H   UNL     1      39.298 -17.086   1.441  1.00  0.00     0.278 HD
HETATM    4  H   UNL     1      40.088 -16.579   0.081  1.00  0.00     0.278 HD
HETATM    5  C   UNL     1      41.342 -17.375   1.575  1.00  0.00     0.209 C 
HETATM    6  C   UNL     1      41.371 -17.385   3.122  1.00  0.00     0.115 C 
HETATM    7  N   UNL     1      41.212 -16.051   3.702  1.00  0.00    -0.353 N 
HETATM    8  C   UNL     1      40.338 -15.118   3.198  1.00  0.00     0.249 C 
HETATM    9  O   UNL     1      39.913 -14.219   3.916  1.00  0.00    -0.271 OA
HETATM   10  C   UNL     1      42.622 -16.814   0.950  1.00  0.00     0.035 C 
HETATM   11  C   UNL     1      43.854 -17.541   1.482  1.00  0.00     0.002 C 
HETATM   12  C   UNL     1      43.913 -17.495   3.006  1.00  0.00     0.002 C 
HETATM   13  C   UNL     1      42.643 -18.064   3.639  1.00  0.00     0.027 C 
HETATM   14  H   UNL     1      41.322 -15.962   4.711  1.00  0.00     0.163 HD
ENDROOT
BRANCH   1  15
HETATM   15  C   UNL     1      38.682 -14.552   1.347  1.00  0.00     0.146 C 
BRANCH  15  16
HETATM   16  C   UNL     1      38.863 -13.227   0.656  1.00  0.00     0.224 C 
HETATM   17  N   UNL     1      39.056 -13.118  -0.682  1.00  0.00    -0.326 N 
HETATM   18  H   UNL     1      39.273 -12.162  -0.963  1.00  0.00     0.169 HD
HETATM   19  O   UNL     1      38.785 -12.195   1.338  1.00  0.00    -0.273 OA
BRANCH  17  20
HETATM   20  C   UNL     1      39.022 -14.023  -1.770  1.00  0.00     0.056 A 
HETATM   21  C   UNL     1      37.876 -14.354  -2.497  1.00  0.00     0.031 A 
HETATM   22  C   UNL     1      37.950 -15.237  -3.585  1.00  0.00     0.002 A 
HETATM   23  C   UNL     1      39.167 -15.796  -3.964  1.00  0.00     0.002 A 
HETATM   24  C   UNL     1      40.321 -15.472  -3.261  1.00  0.00     0.026 A 
HETATM   25  C   UNL     1      40.250 -14.592  -2.179  1.00  0.00     0.060 A 
HETATM   26 CL   UNL     1      41.722 -14.214  -1.346  1.00  0.00    -0.082 Cl
ENDBRANCH  17  20
ENDBRANCH  15  16
ENDBRANCH   1  15
TORSDOF 3
ENDMDL
MODEL 8
REMARK VINA RESULT:      -7.4      3.772      4.414
REMARK  3 active torsions:
REMARK  status: ('A' for Active; 'I' for Inactive)
REMARK    1  A    between atoms: C_3  and  N_4 
REMARK       I    between atoms: N_4  and  C_5 
REMARK    2  A    between atoms: C_5  and  C_6 
REMARK    3  A    between atoms: C_6  and  C_7 
ROOT
HETATM    1  C   UNL     1      41.025 -16.469   1.370  1.00  0.00     0.286 C 
HETATM    2  N   UNL     1      42.163 -16.130   0.412  1.00  0.00    -0.056 N 
HETATM    3  H   UNL     1      42.890 -15.677   1.007  1.00  0.00     0.278 HD
HETATM    4  H   UNL     1      42.596 -16.977   0.029  1.00  0.00     0.278 HD
HETATM    5  C   UNL     1      41.804 -15.156  -0.674  1.00  0.00     0.209 C 
HETATM    6  C   UNL     1      41.186 -13.887  -0.040  1.00  0.00     0.115 C 
HETATM    7  N   UNL     1      40.128 -14.191   0.925  1.00  0.00    -0.353 N 
HETATM    8  C   UNL     1      40.207 -15.238   1.812  1.00  0.00     0.249 C 
HETATM    9  O   UNL     1      39.558 -15.214   2.852  1.00  0.00    -0.271 OA
HETATM   10  C   UNL     1      40.887 -15.827  -1.700  1.00  0.00     0.035 C 
HETATM   11  C   UNL     1      40.438 -14.831  -2.766  1.00  0.00     0.002 C 
HETATM   12  C   UNL     1      39.772 -13.609  -2.142  1.00  0.00     0.002 C 
HETATM   13  C   UNL     1      40.685 -12.925  -1.123  1.00  0.00     0.027 C 
HETATM   14  H   UNL     1      39.603 -13.406   1.308  1.00  0.00     0.163 HD
ENDROOT
BRANCH   1  15
HETATM   15  C   UNL     1      41.542 -17.267   2.577  1.00  0.00     0.146 C 
BRANCH  15  16
HETATM   16  C   UNL     1      42.960 -16.883   2.905  1.00  0.00     0.224 C 
HETATM   17  N   UNL     1      43.938 -17.799   3.112  1.00  0.00    -0.326 N 
HETATM   18  H   UNL     1      44.806 -17.369   3.435  1.00  0.00     0.169 HD
HETATM   19  O   UNL     1      43.247 -15.678   2.940  1.00  0.00    -0.273 OA
BRANCH  17  20
HETATM   20  C   UNL     1      44.031 -19.205   2.982  1.00  0.00     0.056 A 
HETATM   21  C   UNL     1      43.662 -19.927   1.843  1.00  0.00     0.031 A 
HETATM   22  C   UNL     1      43.824 -21.320   1.797  1.00  0.00     0.002 A 
HETATM   23  C   UNL     1      44.358 -22.009   2.882  1.00  0.00     0.002 A 
HETATM   24  C   UNL     1      44.740 -21.309   4.020  1.00  0.00     0.026 A 
HETATM   25  C   UNL     1      44.583 -19.922   4.068  1.00  0.00     0.060 A 
HETATM   26 CL   UNL     1      45.088 -19.100   5.507  1.00  0.00    -0.082 Cl
ENDBRANCH  17  20
ENDBRANCH  15  16
ENDBRANCH   1  15
TORSDOF 3
ENDMDL
MODEL 9
REMARK VINA RESULT:      -7.3      3.119      4.402
REMARK  3 active torsions:
REMARK  status: ('A' for Active; 'I' for Inactive)
REMARK    1  A    between atoms: C_3  and  N_4 
REMARK       I    between atoms: N_4  and  C_5 
REMARK    2  A    between atoms: C_5  and  C_6 
REMARK    3  A    between atoms: C_6  and  C_7 
ROOT
HETATM    1  C   UNL     1      41.614 -14.313   5.797  1.00  0.00     0.286 C 
HETATM    2  N   UNL     1      40.190 -14.211   6.335  1.00  0.00    -0.056 N 
HETATM    3  H   UNL     1      39.667 -14.978   5.860  1.00  0.00     0.278 HD
HETATM    4  H   UNL     1      40.152 -14.421   7.339  1.00  0.00     0.278 HD
HETATM    5  C   UNL     1      39.486 -12.923   6.015  1.00  0.00     0.209 C 
HETATM    6  C   UNL     1      39.546 -12.672   4.490  1.00  0.00     0.115 C 
HETATM    7  N   UNL     1      40.894 -12.819   3.942  1.00  0.00    -0.353 N 
HETATM    8  C   UNL     1      41.760 -13.807   4.347  1.00  0.00     0.249 C 
HETATM    9  O   UNL     1      42.667 -14.173   3.607  1.00  0.00    -0.271 OA
HETATM   10  C   UNL     1      40.082 -11.779   6.840  1.00  0.00     0.035 C 
HETATM   11  C   UNL     1      39.441 -10.445   6.468  1.00  0.00     0.002 C 
HETATM   12  C   UNL     1      39.556 -10.170   4.971  1.00  0.00     0.002 C 
HETATM   13  C   UNL     1      38.954 -11.303   4.139  1.00  0.00     0.027 C 
HETATM   14  H   UNL     1      41.033 -12.570   2.964  1.00  0.00     0.163 HD
ENDROOT
BRANCH   1  15
HETATM   15  C   UNL     1      42.161 -15.741   5.956  1.00  0.00     0.146 C 
BRANCH  15  16
HETATM   16  C   UNL     1      41.099 -16.759   5.635  1.00  0.00     0.224 C 
HETATM   17  N   UNL     1      41.070 -17.445   4.467  1.00  0.00    -0.326 N 
HETATM   18  H   UNL     1      40.223 -18.006   4.371  1.00  0.00     0.169 HD
HETATM   19  O   UNL     1      40.247 -17.008   6.501  1.00  0.00    -0.273 OA
BRANCH  17  20
HETATM   20  C   UNL     1      41.942 -17.561   3.357  1.00  0.00     0.056 A 
HETATM   21  C   UNL     1      43.174 -18.220   3.376  1.00  0.00     0.031 A 
HETATM   22  C   UNL     1      43.954 -18.312   2.214  1.00  0.00     0.002 A 
HETATM   23  C   UNL     1      43.513 -17.753   1.017  1.00  0.00     0.002 A 
HETATM   24  C   UNL     1      42.285 -17.102   0.974  1.00  0.00     0.026 A 
HETATM   25  C   UNL     1      41.507 -17.012   2.130  1.00  0.00     0.060 A 
HETATM   26 CL   UNL     1      39.980 -16.200   2.014  1.00  0.00    -0.082 Cl
ENDBRANCH  17  20
ENDBRANCH  15  16
ENDBRANCH   1  15
TORSDOF 3
ENDMDL
MODEL 10
REMARK VINA RESULT:      -7.3      2.696      6.319
REMARK  3 active torsions:
REMARK  status: ('A' for Active; 'I' for Inactive)
REMARK    1  A    between atoms: C_3  and  N_4 
REMARK       I    between atoms: N_4  and  C_5 
REMARK    2  A    between atoms: C_5  and  C_6 
REMARK    3  A    between atoms: C_6  and  C_7 
ROOT
HETATM    1  C   UNL     1      42.696 -17.797   5.831  1.00  0.00     0.286 C 
HETATM    2  N   UNL     1      44.210 -17.971   5.915  1.00  0.00    -0.056 N 
HETATM    3  H   UNL     1      44.604 -17.084   5.533  1.00  0.00     0.278 HD
HETATM    4  H   UNL     1      44.528 -18.028   6.888  1.00  0.00     0.278 HD
HETATM    5  C   UNL     1      44.762 -19.098   5.089  1.00  0.00     0.209 C 
HETATM    6  C   UNL     1      44.278 -18.946   3.627  1.00  0.00     0.115 C 
HETATM    7  N   UNL     1      42.835 -18.723   3.525  1.00  0.00    -0.353 N 
HETATM    8  C   UNL     1      42.143 -17.915   4.396  1.00  0.00     0.249 C 
HETATM    9  O   UNL     1      41.078 -17.411   4.054  1.00  0.00    -0.271 OA
HETATM   10  C   UNL     1      44.383 -20.443   5.714  1.00  0.00     0.035 C 
HETATM   11  C   UNL     1      44.858 -21.604   4.845  1.00  0.00     0.002 C 
HETATM   12  C   UNL     1      44.328 -21.485   3.419  1.00  0.00     0.002 C 
HETATM   13  C   UNL     1      44.711 -20.149   2.781  1.00  0.00     0.027 C 
HETATM   14  H   UNL     1      42.426 -18.715   2.593  1.00  0.00     0.163 HD
ENDROOT
BRANCH   1  15
HETATM   15  C   UNL     1      42.256 -16.486   6.501  1.00  0.00     0.146 C 
BRANCH  15  16
HETATM   16  C   UNL     1      43.431 -15.567   6.704  1.00  0.00     0.224 C 
HETATM   17  N   UNL     1      43.765 -14.600   5.815  1.00  0.00    -0.326 N 
HETATM   18  H   UNL     1      44.650 -14.149   6.052  1.00  0.00     0.169 HD
HETATM   19  O   UNL     1      44.085 -15.676   7.750  1.00  0.00    -0.273 OA
BRANCH  17  20
HETATM   20  C   UNL     1      43.171 -14.074   4.642  1.00  0.00     0.056 A 
HETATM   21  C   UNL     1      43.343 -14.596   3.358  1.00  0.00     0.031 A 
HETATM   22  C   UNL     1      42.683 -14.025   2.260  1.00  0.00     0.002 A 
HETATM   23  C   UNL     1      41.841 -12.929   2.429  1.00  0.00     0.002 A 
HETATM   24  C   UNL     1      41.649 -12.400   3.700  1.00  0.00     0.026 A 
HETATM   25  C   UNL     1      42.303 -12.969   4.795  1.00  0.00     0.060 A 
HETATM   26 CL   UNL     1      42.016 -12.277   6.358  1.00  0.00    -0.082 Cl
ENDBRANCH  17  20
ENDBRANCH  15  16
ENDBRANCH   1  15
TORSDOF 3
ENDMDL
