MODEL 1
REMARK VINA RESULT:      -9.9      0.000      0.000
REMARK  7 active torsions:
REMARK  status: ('A' for Active; 'I' for Inactive)
REMARK    1  A    between atoms: C_2  and  C_3 
REMARK    2  A    between atoms: C_3  and  N_4 
REMARK       I    between atoms: N_4  and  C_5 
REMARK    3  A    between atoms: C_5  and  C_6 
REMARK    4  A    between atoms: C_6  and  C_7 
REMARK    5  A    between atoms: C_7  and  C_8 
REMARK       I    between atoms: C_8  and  N_9 
REMARK    6  A    between atoms: N_9  and  N_10 
REMARK       I    between atoms: N_10  and  C_11 
REMARK    7  A    between atoms: C_11  and  C_12 
ROOT
HETATM    1  C   UNL     1      43.092 -13.382   6.029  1.00  0.00     0.236 C 
HETATM    2  N   UNL     1      44.012 -13.237   7.039  1.00  0.00    -0.267 N 
HETATM    3  O   UNL     1      41.942 -12.949   6.100  1.00  0.00    -0.272 OA
HETATM    4  H   UNL     1      44.900 -13.738   7.076  1.00  0.00     0.190 HD
ENDROOT
BRANCH   1   5
HETATM    5  C   UNL     1      43.558 -14.195   4.847  1.00  0.00     0.114 C 
BRANCH   5   6
HETATM    6  C   UNL     1      42.367 -14.882   4.199  1.00  0.00     0.112 C 
BRANCH   6   7
HETATM    7  C   UNL     1      42.714 -15.656   2.939  1.00  0.00     0.218 C 
HETATM    8  N   UNL     1      43.348 -16.857   3.135  1.00  0.00    -0.357 N 
HETATM    9  H   UNL     1      43.271 -17.328   4.035  1.00  0.00     0.162 HD
HETATM   10  O   UNL     1      42.507 -15.182   1.824  1.00  0.00    -0.274 OA
BRANCH   8  11
HETATM   11  C   UNL     1      43.769 -17.661   2.010  1.00  0.00     0.161 C 
BRANCH  11  12
HETATM   12  C   UNL     1      44.013 -19.108   2.372  1.00  0.00    -0.038 A 
HETATM   13  C   UNL     1      43.746 -20.162   1.464  1.00  0.00     0.012 A 
HETATM   14  C   UNL     1      43.944 -21.499   1.823  1.00  0.00     0.040 A 
HETATM   15  C   UNL     1      44.383 -21.761   3.101  1.00  0.00     0.105 A 
HETATM   16  C   UNL     1      44.622 -20.752   4.002  1.00  0.00     0.105 A 
HETATM   17  O   UNL     1      44.615 -22.993   3.627  1.00  0.00    -0.323 OA
HETATM   18  C   UNL     1      44.446 -19.423   3.672  1.00  0.00     0.048 A 
HETATM   19  O   UNL     1      45.030 -21.222   5.212  1.00  0.00    -0.323 OA
HETATM   20  C   UNL     1      45.010 -22.644   4.969  1.00  0.00     0.352 A 
ENDBRANCH  11  12
ENDBRANCH   8  11
ENDBRANCH   6   7
ENDBRANCH   5   6
ENDBRANCH   1   5
BRANCH   2  21
HETATM   21  N   UNL     1      43.582 -12.644   8.231  1.00  0.00    -0.262 N 
HETATM   22  C   UNL     1      44.513 -12.093   9.084  1.00  0.00     0.286 C 
HETATM   23  O   UNL     1      45.714 -12.093   8.818  1.00  0.00    -0.264 OA
HETATM   24  H   UNL     1      42.588 -12.695   8.438  1.00  0.00     0.190 HD
BRANCH  22  25
HETATM   25  C   UNL     1      43.981 -11.512  10.297  1.00  0.00     0.103 A 
HETATM   26  N   UNL     1      42.743 -11.872  10.783  1.00  0.00    -0.351 N 
HETATM   27  H   UNL     1      42.137 -12.546  10.329  1.00  0.00     0.166 HD
HETATM   28  C   UNL     1      42.461 -11.217  11.958  1.00  0.00     0.043 A 
HETATM   29  C   UNL     1      43.547 -10.389  12.231  1.00  0.00    -0.005 A 
HETATM   30  C   UNL     1      41.340 -11.297  12.791  1.00  0.00     0.032 A 
HETATM   31  C   UNL     1      44.491 -10.576  11.182  1.00  0.00     0.049 A 
HETATM   32  C   UNL     1      43.522  -9.592  13.391  1.00  0.00     0.037 A 
HETATM   33  C   UNL     1      42.408  -9.663  14.233  1.00  0.00     0.035 A 
HETATM   34  C   UNL     1      41.334 -10.501  13.941  1.00  0.00     0.026 A 
HETATM   35 CL   UNL     1      42.367  -8.698  15.661  1.00  0.00    -0.084 Cl
ENDBRANCH  22  25
ENDBRANCH   2  21
TORSDOF 7
ENDMDL
MODEL 2
REMARK VINA RESULT:      -9.2      4.623     11.454
REMARK  7 active torsions:
REMARK  status: ('A' for Active; 'I' for Inactive)
REMARK    1  A    between atoms: C_2  and  C_3 
REMARK    2  A    between atoms: C_3  and  N_4 
REMARK       I    between atoms: N_4  and  C_5 
REMARK    3  A    between atoms: C_5  and  C_6 
REMARK    4  A    between atoms: C_6  and  C_7 
REMARK    5  A    between atoms: C_7  and  C_8 
REMARK       I    between atoms: C_8  and  N_9 
REMARK    6  A    between atoms: N_9  and  N_10 
REMARK       I    between atoms: N_10  and  C_11 
REMARK    7  A    between atoms: C_11  and  C_12 
ROOT
HETATM    1  C   UNL     1      39.542 -13.677   4.928  1.00  0.00     0.236 C 
HETATM    2  N   UNL     1      39.752 -14.773   5.729  1.00  0.00    -0.267 N 
HETATM    3  O   UNL     1      39.857 -13.643   3.739  1.00  0.00    -0.272 OA
HETATM    4  H   UNL     1      39.667 -14.759   6.746  1.00  0.00     0.190 HD
ENDROOT
BRANCH   1   5
HETATM    5  C   UNL     1      38.975 -12.467   5.630  1.00  0.00     0.114 C 
BRANCH   5   6
HETATM    6  C   UNL     1      39.382 -12.490   7.094  1.00  0.00     0.112 C 
BRANCH   6   7
HETATM    7  C   UNL     1      39.886 -11.155   7.613  1.00  0.00     0.218 C 
HETATM    8  N   UNL     1      41.218 -11.110   7.940  1.00  0.00    -0.357 N 
HETATM    9  H   UNL     1      41.860 -11.794   7.543  1.00  0.00     0.162 HD
HETATM   10  O   UNL     1      39.119 -10.213   7.798  1.00  0.00    -0.274 OA
BRANCH   8  11
HETATM   11  C   UNL     1      41.803  -9.906   8.487  1.00  0.00     0.161 C 
BRANCH  11  12
HETATM   12  C   UNL     1      42.159 -10.030   9.951  1.00  0.00    -0.038 A 
HETATM   13  C   UNL     1      43.455 -10.409  10.377  1.00  0.00     0.012 A 
HETATM   14  C   UNL     1      43.761 -10.553  11.735  1.00  0.00     0.040 A 
HETATM   15  C   UNL     1      42.751 -10.338  12.645  1.00  0.00     0.105 A 
HETATM   16  C   UNL     1      41.482  -9.994  12.247  1.00  0.00     0.105 A 
HETATM   17  O   UNL     1      42.861 -10.445  13.996  1.00  0.00    -0.323 OA
HETATM   18  C   UNL     1      41.154  -9.835  10.916  1.00  0.00     0.048 A 
HETATM   19  O   UNL     1      40.631  -9.846  13.297  1.00  0.00    -0.323 OA
HETATM   20  C   UNL     1      41.510 -10.147  14.401  1.00  0.00     0.352 A 
ENDBRANCH  11  12
ENDBRANCH   8  11
ENDBRANCH   6   7
ENDBRANCH   5   6
ENDBRANCH   1   5
BRANCH   2  21
HETATM   21  N   UNL     1      40.435 -15.862   5.177  1.00  0.00    -0.262 N 
HETATM   22  C   UNL     1      41.788 -15.992   5.399  1.00  0.00     0.286 C 
HETATM   23  O   UNL     1      42.412 -15.183   6.085  1.00  0.00    -0.264 OA
HETATM   24  H   UNL     1      39.897 -16.490   4.585  1.00  0.00     0.190 HD
BRANCH  22  25
HETATM   25  C   UNL     1      42.415 -17.140   4.782  1.00  0.00     0.103 A 
HETATM   26  N   UNL     1      43.310 -17.927   5.474  1.00  0.00    -0.351 N 
HETATM   27  H   UNL     1      43.586 -17.753   6.433  1.00  0.00     0.166 HD
HETATM   28  C   UNL     1      43.752 -18.974   4.700  1.00  0.00     0.043 A 
HETATM   29  C   UNL     1      43.135 -18.848   3.457  1.00  0.00    -0.005 A 
HETATM   30  C   UNL     1      44.639 -20.012   5.004  1.00  0.00     0.032 A 
HETATM   31  C   UNL     1      42.304 -17.693   3.517  1.00  0.00     0.049 A 
HETATM   32  C   UNL     1      43.414 -19.800   2.458  1.00  0.00     0.037 A 
HETATM   33  C   UNL     1      44.297 -20.844   2.750  1.00  0.00     0.035 A 
HETATM   34  C   UNL     1      44.900 -20.951   4.001  1.00  0.00     0.026 A 
HETATM   35 CL   UNL     1      44.642 -22.020   1.538  1.00  0.00    -0.084 Cl
ENDBRANCH  22  25
ENDBRANCH   2  21
TORSDOF 7
ENDMDL
MODEL 3
REMARK VINA RESULT:      -9.2      1.554      1.950
REMARK  7 active torsions:
REMARK  status: ('A' for Active; 'I' for Inactive)
REMARK    1  A    between atoms: C_2  and  C_3 
REMARK    2  A    between atoms: C_3  and  N_4 
REMARK       I    between atoms: N_4  and  C_5 
REMARK    3  A    between atoms: C_5  and  C_6 
REMARK    4  A    between atoms: C_6  and  C_7 
REMARK    5  A    between atoms: C_7  and  C_8 
REMARK       I    between atoms: C_8  and  N_9 
REMARK    6  A    between atoms: N_9  and  N_10 
REMARK       I    between atoms: N_10  and  C_11 
REMARK    7  A    between atoms: C_11  and  C_12 
ROOT
HETATM    1  C   UNL     1      41.217 -12.454   6.109  1.00  0.00     0.236 C 
HETATM    2  N   UNL     1      42.309 -11.920   6.749  1.00  0.00    -0.267 N 
HETATM    3  O   UNL     1      40.101 -12.522   6.626  1.00  0.00    -0.272 OA
HETATM    4  H   UNL     1      43.268 -12.019   6.415  1.00  0.00     0.190 HD
ENDROOT
BRANCH   1   5
HETATM    5  C   UNL     1      41.494 -13.044   4.748  1.00  0.00     0.114 C 
BRANCH   5   6
HETATM    6  C   UNL     1      42.987 -13.288   4.593  1.00  0.00     0.112 C 
BRANCH   6   7
HETATM    7  C   UNL     1      43.477 -14.550   5.282  1.00  0.00     0.218 C 
HETATM    8  N   UNL     1      43.227 -15.724   4.618  1.00  0.00    -0.357 N 
HETATM    9  H   UNL     1      43.048 -15.711   3.615  1.00  0.00     0.162 HD
HETATM   10  O   UNL     1      43.989 -14.508   6.398  1.00  0.00    -0.274 OA
BRANCH   8  11
HETATM   11  C   UNL     1      43.606 -16.994   5.196  1.00  0.00     0.161 C 
BRANCH  11  12
HETATM   12  C   UNL     1      43.720 -18.103   4.175  1.00  0.00    -0.038 A 
HETATM   13  C   UNL     1      43.290 -17.934   2.836  1.00  0.00     0.012 A 
HETATM   14  C   UNL     1      43.370 -18.979   1.909  1.00  0.00     0.040 A 
HETATM   15  C   UNL     1      43.858 -20.189   2.349  1.00  0.00     0.105 A 
HETATM   16  C   UNL     1      44.255 -20.376   3.651  1.00  0.00     0.105 A 
HETATM   17  O   UNL     1      43.993 -21.314   1.597  1.00  0.00    -0.323 OA
HETATM   18  C   UNL     1      44.198 -19.360   4.583  1.00  0.00     0.048 A 
HETATM   19  O   UNL     1      44.687 -21.645   3.884  1.00  0.00    -0.323 OA
HETATM   20  C   UNL     1      44.504 -22.236   2.581  1.00  0.00     0.352 A 
ENDBRANCH  11  12
ENDBRANCH   8  11
ENDBRANCH   6   7
ENDBRANCH   5   6
ENDBRANCH   1   5
BRANCH   2  21
HETATM   21  N   UNL     1      42.151 -11.517   8.080  1.00  0.00    -0.262 N 
HETATM   22  C   UNL     1      43.268 -11.341   8.868  1.00  0.00     0.286 C 
HETATM   23  O   UNL     1      44.404 -11.514   8.427  1.00  0.00    -0.264 OA
HETATM   24  H   UNL     1      41.199 -11.419   8.421  1.00  0.00     0.190 HD
BRANCH  22  25
HETATM   25  C   UNL     1      43.012 -10.935  10.231  1.00  0.00     0.103 A 
HETATM   26  N   UNL     1      41.872 -11.332  10.897  1.00  0.00    -0.351 N 
HETATM   27  H   UNL     1      41.155 -11.914  10.482  1.00  0.00     0.166 HD
HETATM   28  C   UNL     1      41.857 -10.852  12.185  1.00  0.00     0.043 A 
HETATM   29  C   UNL     1      43.019 -10.102  12.352  1.00  0.00    -0.005 A 
HETATM   30  C   UNL     1      40.915 -11.026  13.204  1.00  0.00     0.032 A 
HETATM   31  C   UNL     1      43.733 -10.155  11.121  1.00  0.00     0.049 A 
HETATM   32  C   UNL     1      43.261  -9.487  13.594  1.00  0.00     0.037 A 
HETATM   33  C   UNL     1      42.328  -9.654  14.622  1.00  0.00     0.035 A 
HETATM   34  C   UNL     1      41.174 -10.411  14.433  1.00  0.00     0.026 A 
HETATM   35 CL   UNL     1      42.614  -8.912  16.151  1.00  0.00    -0.084 Cl
ENDBRANCH  22  25
ENDBRANCH   2  21
TORSDOF 7
ENDMDL
MODEL 4
REMARK VINA RESULT:      -9.2      4.659     12.389
REMARK  7 active torsions:
REMARK  status: ('A' for Active; 'I' for Inactive)
REMARK    1  A    between atoms: C_2  and  C_3 
REMARK    2  A    between atoms: C_3  and  N_4 
REMARK       I    between atoms: N_4  and  C_5 
REMARK    3  A    between atoms: C_5  and  C_6 
REMARK    4  A    between atoms: C_6  and  C_7 
REMARK    5  A    between atoms: C_7  and  C_8 
REMARK       I    between atoms: C_8  and  N_9 
REMARK    6  A    between atoms: N_9  and  N_10 
REMARK       I    between atoms: N_10  and  C_11 
REMARK    7  A    between atoms: C_11  and  C_12 
ROOT
HETATM    1  C   UNL     1      45.860 -12.932   7.542  1.00  0.00     0.236 C 
HETATM    2  N   UNL     1      44.758 -13.750   7.599  1.00  0.00    -0.267 N 
HETATM    3  O   UNL     1      46.746 -13.054   6.696  1.00  0.00    -0.272 OA
HETATM    4  H   UNL     1      44.114 -13.782   8.390  1.00  0.00     0.190 HD
ENDROOT
BRANCH   1   5
HETATM    5  C   UNL     1      45.964 -11.915   8.652  1.00  0.00     0.114 C 
BRANCH   5   6
HETATM    6  C   UNL     1      44.919 -12.213   9.716  1.00  0.00     0.112 C 
BRANCH   6   7
HETATM    7  C   UNL     1      43.758 -11.233   9.726  1.00  0.00     0.218 C 
HETATM    8  N   UNL     1      43.240 -10.941  10.963  1.00  0.00    -0.357 N 
HETATM    9  H   UNL     1      43.804 -11.093  11.797  1.00  0.00     0.162 HD
HETATM   10  O   UNL     1      43.275 -10.807   8.681  1.00  0.00    -0.274 OA
BRANCH   8  11
HETATM   11  C   UNL     1      42.103 -10.057  11.097  1.00  0.00     0.161 C 
BRANCH  11  12
HETATM   12  C   UNL     1      41.816  -9.670  12.529  1.00  0.00    -0.038 A 
HETATM   13  C   UNL     1      42.515 -10.249  13.615  1.00  0.00     0.012 A 
HETATM   14  C   UNL     1      42.216  -9.908  14.939  1.00  0.00     0.040 A 
HETATM   15  C   UNL     1      41.198  -9.005  15.152  1.00  0.00     0.105 A 
HETATM   16  C   UNL     1      40.493  -8.453  14.110  1.00  0.00     0.105 A 
HETATM   17  O   UNL     1      40.762  -8.569  16.364  1.00  0.00    -0.323 OA
HETATM   18  C   UNL     1      40.774  -8.764  12.795  1.00  0.00     0.048 A 
HETATM   19  O   UNL     1      39.520  -7.603  14.534  1.00  0.00    -0.323 OA
HETATM   20  C   UNL     1      39.689  -7.692  15.964  1.00  0.00     0.352 A 
ENDBRANCH  11  12
ENDBRANCH   8  11
ENDBRANCH   6   7
ENDBRANCH   5   6
ENDBRANCH   1   5
BRANCH   2  21
HETATM   21  N   UNL     1      44.696 -14.822   6.702  1.00  0.00    -0.262 N 
HETATM   22  C   UNL     1      44.165 -16.022   7.121  1.00  0.00     0.286 C 
HETATM   23  O   UNL     1      43.727 -16.173   8.262  1.00  0.00    -0.264 OA
HETATM   24  H   UNL     1      45.100 -14.675   5.781  1.00  0.00     0.190 HD
BRANCH  22  25
HETATM   25  C   UNL     1      44.149 -17.077   6.133  1.00  0.00     0.103 A 
HETATM   26  N   UNL     1      44.820 -18.264   6.339  1.00  0.00    -0.351 N 
HETATM   27  H   UNL     1      45.358 -18.466   7.173  1.00  0.00     0.166 HD
HETATM   28  C   UNL     1      44.640 -19.125   5.284  1.00  0.00     0.043 A 
HETATM   29  C   UNL     1      43.841 -18.465   4.352  1.00  0.00    -0.005 A 
HETATM   30  C   UNL     1      45.116 -20.426   5.086  1.00  0.00     0.032 A 
HETATM   31  C   UNL     1      43.544 -17.181   4.891  1.00  0.00     0.049 A 
HETATM   32  C   UNL     1      43.498 -19.126   3.158  1.00  0.00     0.037 A 
HETATM   33  C   UNL     1      43.966 -20.427   2.949  1.00  0.00     0.035 A 
HETATM   34  C   UNL     1      44.761 -21.068   3.896  1.00  0.00     0.026 A 
HETATM   35 CL   UNL     1      43.547 -21.250   1.494  1.00  0.00    -0.084 Cl
ENDBRANCH  22  25
ENDBRANCH   2  21
TORSDOF 7
ENDMDL
MODEL 5
REMARK VINA RESULT:      -9.2      2.580      3.135
REMARK  7 active torsions:
REMARK  status: ('A' for Active; 'I' for Inactive)
REMARK    1  A    between atoms: C_2  and  C_3 
REMARK    2  A    between atoms: C_3  and  N_4 
REMARK       I    between atoms: N_4  and  C_5 
REMARK    3  A    between atoms: C_5  and  C_6 
REMARK    4  A    between atoms: C_6  and  C_7 
REMARK    5  A    between atoms: C_7  and  C_8 
REMARK       I    between atoms: C_8  and  N_9 
REMARK    6  A    between atoms: N_9  and  N_10 
REMARK       I    between atoms: N_10  and  C_11 
REMARK    7  A    between atoms: C_11  and  C_12 
ROOT
HETATM    1  C   UNL     1      40.042 -13.898   5.181  1.00  0.00     0.236 C 
HETATM    2  N   UNL     1      39.191 -13.273   6.060  1.00  0.00    -0.267 N 
HETATM    3  O   UNL     1      41.216 -14.156   5.449  1.00  0.00    -0.272 OA
HETATM    4  H   UNL     1      38.282 -12.892   5.797  1.00  0.00     0.190 HD
ENDROOT
BRANCH   1   5
HETATM    5  C   UNL     1      39.466 -14.173   3.814  1.00  0.00     0.114 C 
BRANCH   5   6
HETATM    6  C   UNL     1      40.416 -13.653   2.746  1.00  0.00     0.112 C 
BRANCH   6   7
HETATM    7  C   UNL     1      41.058 -14.747   1.911  1.00  0.00     0.218 C 
HETATM    8  N   UNL     1      40.740 -16.032   2.270  1.00  0.00    -0.357 N 
HETATM    9  H   UNL     1      39.895 -16.213   2.809  1.00  0.00     0.162 HD
HETATM   10  O   UNL     1      41.870 -14.480   1.029  1.00  0.00    -0.274 OA
BRANCH   8  11
HETATM   11  C   UNL     1      41.326 -17.159   1.578  1.00  0.00     0.161 C 
BRANCH  11  12
HETATM   12  C   UNL     1      42.285 -17.951   2.436  1.00  0.00    -0.038 A 
HETATM   13  C   UNL     1      43.179 -18.898   1.881  1.00  0.00     0.012 A 
HETATM   14  C   UNL     1      44.038 -19.650   2.690  1.00  0.00     0.040 A 
HETATM   15  C   UNL     1      43.967 -19.457   4.051  1.00  0.00     0.105 A 
HETATM   16  C   UNL     1      43.088 -18.561   4.607  1.00  0.00     0.105 A 
HETATM   17  O   UNL     1      44.711 -20.106   4.987  1.00  0.00    -0.323 OA
HETATM   18  C   UNL     1      42.237 -17.798   3.833  1.00  0.00     0.048 A 
HETATM   19  O   UNL     1      43.162 -18.535   5.965  1.00  0.00    -0.323 OA
HETATM   20  C   UNL     1      44.184 -19.527   6.198  1.00  0.00     0.352 A 
ENDBRANCH  11  12
ENDBRANCH   8  11
ENDBRANCH   6   7
ENDBRANCH   5   6
ENDBRANCH   1   5
BRANCH   2  21
HETATM   21  N   UNL     1      39.720 -12.837   7.279  1.00  0.00    -0.262 N 
HETATM   22  C   UNL     1      39.630 -11.504   7.615  1.00  0.00     0.286 C 
HETATM   23  O   UNL     1      39.082 -10.686   6.876  1.00  0.00    -0.264 OA
HETATM   24  H   UNL     1      40.199 -13.531   7.848  1.00  0.00     0.190 HD
BRANCH  22  25
HETATM   25  C   UNL     1      40.212 -11.139   8.887  1.00  0.00     0.103 A 
HETATM   26  N   UNL     1      39.724 -11.648  10.072  1.00  0.00    -0.351 N 
HETATM   27  H   UNL     1      38.942 -12.288  10.127  1.00  0.00     0.166 HD
HETATM   28  C   UNL     1      40.449 -11.188  11.145  1.00  0.00     0.043 A 
HETATM   29  C   UNL     1      41.429 -10.336  10.638  1.00  0.00    -0.005 A 
HETATM   30  C   UNL     1      40.315 -11.460  12.511  1.00  0.00     0.032 A 
HETATM   31  C   UNL     1      41.268 -10.308   9.224  1.00  0.00     0.049 A 
HETATM   32  C   UNL     1      42.323  -9.717  11.532  1.00  0.00     0.037 A 
HETATM   33  C   UNL     1      42.201  -9.983  12.899  1.00  0.00     0.035 A 
HETATM   34  C   UNL     1      41.215 -10.840  13.383  1.00  0.00     0.026 A 
HETATM   35 CL   UNL     1      43.293  -9.237  14.005  1.00  0.00    -0.084 Cl
ENDBRANCH  22  25
ENDBRANCH   2  21
TORSDOF 7
ENDMDL
MODEL 6
REMARK VINA RESULT:      -9.2      5.904      9.440
REMARK  7 active torsions:
REMARK  status: ('A' for Active; 'I' for Inactive)
REMARK    1  A    between atoms: C_2  and  C_3 
REMARK    2  A    between atoms: C_3  and  N_4 
REMARK       I    between atoms: N_4  and  C_5 
REMARK    3  A    between atoms: C_5  and  C_6 
REMARK    4  A    between atoms: C_6  and  C_7 
REMARK    5  A    between atoms: C_7  and  C_8 
REMARK       I    between atoms: C_8  and  N_9 
REMARK    6  A    between atoms: N_9  and  N_10 
REMARK       I    between atoms: N_10  and  C_11 
REMARK    7  A    between atoms: C_11  and  C_12 
ROOT
HETATM    1  C   UNL     1      42.035 -13.322   1.310  1.00  0.00     0.236 C 
HETATM    2  N   UNL     1      41.714 -14.505   0.691  1.00  0.00    -0.267 N 
HETATM    3  O   UNL     1      42.880 -13.238   2.202  1.00  0.00    -0.272 OA
HETATM    4  H   UNL     1      40.900 -14.628   0.087  1.00  0.00     0.190 HD
ENDROOT
BRANCH   1   5
HETATM    5  C   UNL     1      41.213 -12.130   0.886  1.00  0.00     0.114 C 
BRANCH   5   6
HETATM    6  C   UNL     1      39.811 -12.246   1.465  1.00  0.00     0.112 C 
BRANCH   6   7
HETATM    7  C   UNL     1      39.777 -12.315   2.981  1.00  0.00     0.218 C 
HETATM    8  N   UNL     1      39.790 -13.577   3.519  1.00  0.00    -0.357 N 
HETATM    9  H   UNL     1      40.140 -14.359   2.967  1.00  0.00     0.162 HD
HETATM   10  O   UNL     1      39.661 -11.299   3.662  1.00  0.00    -0.274 OA
BRANCH   8  11
HETATM   11  C   UNL     1      39.714 -13.771   4.950  1.00  0.00     0.161 C 
BRANCH  11  12
HETATM   12  C   UNL     1      40.961 -14.394   5.533  1.00  0.00    -0.038 A 
HETATM   13  C   UNL     1      42.222 -13.755   5.458  1.00  0.00     0.012 A 
HETATM   14  C   UNL     1      43.375 -14.358   5.972  1.00  0.00     0.040 A 
HETATM   15  C   UNL     1      43.248 -15.609   6.533  1.00  0.00     0.105 A 
HETATM   16  C   UNL     1      42.036 -16.253   6.591  1.00  0.00     0.105 A 
HETATM   17  O   UNL     1      44.256 -16.348   7.066  1.00  0.00    -0.323 OA
HETATM   18  C   UNL     1      40.881 -15.678   6.102  1.00  0.00     0.048 A 
HETATM   19  O   UNL     1      42.129 -17.483   7.164  1.00  0.00    -0.323 OA
HETATM   20  C   UNL     1      43.542 -17.541   7.450  1.00  0.00     0.352 A 
ENDBRANCH  11  12
ENDBRANCH   8  11
ENDBRANCH   6   7
ENDBRANCH   5   6
ENDBRANCH   1   5
BRANCH   2  21
HETATM   21  N   UNL     1      42.319 -15.674   1.165  1.00  0.00    -0.262 N 
HETATM   22  C   UNL     1      41.639 -16.470   2.060  1.00  0.00     0.286 C 
HETATM   23  O   UNL     1      40.504 -16.189   2.443  1.00  0.00    -0.264 OA
HETATM   24  H   UNL     1      43.271 -15.857   0.857  1.00  0.00     0.190 HD
BRANCH  22  25
HETATM   25  C   UNL     1      42.344 -17.652   2.505  1.00  0.00     0.103 A 
HETATM   26  N   UNL     1      42.525 -18.736   1.673  1.00  0.00    -0.351 N 
HETATM   27  H   UNL     1      42.180 -18.776   0.722  1.00  0.00     0.166 HD
HETATM   28  C   UNL     1      43.246 -19.726   2.298  1.00  0.00     0.043 A 
HETATM   29  C   UNL     1      43.522 -19.274   3.587  1.00  0.00    -0.005 A 
HETATM   30  C   UNL     1      43.670 -20.971   1.824  1.00  0.00     0.032 A 
HETATM   31  C   UNL     1      42.948 -17.977   3.708  1.00  0.00     0.049 A 
HETATM   32  C   UNL     1      44.257 -20.103   4.456  1.00  0.00     0.037 A 
HETATM   33  C   UNL     1      44.689 -21.349   3.994  1.00  0.00     0.035 A 
HETATM   34  C   UNL     1      44.403 -21.779   2.700  1.00  0.00     0.026 A 
HETATM   35 CL   UNL     1      45.595 -22.371   5.046  1.00  0.00    -0.084 Cl
ENDBRANCH  22  25
ENDBRANCH   2  21
TORSDOF 7
ENDMDL
MODEL 7
REMARK VINA RESULT:      -9.2      4.403     11.600
REMARK  7 active torsions:
REMARK  status: ('A' for Active; 'I' for Inactive)
REMARK    1  A    between atoms: C_2  and  C_3 
REMARK    2  A    between atoms: C_3  and  N_4 
REMARK       I    between atoms: N_4  and  C_5 
REMARK    3  A    between atoms: C_5  and  C_6 
REMARK    4  A    between atoms: C_6  and  C_7 
REMARK    5  A    between atoms: C_7  and  C_8 
REMARK       I    between atoms: C_8  and  N_9 
REMARK    6  A    between atoms: N_9  and  N_10 
REMARK       I    between atoms: N_10  and  C_11 
REMARK    7  A    between atoms: C_11  and  C_12 
ROOT
HETATM    1  C   UNL     1      41.712 -12.307   4.712  1.00  0.00     0.236 C 
HETATM    2  N   UNL     1      42.017 -13.342   5.562  1.00  0.00    -0.267 N 
HETATM    3  O   UNL     1      41.778 -12.402   3.486  1.00  0.00    -0.272 OA
HETATM    4  H   UNL     1      42.143 -13.233   6.569  1.00  0.00     0.190 HD
ENDROOT
BRANCH   1   5
HETATM    5  C   UNL     1      41.373 -11.000   5.386  1.00  0.00     0.114 C 
BRANCH   5   6
HETATM    6  C   UNL     1      41.052 -11.251   6.851  1.00  0.00     0.112 C 
BRANCH   6   7
HETATM    7  C   UNL     1      42.007 -10.568   7.814  1.00  0.00     0.218 C 
HETATM    8  N   UNL     1      42.669 -11.400   8.682  1.00  0.00    -0.357 N 
HETATM    9  H   UNL     1      42.767 -12.389   8.460  1.00  0.00     0.162 HD
HETATM   10  O   UNL     1      42.105  -9.345   7.855  1.00  0.00    -0.274 OA
BRANCH   8  11
HETATM   11  C   UNL     1      43.570 -10.862   9.677  1.00  0.00     0.161 C 
BRANCH  11  12
HETATM   12  C   UNL     1      42.940 -10.734  11.045  1.00  0.00    -0.038 A 
HETATM   13  C   UNL     1      41.665 -11.280  11.335  1.00  0.00     0.012 A 
HETATM   14  C   UNL     1      41.078 -11.125  12.595  1.00  0.00     0.040 A 
HETATM   15  C   UNL     1      41.770 -10.400  13.539  1.00  0.00     0.105 A 
HETATM   16  C   UNL     1      42.996  -9.844  13.266  1.00  0.00     0.105 A 
HETATM   17  O   UNL     1      41.350 -10.137  14.806  1.00  0.00    -0.323 OA
HETATM   18  C   UNL     1      43.603  -9.990  12.035  1.00  0.00     0.048 A 
HETATM   19  O   UNL     1      43.500  -9.154  14.324  1.00  0.00    -0.323 OA
HETATM   20  C   UNL     1      42.445  -9.334  15.291  1.00  0.00     0.352 A 
ENDBRANCH  11  12
ENDBRANCH   8  11
ENDBRANCH   6   7
ENDBRANCH   5   6
ENDBRANCH   1   5
BRANCH   2  21
HETATM   21  N   UNL     1      42.506 -14.525   4.998  1.00  0.00    -0.262 N 
HETATM   22  C   UNL     1      41.802 -15.697   5.170  1.00  0.00     0.286 C 
HETATM   23  O   UNL     1      40.743 -15.728   5.796  1.00  0.00    -0.264 OA
HETATM   24  H   UNL     1      43.402 -14.471   4.520  1.00  0.00     0.190 HD
BRANCH  22  25
HETATM   25  C   UNL     1      42.386 -16.871   4.563  1.00  0.00     0.103 A 
HETATM   26  N   UNL     1      43.382 -17.586   5.193  1.00  0.00    -0.351 N 
HETATM   27  H   UNL     1      43.764 -17.337   6.097  1.00  0.00     0.166 HD
HETATM   28  C   UNL     1      43.760 -18.676   4.445  1.00  0.00     0.043 A 
HETATM   29  C   UNL     1      42.996 -18.653   3.280  1.00  0.00    -0.005 A 
HETATM   30  C   UNL     1      44.709 -19.669   4.710  1.00  0.00     0.032 A 
HETATM   31  C   UNL     1      42.143 -17.516   3.361  1.00  0.00     0.049 A 
HETATM   32  C   UNL     1      43.183 -19.668   2.323  1.00  0.00     0.037 A 
HETATM   33  C   UNL     1      44.126 -20.668   2.576  1.00  0.00     0.035 A 
HETATM   34  C   UNL     1      44.878 -20.671   3.749  1.00  0.00     0.026 A 
HETATM   35 CL   UNL     1      44.361 -21.920   1.415  1.00  0.00    -0.084 Cl
ENDBRANCH  22  25
ENDBRANCH   2  21
TORSDOF 7
ENDMDL
MODEL 8
REMARK VINA RESULT:      -9.2      5.919      9.545
REMARK  7 active torsions:
REMARK  status: ('A' for Active; 'I' for Inactive)
REMARK    1  A    between atoms: C_2  and  C_3 
REMARK    2  A    between atoms: C_3  and  N_4 
REMARK       I    between atoms: N_4  and  C_5 
REMARK    3  A    between atoms: C_5  and  C_6 
REMARK    4  A    between atoms: C_6  and  C_7 
REMARK    5  A    between atoms: C_7  and  C_8 
REMARK       I    between atoms: C_8  and  N_9 
REMARK    6  A    between atoms: N_9  and  N_10 
REMARK       I    between atoms: N_10  and  C_11 
REMARK    7  A    between atoms: C_11  and  C_12 
ROOT
HETATM    1  C   UNL     1      40.714 -14.548   0.472  1.00  0.00     0.236 C 
HETATM    2  N   UNL     1      41.998 -14.981   0.247  1.00  0.00    -0.267 N 
HETATM    3  O   UNL     1      39.917 -15.152   1.191  1.00  0.00    -0.272 OA
HETATM    4  H   UNL     1      42.607 -14.601  -0.478  1.00  0.00     0.190 HD
ENDROOT
BRANCH   1   5
HETATM    5  C   UNL     1      40.305 -13.318  -0.299  1.00  0.00     0.114 C 
BRANCH   5   6
HETATM    6  C   UNL     1      41.029 -12.103   0.258  1.00  0.00     0.112 C 
BRANCH   6   7
HETATM    7  C   UNL     1      40.821 -11.894   1.748  1.00  0.00     0.218 C 
HETATM    8  N   UNL     1      41.886 -12.222   2.548  1.00  0.00    -0.357 N 
HETATM    9  H   UNL     1      42.823 -12.263   2.151  1.00  0.00     0.162 HD
HETATM   10  O   UNL     1      39.735 -11.534   2.195  1.00  0.00    -0.274 OA
BRANCH   8  11
HETATM   11  C   UNL     1      41.792 -12.110   3.987  1.00  0.00     0.161 C 
BRANCH  11  12
HETATM   12  C   UNL     1      41.823 -13.446   4.691  1.00  0.00    -0.038 A 
HETATM   13  C   UNL     1      40.752 -14.369   4.594  1.00  0.00     0.012 A 
HETATM   14  C   UNL     1      40.778 -15.588   5.279  1.00  0.00     0.040 A 
HETATM   15  C   UNL     1      41.871 -15.853   6.073  1.00  0.00     0.105 A 
HETATM   16  C   UNL     1      42.906 -14.959   6.197  1.00  0.00     0.105 A 
HETATM   17  O   UNL     1      42.060 -16.975   6.818  1.00  0.00    -0.323 OA
HETATM   18  C   UNL     1      42.912 -13.753   5.526  1.00  0.00     0.048 A 
HETATM   19  O   UNL     1      43.876 -15.401   7.042  1.00  0.00    -0.323 OA
HETATM   20  C   UNL     1      43.326 -16.674   7.441  1.00  0.00     0.352 A 
ENDBRANCH  11  12
ENDBRANCH   8  11
ENDBRANCH   6   7
ENDBRANCH   5   6
ENDBRANCH   1   5
BRANCH   2  21
HETATM   21  N   UNL     1      42.377 -16.210   0.797  1.00  0.00    -0.262 N 
HETATM   22  C   UNL     1      43.142 -16.230   1.943  1.00  0.00     0.286 C 
HETATM   23  O   UNL     1      43.490 -15.192   2.506  1.00  0.00    -0.264 OA
HETATM   24  H   UNL     1      42.105 -17.046   0.286  1.00  0.00     0.190 HD
BRANCH  22  25
HETATM   25  C   UNL     1      43.496 -17.542   2.435  1.00  0.00     0.103 A 
HETATM   26  N   UNL     1      43.432 -18.655   1.624  1.00  0.00    -0.351 N 
HETATM   27  H   UNL     1      43.133 -18.626   0.656  1.00  0.00     0.166 HD
HETATM   28  C   UNL     1      43.842 -19.782   2.294  1.00  0.00     0.043 A 
HETATM   29  C   UNL     1      44.164 -19.388   3.591  1.00  0.00    -0.005 A 
HETATM   30  C   UNL     1      43.953 -21.106   1.854  1.00  0.00     0.032 A 
HETATM   31  C   UNL     1      43.938 -17.985   3.671  1.00  0.00     0.049 A 
HETATM   32  C   UNL     1      44.618 -20.358   4.505  1.00  0.00     0.037 A 
HETATM   33  C   UNL     1      44.735 -21.684   4.078  1.00  0.00     0.035 A 
HETATM   34  C   UNL     1      44.409 -22.054   2.775  1.00  0.00     0.026 A 
HETATM   35 CL   UNL     1      45.296 -22.880   5.185  1.00  0.00    -0.084 Cl
ENDBRANCH  22  25
ENDBRANCH   2  21
TORSDOF 7
ENDMDL
MODEL 9
REMARK VINA RESULT:      -9.1      1.895      2.445
REMARK  7 active torsions:
REMARK  status: ('A' for Active; 'I' for Inactive)
REMARK    1  A    between atoms: C_2  and  C_3 
REMARK    2  A    between atoms: C_3  and  N_4 
REMARK       I    between atoms: N_4  and  C_5 
REMARK    3  A    between atoms: C_5  and  C_6 
REMARK    4  A    between atoms: C_6  and  C_7 
REMARK    5  A    between atoms: C_7  and  C_8 
REMARK       I    between atoms: C_8  and  N_9 
REMARK    6  A    between atoms: N_9  and  N_10 
REMARK       I    between atoms: N_10  and  C_11 
REMARK    7  A    between atoms: C_11  and  C_12 
ROOT
HETATM    1  C   UNL     1      40.541 -14.176   4.994  1.00  0.00     0.236 C 
HETATM    2  N   UNL     1      41.119 -12.937   5.124  1.00  0.00    -0.267 N 
HETATM    3  O   UNL     1      40.224 -14.875   5.957  1.00  0.00    -0.272 OA
HETATM    4  H   UNL     1      41.550 -12.427   4.352  1.00  0.00     0.190 HD
ENDROOT
BRANCH   1   5
HETATM    5  C   UNL     1      40.399 -14.674   3.577  1.00  0.00     0.114 C 
BRANCH   5   6
HETATM    6  C   UNL     1      40.664 -16.171   3.533  1.00  0.00     0.112 C 
BRANCH   6   7
HETATM    7  C   UNL     1      42.130 -16.530   3.370  1.00  0.00     0.218 C 
HETATM    8  N   UNL     1      42.446 -17.232   2.234  1.00  0.00    -0.357 N 
HETATM    9  H   UNL     1      41.822 -17.201   1.430  1.00  0.00     0.162 HD
HETATM   10  O   UNL     1      42.951 -16.273   4.247  1.00  0.00    -0.274 OA
BRANCH   8  11
HETATM   11  C   UNL     1      43.802 -17.671   1.990  1.00  0.00     0.161 C 
BRANCH  11  12
HETATM   12  C   UNL     1      44.035 -19.117   2.359  1.00  0.00    -0.038 A 
HETATM   13  C   UNL     1      43.712 -20.176   1.476  1.00  0.00     0.012 A 
HETATM   14  C   UNL     1      43.901 -21.513   1.843  1.00  0.00     0.040 A 
HETATM   15  C   UNL     1      44.389 -21.767   3.105  1.00  0.00     0.105 A 
HETATM   16  C   UNL     1      44.684 -20.753   3.983  1.00  0.00     0.105 A 
HETATM   17  O   UNL     1      44.621 -22.998   3.636  1.00  0.00    -0.323 OA
HETATM   18  C   UNL     1      44.518 -19.425   3.644  1.00  0.00     0.048 A 
HETATM   19  O   UNL     1      45.134 -21.215   5.179  1.00  0.00    -0.323 OA
HETATM   20  C   UNL     1      45.079 -22.640   4.956  1.00  0.00     0.352 A 
ENDBRANCH  11  12
ENDBRANCH   8  11
ENDBRANCH   6   7
ENDBRANCH   5   6
ENDBRANCH   1   5
BRANCH   2  21
HETATM   21  N   UNL     1      41.436 -12.498   6.414  1.00  0.00    -0.262 N 
HETATM   22  C   UNL     1      41.666 -11.158   6.633  1.00  0.00     0.286 C 
HETATM   23  O   UNL     1      41.586 -10.331   5.725  1.00  0.00    -0.264 OA
HETATM   24  H   UNL     1      41.530 -13.211   7.132  1.00  0.00     0.190 HD
BRANCH  22  25
HETATM   25  C   UNL     1      41.997 -10.795   7.992  1.00  0.00     0.103 A 
HETATM   26  N   UNL     1      43.088 -11.340   8.636  1.00  0.00    -0.351 N 
HETATM   27  H   UNL     1      43.708 -12.017   8.211  1.00  0.00     0.166 HD
HETATM   28  C   UNL     1      43.223 -10.827   9.904  1.00  0.00     0.043 A 
HETATM   29  C   UNL     1      42.171  -9.933  10.095  1.00  0.00    -0.005 A 
HETATM   30  C   UNL     1      44.188 -11.082  10.884  1.00  0.00     0.032 A 
HETATM   31  C   UNL     1      41.406  -9.925   8.894  1.00  0.00     0.049 A 
HETATM   32  C   UNL     1      42.065  -9.258  11.325  1.00  0.00     0.037 A 
HETATM   33  C   UNL     1      43.024  -9.502  12.313  1.00  0.00     0.035 A 
HETATM   34  C   UNL     1      44.069 -10.398  12.099  1.00  0.00     0.026 A 
HETATM   35 CL   UNL     1      42.911  -8.676  13.821  1.00  0.00    -0.084 Cl
ENDBRANCH  22  25
ENDBRANCH   2  21
TORSDOF 7
ENDMDL
MODEL 10
REMARK VINA RESULT:      -9.0      6.069      9.663
REMARK  7 active torsions:
REMARK  status: ('A' for Active; 'I' for Inactive)
REMARK    1  A    between atoms: C_2  and  C_3 
REMARK    2  A    between atoms: C_3  and  N_4 
REMARK       I    between atoms: N_4  and  C_5 
REMARK    3  A    between atoms: C_5  and  C_6 
REMARK    4  A    between atoms: C_6  and  C_7 
REMARK    5  A    between atoms: C_7  and  C_8 
REMARK       I    between atoms: C_8  and  N_9 
REMARK    6  A    between atoms: N_9  and  N_10 
REMARK       I    between atoms: N_10  and  C_11 
REMARK    7  A    between atoms: C_11  and  C_12 
ROOT
HETATM    1  C   UNL     1      44.014 -19.619   3.243  1.00  0.00     0.236 C 
HETATM    2  N   UNL     1      43.925 -18.279   3.528  1.00  0.00    -0.267 N 
HETATM    3  O   UNL     1      43.273 -20.187   2.440  1.00  0.00    -0.272 OA
HETATM    4  H   UNL     1      44.400 -17.831   4.313  1.00  0.00     0.190 HD
ENDROOT
BRANCH   1   5
HETATM    5  C   UNL     1      45.032 -20.382   4.054  1.00  0.00     0.114 C 
BRANCH   5   6
HETATM    6  C   UNL     1      44.550 -20.507   5.491  1.00  0.00     0.112 C 
BRANCH   6   7
HETATM    7  C   UNL     1      44.495 -19.186   6.237  1.00  0.00     0.218 C 
HETATM    8  N   UNL     1      43.304 -18.904   6.857  1.00  0.00    -0.357 N 
HETATM    9  H   UNL     1      42.659 -19.660   7.082  1.00  0.00     0.162 HD
HETATM   10  O   UNL     1      45.436 -18.397   6.206  1.00  0.00    -0.274 OA
BRANCH   8  11
HETATM   11  C   UNL     1      43.115 -17.655   7.561  1.00  0.00     0.161 C 
BRANCH  11  12
HETATM   12  C   UNL     1      42.526 -16.566   6.693  1.00  0.00    -0.038 A 
HETATM   13  C   UNL     1      41.137 -16.487   6.432  1.00  0.00     0.012 A 
HETATM   14  C   UNL     1      40.608 -15.494   5.599  1.00  0.00     0.040 A 
HETATM   15  C   UNL     1      41.489 -14.610   5.019  1.00  0.00     0.105 A 
HETATM   16  C   UNL     1      42.842 -14.689   5.243  1.00  0.00     0.105 A 
HETATM   17  O   UNL     1      41.159 -13.595   4.176  1.00  0.00    -0.323 OA
HETATM   18  C   UNL     1      43.390 -15.650   6.067  1.00  0.00     0.048 A 
HETATM   19  O   UNL     1      43.537 -13.737   4.563  1.00  0.00    -0.323 OA
HETATM   20  C   UNL     1      42.464 -13.057   3.880  1.00  0.00     0.352 A 
ENDBRANCH  11  12
ENDBRANCH   8  11
ENDBRANCH   6   7
ENDBRANCH   5   6
ENDBRANCH   1   5
BRANCH   2  21
HETATM   21  N   UNL     1      42.883 -17.555   2.936  1.00  0.00    -0.262 N 
HETATM   22  C   UNL     1      43.154 -16.744   1.857  1.00  0.00     0.286 C 
HETATM   23  O   UNL     1      44.288 -16.649   1.387  1.00  0.00    -0.264 OA
HETATM   24  H   UNL     1      41.967 -17.627   3.372  1.00  0.00     0.190 HD
BRANCH  22  25
HETATM   25  C   UNL     1      42.022 -16.026   1.315  1.00  0.00     0.103 A 
HETATM   26  N   UNL     1      40.832 -15.936   2.005  1.00  0.00    -0.351 N 
HETATM   27  H   UNL     1      40.676 -16.362   2.910  1.00  0.00     0.166 HD
HETATM   28  C   UNL     1      39.914 -15.184   1.313  1.00  0.00     0.043 A 
HETATM   29  C   UNL     1      40.524 -14.790   0.124  1.00  0.00    -0.005 A 
HETATM   30  C   UNL     1      38.604 -14.824   1.647  1.00  0.00     0.032 A 
HETATM   31  C   UNL     1      41.843 -15.328   0.132  1.00  0.00     0.049 A 
HETATM   32  C   UNL     1      39.797 -14.000  -0.786  1.00  0.00     0.037 A 
HETATM   33  C   UNL     1      38.488 -13.631  -0.463  1.00  0.00     0.035 A 
HETATM   34  C   UNL     1      37.898 -14.035   0.733  1.00  0.00     0.026 A 
HETATM   35 CL   UNL     1      37.589 -12.658  -1.566  1.00  0.00    -0.084 Cl
ENDBRANCH  22  25
ENDBRANCH   2  21
TORSDOF 7
ENDMDL
