MODEL 1
REMARK VINA RESULT:      -8.7      0.000      0.000
REMARK  6 active torsions:
REMARK  status: ('A' for Active; 'I' for Inactive)
REMARK    1  A    between atoms: C_2  and  N_3 
REMARK    2  A    between atoms: C_2  and  C_24 
REMARK       I    between atoms: N_3  and  C_4 
REMARK    3  A    between atoms: C_4  and  C_5 
REMARK    4  A    between atoms: C_5  and  N_6 
REMARK    5  A    between atoms: C_10  and  N_11 
REMARK       I    between atoms: N_11  and  C_12 
REMARK       I    between atoms: C_12  and  N_13 
REMARK    6  A    between atoms: N_13  and  C_14 
ROOT
HETATM    1  N   UNL     1      42.931 -15.764   5.319  1.00  0.00    -0.063 N 
HETATM    2  H   UNL     1      43.552 -16.410   4.809  1.00  0.00     0.280 HD
HETATM    3  C   UNL     1      43.375 -14.368   4.955  1.00  0.00     0.237 C 
HETATM    4  C   UNL     1      44.645 -13.972   5.682  1.00  0.00     0.053 C 
HETATM    5  C   UNL     1      44.565 -14.158   7.193  1.00  0.00     0.089 C 
HETATM    6  C   UNL     1      44.142 -15.582   7.539  1.00  0.00     0.053 C 
HETATM    7  C   UNL     1      42.937 -16.116   6.784  1.00  0.00     0.237 C 
ENDROOT
BRANCH   1   8
HETATM    8  C   UNL     1      41.521 -16.031   4.753  1.00  0.00     0.337 C 
BRANCH   8   9
HETATM    9  C   UNL     1      41.559 -16.810   3.439  1.00  0.00     0.244 C 
HETATM   10  N   UNL     1      42.674 -17.585   3.255  1.00  0.00    -0.351 N 
HETATM   11  H   UNL     1      43.467 -17.521   3.885  1.00  0.00     0.163 HD
HETATM   12  O   UNL     1      40.604 -16.769   2.666  1.00  0.00    -0.272 OA
BRANCH  10  13
HETATM   13  C   UNL     1      42.875 -18.408   2.071  1.00  0.00     0.120 C 
HETATM   14  C   UNL     1      43.691 -17.673   1.011  1.00  0.00     0.038 C 
BRANCH  13  15
HETATM   15  C   UNL     1      43.532 -19.697   2.502  1.00  0.00     0.005 A 
HETATM   16  S   UNL     1      44.357 -19.828   4.006  1.00  0.00    -0.104 SA
HETATM   17  C   UNL     1      44.759 -21.464   3.725  1.00  0.00     0.050 A 
HETATM   18  C   UNL     1      44.281 -21.911   2.515  1.00  0.00     0.008 A 
HETATM   19  C   UNL     1      43.574 -20.894   1.809  1.00  0.00     0.017 A 
ENDBRANCH  13  15
ENDBRANCH  10  13
ENDBRANCH   8   9
ENDBRANCH   1   8
BRANCH   5  20
HETATM   20  N   UNL     1      43.841 -13.080   7.869  1.00  0.00    -0.338 N 
HETATM   21  C   UNL     1      44.171 -12.485   9.063  1.00  0.00     0.321 C 
HETATM   22  N   UNL     1      43.130 -11.753   9.576  1.00  0.00    -0.309 N 
HETATM   23  O   UNL     1      45.246 -12.688   9.613  1.00  0.00    -0.247 OA
HETATM   24  H   UNL     1      42.223 -11.913   9.162  1.00  0.00     0.170 HD
HETATM   25  H   UNL     1      43.099 -12.629   7.346  1.00  0.00     0.164 HD
BRANCH  22  26
HETATM   26  C   UNL     1      43.126 -11.074  10.815  1.00  0.00     0.036 A 
HETATM   27  C   UNL     1      43.038 -11.723  12.049  1.00  0.00     0.029 A 
HETATM   28  C   UNL     1      43.006 -10.988  13.238  1.00  0.00     0.002 A 
HETATM   29  C   UNL     1      43.065  -9.597  13.200  1.00  0.00     0.000 A 
HETATM   30  C   UNL     1      43.173  -8.942  11.977  1.00  0.00     0.002 A 
HETATM   31  C   UNL     1      43.215  -9.677  10.790  1.00  0.00     0.029 A 
ENDBRANCH  22  26
ENDBRANCH   5  20
TORSDOF 6
ENDMDL
MODEL 2
REMARK VINA RESULT:      -8.2      2.667     10.262
REMARK  6 active torsions:
REMARK  status: ('A' for Active; 'I' for Inactive)
REMARK    1  A    between atoms: C_2  and  N_3 
REMARK    2  A    between atoms: C_2  and  C_24 
REMARK       I    between atoms: N_3  and  C_4 
REMARK    3  A    between atoms: C_4  and  C_5 
REMARK    4  A    between atoms: C_5  and  N_6 
REMARK    5  A    between atoms: C_10  and  N_11 
REMARK       I    between atoms: N_11  and  C_12 
REMARK       I    between atoms: C_12  and  N_13 
REMARK    6  A    between atoms: N_13  and  C_14 
ROOT
HETATM    1  N   UNL     1      43.444 -13.867   6.617  1.00  0.00    -0.063 N 
HETATM    2  H   UNL     1      42.776 -13.099   6.782  1.00  0.00     0.280 HD
HETATM    3  C   UNL     1      43.982 -13.671   5.220  1.00  0.00     0.237 C 
HETATM    4  C   UNL     1      42.983 -14.101   4.165  1.00  0.00     0.053 C 
HETATM    5  C   UNL     1      42.453 -15.516   4.367  1.00  0.00     0.089 C 
HETATM    6  C   UNL     1      41.888 -15.683   5.774  1.00  0.00     0.053 C 
HETATM    7  C   UNL     1      42.771 -15.184   6.904  1.00  0.00     0.237 C 
ENDROOT
BRANCH   1   8
HETATM    8  C   UNL     1      44.569 -13.651   7.649  1.00  0.00     0.337 C 
BRANCH   8   9
HETATM    9  C   UNL     1      44.497 -12.276   8.311  1.00  0.00     0.244 C 
HETATM   10  N   UNL     1      43.230 -11.806   8.537  1.00  0.00    -0.351 N 
HETATM   11  H   UNL     1      42.418 -12.282   8.156  1.00  0.00     0.163 HD
HETATM   12  O   UNL     1      45.525 -11.702   8.662  1.00  0.00    -0.272 OA
BRANCH  10  13
HETATM   13  C   UNL     1      42.967 -10.523   9.172  1.00  0.00     0.120 C 
HETATM   14  C   UNL     1      41.848  -9.766   8.462  1.00  0.00     0.038 C 
BRANCH  13  15
HETATM   15  C   UNL     1      42.649 -10.776  10.626  1.00  0.00     0.005 A 
HETATM   16  S   UNL     1      41.037 -11.051  11.161  1.00  0.00    -0.104 SA
HETATM   17  C   UNL     1      41.531 -11.231  12.786  1.00  0.00     0.050 A 
HETATM   18  C   UNL     1      42.891 -11.086  12.930  1.00  0.00     0.008 A 
HETATM   19  C   UNL     1      43.537 -10.823  11.686  1.00  0.00     0.017 A 
ENDBRANCH  13  15
ENDBRANCH  10  13
ENDBRANCH   8   9
ENDBRANCH   1   8
BRANCH   5  20
HETATM   20  N   UNL     1      43.382 -16.551   3.910  1.00  0.00    -0.338 N 
HETATM   21  C   UNL     1      43.155 -17.905   3.870  1.00  0.00     0.321 C 
HETATM   22  N   UNL     1      44.317 -18.615   3.706  1.00  0.00    -0.309 N 
HETATM   23  O   UNL     1      42.042 -18.382   4.057  1.00  0.00    -0.247 OA
HETATM   24  H   UNL     1      45.178 -18.108   3.856  1.00  0.00     0.170 HD
HETATM   25  H   UNL     1      44.226 -16.235   3.447  1.00  0.00     0.164 HD
BRANCH  22  26
HETATM   26  C   UNL     1      44.432 -20.023   3.689  1.00  0.00     0.036 A 
HETATM   27  C   UNL     1      44.757 -20.784   4.815  1.00  0.00     0.029 A 
HETATM   28  C   UNL     1      44.887 -22.173   4.722  1.00  0.00     0.002 A 
HETATM   29  C   UNL     1      44.691 -22.811   3.500  1.00  0.00     0.000 A 
HETATM   30  C   UNL     1      44.349 -22.064   2.376  1.00  0.00     0.002 A 
HETATM   31  C   UNL     1      44.208 -20.678   2.472  1.00  0.00     0.029 A 
ENDBRANCH  22  26
ENDBRANCH   5  20
TORSDOF 6
ENDMDL
MODEL 3
REMARK VINA RESULT:      -8.1      2.033      2.507
REMARK  6 active torsions:
REMARK  status: ('A' for Active; 'I' for Inactive)
REMARK    1  A    between atoms: C_2  and  N_3 
REMARK    2  A    between atoms: C_2  and  C_24 
REMARK       I    between atoms: N_3  and  C_4 
REMARK    3  A    between atoms: C_4  and  C_5 
REMARK    4  A    between atoms: C_5  and  N_6 
REMARK    5  A    between atoms: C_10  and  N_11 
REMARK       I    between atoms: N_11  and  C_12 
REMARK       I    between atoms: C_12  and  N_13 
REMARK    6  A    between atoms: N_13  and  C_14 
ROOT
HETATM    1  N   UNL     1      41.035 -14.446   4.323  1.00  0.00    -0.063 N 
HETATM    2  H   UNL     1      40.926 -14.375   3.300  1.00  0.00     0.280 HD
HETATM    3  C   UNL     1      39.734 -13.968   4.923  1.00  0.00     0.237 C 
HETATM    4  C   UNL     1      39.613 -12.459   4.881  1.00  0.00     0.053 C 
HETATM    5  C   UNL     1      40.808 -11.734   5.488  1.00  0.00     0.089 C 
HETATM    6  C   UNL     1      42.109 -12.209   4.847  1.00  0.00     0.053 C 
HETATM    7  C   UNL     1      42.283 -13.715   4.745  1.00  0.00     0.237 C 
ENDROOT
BRANCH   1   8
HETATM    8  C   UNL     1      41.223 -15.950   4.606  1.00  0.00     0.337 C 
BRANCH   8   9
HETATM    9  C   UNL     1      41.379 -16.768   3.325  1.00  0.00     0.244 C 
HETATM   10  N   UNL     1      42.568 -17.438   3.205  1.00  0.00    -0.351 N 
HETATM   11  H   UNL     1      43.330 -17.275   3.854  1.00  0.00     0.163 HD
HETATM   12  O   UNL     1      40.450 -16.848   2.523  1.00  0.00    -0.272 OA
BRANCH  10  13
HETATM   13  C   UNL     1      42.886 -18.280   2.060  1.00  0.00     0.120 C 
HETATM   14  C   UNL     1      43.748 -17.539   1.042  1.00  0.00     0.038 C 
BRANCH  13  15
HETATM   15  C   UNL     1      43.557 -19.531   2.571  1.00  0.00     0.005 A 
HETATM   16  S   UNL     1      44.272 -19.595   4.135  1.00  0.00    -0.104 SA
HETATM   17  C   UNL     1      44.757 -21.220   3.926  1.00  0.00     0.050 A 
HETATM   18  C   UNL     1      44.389 -21.713   2.695  1.00  0.00     0.008 A 
HETATM   19  C   UNL     1      43.698 -20.741   1.914  1.00  0.00     0.017 A 
ENDBRANCH  13  15
ENDBRANCH  10  13
ENDBRANCH   8   9
ENDBRANCH   1   8
BRANCH   5  20
HETATM   20  N   UNL     1      40.778 -11.695   6.951  1.00  0.00    -0.338 N 
HETATM   21  C   UNL     1      41.459 -10.826   7.769  1.00  0.00     0.321 C 
HETATM   22  N   UNL     1      41.475 -11.256   9.072  1.00  0.00    -0.309 N 
HETATM   23  O   UNL     1      42.046  -9.847   7.328  1.00  0.00    -0.247 OA
HETATM   24  H   UNL     1      41.202 -12.215   9.232  1.00  0.00     0.170 HD
HETATM   25  H   UNL     1      40.082 -12.273   7.408  1.00  0.00     0.164 HD
BRANCH  22  26
HETATM   26  C   UNL     1      42.144 -10.624  10.144  1.00  0.00     0.036 A 
HETATM   27  C   UNL     1      43.456 -10.925  10.520  1.00  0.00     0.029 A 
HETATM   28  C   UNL     1      44.047 -10.284  11.612  1.00  0.00     0.002 A 
HETATM   29  C   UNL     1      43.331  -9.335  12.336  1.00  0.00     0.000 A 
HETATM   30  C   UNL     1      42.030  -9.014  11.958  1.00  0.00     0.002 A 
HETATM   31  C   UNL     1      41.443  -9.646  10.860  1.00  0.00     0.029 A 
ENDBRANCH  22  26
ENDBRANCH   5  20
TORSDOF 6
ENDMDL
MODEL 4
REMARK VINA RESULT:      -7.8      4.763      8.660
REMARK  6 active torsions:
REMARK  status: ('A' for Active; 'I' for Inactive)
REMARK    1  A    between atoms: C_2  and  N_3 
REMARK    2  A    between atoms: C_2  and  C_24 
REMARK       I    between atoms: N_3  and  C_4 
REMARK    3  A    between atoms: C_4  and  C_5 
REMARK    4  A    between atoms: C_5  and  N_6 
REMARK    5  A    between atoms: C_10  and  N_11 
REMARK       I    between atoms: N_11  and  C_12 
REMARK       I    between atoms: C_12  and  N_13 
REMARK    6  A    between atoms: N_13  and  C_14 
ROOT
HETATM    1  N   UNL     1      40.960 -13.063   3.991  1.00  0.00    -0.063 N 
HETATM    2  H   UNL     1      40.385 -12.567   4.688  1.00  0.00     0.280 HD
HETATM    3  C   UNL     1      40.400 -14.463   3.894  1.00  0.00     0.237 C 
HETATM    4  C   UNL     1      40.812 -15.318   5.076  1.00  0.00     0.053 C 
HETATM    5  C   UNL     1      42.315 -15.333   5.323  1.00  0.00     0.089 C 
HETATM    6  C   UNL     1      42.855 -13.911   5.447  1.00  0.00     0.053 C 
HETATM    7  C   UNL     1      42.414 -12.941   4.365  1.00  0.00     0.237 C 
ENDROOT
BRANCH   1   8
HETATM    8  C   UNL     1      40.725 -12.311   2.666  1.00  0.00     0.337 C 
BRANCH   8   9
HETATM    9  C   UNL     1      41.482 -12.940   1.497  1.00  0.00     0.244 C 
HETATM   10  N   UNL     1      40.933 -14.094   1.004  1.00  0.00    -0.351 N 
HETATM   11  H   UNL     1      40.168 -14.558   1.483  1.00  0.00     0.163 HD
HETATM   12  O   UNL     1      42.466 -12.378   1.021  1.00  0.00    -0.272 OA
BRANCH  10  13
HETATM   13  C   UNL     1      41.507 -14.824  -0.118  1.00  0.00     0.120 C 
HETATM   14  C   UNL     1      41.784 -16.281   0.245  1.00  0.00     0.038 C 
BRANCH  13  15
HETATM   15  C   UNL     1      40.566 -14.698  -1.290  1.00  0.00     0.005 A 
HETATM   16  S   UNL     1      40.853 -15.530  -2.769  1.00  0.00    -0.104 SA
HETATM   17  C   UNL     1      39.440 -14.891  -3.485  1.00  0.00     0.050 A 
HETATM   18  C   UNL     1      38.757 -14.061  -2.627  1.00  0.00     0.008 A 
HETATM   19  C   UNL     1      39.405 -13.949  -1.362  1.00  0.00     0.017 A 
ENDBRANCH  13  15
ENDBRANCH  10  13
ENDBRANCH   8   9
ENDBRANCH   1   8
BRANCH   5  20
HETATM   20  N   UNL     1      43.040 -16.229   4.422  1.00  0.00    -0.338 N 
HETATM   21  C   UNL     1      42.876 -17.588   4.299  1.00  0.00     0.321 C 
HETATM   22  N   UNL     1      43.915 -18.171   3.619  1.00  0.00    -0.309 N 
HETATM   23  O   UNL     1      41.945 -18.179   4.832  1.00  0.00    -0.247 OA
HETATM   24  H   UNL     1      44.743 -17.606   3.495  1.00  0.00     0.170 HD
HETATM   25  H   UNL     1      43.625 -15.794   3.718  1.00  0.00     0.164 HD
BRANCH  22  26
HETATM   26  C   UNL     1      44.077 -19.554   3.382  1.00  0.00     0.036 A 
HETATM   27  C   UNL     1      44.673 -20.429   4.295  1.00  0.00     0.029 A 
HETATM   28  C   UNL     1      44.832 -21.782   3.983  1.00  0.00     0.002 A 
HETATM   29  C   UNL     1      44.394 -22.271   2.755  1.00  0.00     0.000 A 
HETATM   30  C   UNL     1      43.782 -21.412   1.846  1.00  0.00     0.002 A 
HETATM   31  C   UNL     1      43.614 -20.062   2.162  1.00  0.00     0.029 A 
ENDBRANCH  22  26
ENDBRANCH   5  20
TORSDOF 6
ENDMDL
MODEL 5
REMARK VINA RESULT:      -7.8      3.647     10.124
REMARK  6 active torsions:
REMARK  status: ('A' for Active; 'I' for Inactive)
REMARK    1  A    between atoms: C_2  and  N_3 
REMARK    2  A    between atoms: C_2  and  C_24 
REMARK       I    between atoms: N_3  and  C_4 
REMARK    3  A    between atoms: C_4  and  C_5 
REMARK    4  A    between atoms: C_5  and  N_6 
REMARK    5  A    between atoms: C_10  and  N_11 
REMARK       I    between atoms: N_11  and  C_12 
REMARK       I    between atoms: C_12  and  N_13 
REMARK    6  A    between atoms: N_13  and  C_14 
ROOT
HETATM    1  N   UNL     1      40.422 -12.611   5.381  1.00  0.00    -0.063 N 
HETATM    2  H   UNL     1      40.479 -11.626   5.082  1.00  0.00     0.280 HD
HETATM    3  C   UNL     1      41.824 -13.023   5.762  1.00  0.00     0.237 C 
HETATM    4  C   UNL     1      42.689 -13.277   4.545  1.00  0.00     0.053 C 
HETATM    5  C   UNL     1      42.071 -14.253   3.550  1.00  0.00     0.089 C 
HETATM    6  C   UNL     1      40.667 -13.803   3.156  1.00  0.00     0.053 C 
HETATM    7  C   UNL     1      39.749 -13.422   4.304  1.00  0.00     0.237 C 
ENDROOT
BRANCH   1   8
HETATM    8  C   UNL     1      39.519 -12.602   6.630  1.00  0.00     0.337 C 
BRANCH   8   9
HETATM    9  C   UNL     1      39.631 -11.299   7.420  1.00  0.00     0.244 C 
HETATM   10  N   UNL     1      40.415 -11.366   8.541  1.00  0.00    -0.351 N 
HETATM   11  H   UNL     1      40.767 -12.254   8.884  1.00  0.00     0.163 HD
HETATM   12  O   UNL     1      39.097 -10.273   7.004  1.00  0.00    -0.272 OA
BRANCH  10  13
HETATM   13  C   UNL     1      40.651 -10.219   9.408  1.00  0.00     0.120 C 
HETATM   14  C   UNL     1      39.559 -10.084  10.466  1.00  0.00     0.038 C 
BRANCH  13  15
HETATM   15  C   UNL     1      42.022 -10.368  10.021  1.00  0.00     0.005 A 
HETATM   16  S   UNL     1      42.320  -9.975  11.669  1.00  0.00    -0.104 SA
HETATM   17  C   UNL     1      43.970 -10.397  11.546  1.00  0.00     0.050 A 
HETATM   18  C   UNL     1      44.299 -10.828  10.282  1.00  0.00     0.008 A 
HETATM   19  C   UNL     1      43.177 -10.812   9.402  1.00  0.00     0.017 A 
ENDBRANCH  13  15
ENDBRANCH  10  13
ENDBRANCH   8   9
ENDBRANCH   1   8
BRANCH   5  20
HETATM   20  N   UNL     1      42.219 -15.654   3.949  1.00  0.00    -0.338 N 
HETATM   21  C   UNL     1      43.049 -16.591   3.381  1.00  0.00     0.321 C 
HETATM   22  N   UNL     1      42.716 -17.867   3.761  1.00  0.00    -0.309 N 
HETATM   23  O   UNL     1      43.909 -16.285   2.565  1.00  0.00    -0.247 OA
HETATM   24  H   UNL     1      41.815 -17.983   4.202  1.00  0.00     0.170 HD
HETATM   25  H   UNL     1      41.771 -15.933   4.814  1.00  0.00     0.164 HD
BRANCH  22  26
HETATM   26  C   UNL     1      43.332 -19.054   3.304  1.00  0.00     0.036 A 
HETATM   27  C   UNL     1      42.978 -19.698   2.116  1.00  0.00     0.029 A 
HETATM   28  C   UNL     1      43.605 -20.889   1.739  1.00  0.00     0.002 A 
HETATM   29  C   UNL     1      44.594 -21.443   2.548  1.00  0.00     0.000 A 
HETATM   30  C   UNL     1      44.968 -20.799   3.724  1.00  0.00     0.002 A 
HETATM   31  C   UNL     1      44.348 -19.603   4.095  1.00  0.00     0.029 A 
ENDBRANCH  22  26
ENDBRANCH   5  20
TORSDOF 6
ENDMDL
MODEL 6
REMARK VINA RESULT:      -7.8      3.612      8.709
REMARK  6 active torsions:
REMARK  status: ('A' for Active; 'I' for Inactive)
REMARK    1  A    between atoms: C_2  and  N_3 
REMARK    2  A    between atoms: C_2  and  C_24 
REMARK       I    between atoms: N_3  and  C_4 
REMARK    3  A    between atoms: C_4  and  C_5 
REMARK    4  A    between atoms: C_5  and  N_6 
REMARK    5  A    between atoms: C_10  and  N_11 
REMARK       I    between atoms: N_11  and  C_12 
REMARK       I    between atoms: C_12  and  N_13 
REMARK    6  A    between atoms: N_13  and  C_14 
ROOT
HETATM    1  N   UNL     1      41.141 -13.709   2.591  1.00  0.00    -0.063 N 
HETATM    2  H   UNL     1      40.366 -13.139   2.220  1.00  0.00     0.280 HD
HETATM    3  C   UNL     1      42.198 -13.746   1.514  1.00  0.00     0.237 C 
HETATM    4  C   UNL     1      41.828 -14.695   0.392  1.00  0.00     0.053 C 
HETATM    5  C   UNL     1      41.470 -16.097   0.873  1.00  0.00     0.089 C 
HETATM    6  C   UNL     1      40.381 -16.039   1.940  1.00  0.00     0.053 C 
HETATM    7  C   UNL     1      40.606 -15.037   3.059  1.00  0.00     0.237 C 
ENDROOT
BRANCH   1   8
HETATM    8  C   UNL     1      41.664 -12.929   3.814  1.00  0.00     0.337 C 
BRANCH   8   9
HETATM    9  C   UNL     1      43.019 -13.445   4.298  1.00  0.00     0.244 C 
HETATM   10  N   UNL     1      43.009 -14.024   5.540  1.00  0.00    -0.351 N 
HETATM   11  H   UNL     1      42.189 -13.975   6.136  1.00  0.00     0.163 HD
HETATM   12  O   UNL     1      44.003 -13.387   3.565  1.00  0.00    -0.272 OA
BRANCH  10  13
HETATM   13  C   UNL     1      44.202 -14.587   6.157  1.00  0.00     0.120 C 
HETATM   14  C   UNL     1      44.669 -13.745   7.341  1.00  0.00     0.038 C 
BRANCH  13  15
HETATM   15  C   UNL     1      43.897 -16.010   6.556  1.00  0.00     0.005 A 
HETATM   16  S   UNL     1      42.279 -16.566   6.744  1.00  0.00    -0.104 SA
HETATM   17  C   UNL     1      42.793 -18.139   7.166  1.00  0.00     0.050 A 
HETATM   18  C   UNL     1      44.164 -18.250   7.168  1.00  0.00     0.008 A 
HETATM   19  C   UNL     1      44.801 -17.024   6.817  1.00  0.00     0.017 A 
ENDBRANCH  13  15
ENDBRANCH  10  13
ENDBRANCH   8   9
ENDBRANCH   1   8
BRANCH   5  20
HETATM   20  N   UNL     1      42.642 -16.917   1.182  1.00  0.00    -0.338 N 
HETATM   21  C   UNL     1      42.647 -18.226   1.600  1.00  0.00     0.321 C 
HETATM   22  N   UNL     1      43.866 -18.596   2.111  1.00  0.00    -0.309 N 
HETATM   23  O   UNL     1      41.635 -18.915   1.587  1.00  0.00    -0.247 OA
HETATM   24  H   UNL     1      44.510 -17.847   2.322  1.00  0.00     0.170 HD
HETATM   25  H   UNL     1      43.547 -16.534   0.933  1.00  0.00     0.164 HD
BRANCH  22  26
HETATM   26  C   UNL     1      44.178 -19.850   2.682  1.00  0.00     0.036 A 
HETATM   27  C   UNL     1      44.071 -21.060   1.991  1.00  0.00     0.029 A 
HETATM   28  C   UNL     1      44.365 -22.270   2.626  1.00  0.00     0.002 A 
HETATM   29  C   UNL     1      44.772 -22.278   3.958  1.00  0.00     0.000 A 
HETATM   30  C   UNL     1      44.901 -21.076   4.649  1.00  0.00     0.002 A 
HETATM   31  C   UNL     1      44.617 -19.867   4.011  1.00  0.00     0.029 A 
ENDBRANCH  22  26
ENDBRANCH   5  20
TORSDOF 6
ENDMDL
MODEL 7
REMARK VINA RESULT:      -7.6      4.178      8.138
REMARK  6 active torsions:
REMARK  status: ('A' for Active; 'I' for Inactive)
REMARK    1  A    between atoms: C_2  and  N_3 
REMARK    2  A    between atoms: C_2  and  C_24 
REMARK       I    between atoms: N_3  and  C_4 
REMARK    3  A    between atoms: C_4  and  C_5 
REMARK    4  A    between atoms: C_5  and  N_6 
REMARK    5  A    between atoms: C_10  and  N_11 
REMARK       I    between atoms: N_11  and  C_12 
REMARK       I    between atoms: C_12  and  N_13 
REMARK    6  A    between atoms: N_13  and  C_14 
ROOT
HETATM    1  N   UNL     1      41.687 -13.019   5.611  1.00  0.00    -0.063 N 
HETATM    2  H   UNL     1      41.291 -12.636   6.482  1.00  0.00     0.280 HD
HETATM    3  C   UNL     1      40.828 -14.203   5.236  1.00  0.00     0.237 C 
HETATM    4  C   UNL     1      41.132 -15.415   6.093  1.00  0.00     0.053 C 
HETATM    5  C   UNL     1      42.610 -15.784   6.124  1.00  0.00     0.089 C 
HETATM    6  C   UNL     1      43.457 -14.583   6.533  1.00  0.00     0.053 C 
HETATM    7  C   UNL     1      43.158 -13.285   5.804  1.00  0.00     0.237 C 
ENDROOT
BRANCH   1   8
HETATM    8  C   UNL     1      41.521 -11.897   4.565  1.00  0.00     0.337 C 
BRANCH   8   9
HETATM    9  C   UNL     1      40.793 -12.375   3.310  1.00  0.00     0.244 C 
HETATM   10  N   UNL     1      41.600 -12.895   2.333  1.00  0.00    -0.351 N 
HETATM   11  H   UNL     1      42.611 -12.828   2.396  1.00  0.00     0.163 HD
HETATM   12  O   UNL     1      39.566 -12.340   3.253  1.00  0.00    -0.272 OA
BRANCH  10  13
HETATM   13  C   UNL     1      41.081 -13.414   1.075  1.00  0.00     0.120 C 
HETATM   14  C   UNL     1      41.839 -12.844  -0.121  1.00  0.00     0.038 C 
BRANCH  13  15
HETATM   15  C   UNL     1      41.150 -14.921   1.126  1.00  0.00     0.005 A 
HETATM   16  S   UNL     1      39.975 -15.848   1.976  1.00  0.00    -0.104 SA
HETATM   17  C   UNL     1      40.732 -17.321   1.560  1.00  0.00     0.050 A 
HETATM   18  C   UNL     1      41.856 -17.124   0.791  1.00  0.00     0.008 A 
HETATM   19  C   UNL     1      42.098 -15.742   0.541  1.00  0.00     0.017 A 
ENDBRANCH  13  15
ENDBRANCH  10  13
ENDBRANCH   8   9
ENDBRANCH   1   8
BRANCH   5  20
HETATM   20  N   UNL     1      43.047 -16.516   4.934  1.00  0.00    -0.338 N 
HETATM   21  C   UNL     1      42.976 -17.873   4.726  1.00  0.00     0.321 C 
HETATM   22  N   UNL     1      43.755 -18.270   3.669  1.00  0.00    -0.309 N 
HETATM   23  O   UNL     1      42.352 -18.612   5.477  1.00  0.00    -0.247 OA
HETATM   24  H   UNL     1      44.430 -17.598   3.332  1.00  0.00     0.170 HD
HETATM   25  H   UNL     1      43.302 -15.962   4.125  1.00  0.00     0.164 HD
BRANCH  22  26
HETATM   26  C   UNL     1      43.949 -19.601   3.238  1.00  0.00     0.036 A 
HETATM   27  C   UNL     1      43.463 -20.099   2.026  1.00  0.00     0.029 A 
HETATM   28  C   UNL     1      43.663 -21.437   1.676  1.00  0.00     0.002 A 
HETATM   29  C   UNL     1      44.353 -22.288   2.535  1.00  0.00     0.000 A 
HETATM   30  C   UNL     1      44.858 -21.798   3.736  1.00  0.00     0.002 A 
HETATM   31  C   UNL     1      44.668 -20.458   4.081  1.00  0.00     0.029 A 
ENDBRANCH  22  26
ENDBRANCH   5  20
TORSDOF 6
ENDMDL
MODEL 8
REMARK VINA RESULT:      -7.5      5.355      9.245
REMARK  6 active torsions:
REMARK  status: ('A' for Active; 'I' for Inactive)
REMARK    1  A    between atoms: C_2  and  N_3 
REMARK    2  A    between atoms: C_2  and  C_24 
REMARK       I    between atoms: N_3  and  C_4 
REMARK    3  A    between atoms: C_4  and  C_5 
REMARK    4  A    between atoms: C_5  and  N_6 
REMARK    5  A    between atoms: C_10  and  N_11 
REMARK       I    between atoms: N_11  and  C_12 
REMARK       I    between atoms: C_12  and  N_13 
REMARK    6  A    between atoms: N_13  and  C_14 
ROOT
HETATM    1  N   UNL     1      42.392 -16.836   3.307  1.00  0.00    -0.063 N 
HETATM    2  H   UNL     1      42.462 -17.829   3.575  1.00  0.00     0.280 HD
HETATM    3  C   UNL     1      40.919 -16.537   3.160  1.00  0.00     0.237 C 
HETATM    4  C   UNL     1      40.358 -17.090   1.866  1.00  0.00     0.053 C 
HETATM    5  C   UNL     1      41.141 -16.663   0.630  1.00  0.00     0.089 C 
HETATM    6  C   UNL     1      42.622 -17.000   0.787  1.00  0.00     0.053 C 
HETATM    7  C   UNL     1      43.258 -16.581   2.101  1.00  0.00     0.237 C 
ENDROOT
BRANCH   1   8
HETATM    8  C   UNL     1      42.970 -16.053   4.504  1.00  0.00     0.337 C 
BRANCH   8   9
HETATM    9  C   UNL     1      43.761 -16.948   5.457  1.00  0.00     0.244 C 
HETATM   10  N   UNL     1      43.736 -18.284   5.156  1.00  0.00    -0.351 N 
HETATM   11  H   UNL     1      43.117 -18.648   4.439  1.00  0.00     0.163 HD
HETATM   12  O   UNL     1      44.416 -16.453   6.373  1.00  0.00    -0.272 OA
BRANCH  10  13
HETATM   13  C   UNL     1      44.445 -19.283   5.942  1.00  0.00     0.120 C 
HETATM   14  C   UNL     1      43.763 -19.526   7.285  1.00  0.00     0.038 C 
BRANCH  13  15
HETATM   15  C   UNL     1      44.544 -20.544   5.118  1.00  0.00     0.005 A 
HETATM   16  S   UNL     1      44.516 -20.500   3.398  1.00  0.00    -0.104 SA
HETATM   17  C   UNL     1      44.665 -22.198   3.282  1.00  0.00     0.050 A 
HETATM   18  C   UNL     1      44.734 -22.795   4.519  1.00  0.00     0.008 A 
HETATM   19  C   UNL     1      44.665 -21.844   5.578  1.00  0.00     0.017 A 
ENDBRANCH  13  15
ENDBRANCH  10  13
ENDBRANCH   8   9
ENDBRANCH   1   8
BRANCH   5  20
HETATM   20  N   UNL     1      40.825 -15.305   0.187  1.00  0.00    -0.338 N 
HETATM   21  C   UNL     1      40.889 -14.818  -1.097  1.00  0.00     0.321 C 
HETATM   22  N   UNL     1      40.850 -13.447  -1.128  1.00  0.00    -0.309 N 
HETATM   23  O   UNL     1      41.056 -15.554  -2.061  1.00  0.00    -0.247 OA
HETATM   24  H   UNL     1      41.002 -12.974  -0.248  1.00  0.00     0.170 HD
HETATM   25  H   UNL     1      40.384 -14.694   0.865  1.00  0.00     0.164 HD
BRANCH  22  26
HETATM   26  C   UNL     1      40.960 -12.641  -2.283  1.00  0.00     0.036 A 
HETATM   27  C   UNL     1      39.859 -12.179  -3.009  1.00  0.00     0.029 A 
HETATM   28  C   UNL     1      40.040 -11.412  -4.163  1.00  0.00     0.002 A 
HETATM   29  C   UNL     1      41.325 -11.099  -4.599  1.00  0.00     0.000 A 
HETATM   30  C   UNL     1      42.429 -11.539  -3.873  1.00  0.00     0.002 A 
HETATM   31  C   UNL     1      42.247 -12.297  -2.713  1.00  0.00     0.029 A 
ENDBRANCH  22  26
ENDBRANCH   5  20
TORSDOF 6
ENDMDL
MODEL 9
REMARK VINA RESULT:      -7.3      3.448     10.129
REMARK  6 active torsions:
REMARK  status: ('A' for Active; 'I' for Inactive)
REMARK    1  A    between atoms: C_2  and  N_3 
REMARK    2  A    between atoms: C_2  and  C_24 
REMARK       I    between atoms: N_3  and  C_4 
REMARK    3  A    between atoms: C_4  and  C_5 
REMARK    4  A    between atoms: C_5  and  N_6 
REMARK    5  A    between atoms: C_10  and  N_11 
REMARK       I    between atoms: N_11  and  C_12 
REMARK       I    between atoms: C_12  and  N_13 
REMARK    6  A    between atoms: N_13  and  C_14 
ROOT
HETATM    1  N   UNL     1      41.934 -13.606   6.061  1.00  0.00    -0.063 N 
HETATM    2  H   UNL     1      41.577 -13.268   6.967  1.00  0.00     0.280 HD
HETATM    3  C   UNL     1      41.165 -14.868   5.745  1.00  0.00     0.237 C 
HETATM    4  C   UNL     1      41.657 -16.047   6.558  1.00  0.00     0.053 C 
HETATM    5  C   UNL     1      43.162 -16.270   6.460  1.00  0.00     0.089 C 
HETATM    6  C   UNL     1      43.920 -14.993   6.812  1.00  0.00     0.053 C 
HETATM    7  C   UNL     1      43.434 -13.728   6.126  1.00  0.00     0.237 C 
ENDROOT
BRANCH   1   8
HETATM    8  C   UNL     1      41.571 -12.502   5.048  1.00  0.00     0.337 C 
BRANCH   8   9
HETATM    9  C   UNL     1      41.339 -11.149   5.719  1.00  0.00     0.244 C 
HETATM   10  N   UNL     1      40.889 -11.211   7.011  1.00  0.00    -0.351 N 
HETATM   11  H   UNL     1      40.598 -12.092   7.424  1.00  0.00     0.163 HD
HETATM   12  O   UNL     1      41.619 -10.108   5.128  1.00  0.00    -0.272 OA
BRANCH  10  13
HETATM   13  C   UNL     1      40.629 -10.024   7.813  1.00  0.00     0.120 C 
HETATM   14  C   UNL     1      39.206  -9.511   7.609  1.00  0.00     0.038 C 
BRANCH  13  15
HETATM   15  C   UNL     1      40.909 -10.363   9.257  1.00  0.00     0.005 A 
HETATM   16  S   UNL     1      42.490 -10.228   9.923  1.00  0.00    -0.104 SA
HETATM   17  C   UNL     1      41.965 -10.754  11.460  1.00  0.00     0.050 A 
HETATM   18  C   UNL     1      40.617 -11.031  11.478  1.00  0.00     0.008 A 
HETATM   19  C   UNL     1      40.008 -10.806  10.209  1.00  0.00     0.017 A 
ENDBRANCH  13  15
ENDBRANCH  10  13
ENDBRANCH   8   9
ENDBRANCH   1   8
BRANCH   5  20
HETATM   20  N   UNL     1      43.566 -16.950   5.229  1.00  0.00    -0.338 N 
HETATM   21  C   UNL     1      43.385 -18.277   4.920  1.00  0.00     0.321 C 
HETATM   22  N   UNL     1      44.155 -18.664   3.852  1.00  0.00    -0.309 N 
HETATM   23  O   UNL     1      42.681 -19.011   5.603  1.00  0.00    -0.247 OA
HETATM   24  H   UNL     1      44.893 -18.031   3.579  1.00  0.00     0.170 HD
HETATM   25  H   UNL     1      43.888 -16.364   4.468  1.00  0.00     0.164 HD
BRANCH  22  26
HETATM   26  C   UNL     1      44.246 -19.973   3.329  1.00  0.00     0.036 A 
HETATM   27  C   UNL     1      44.837 -21.039   4.014  1.00  0.00     0.029 A 
HETATM   28  C   UNL     1      44.923 -22.302   3.424  1.00  0.00     0.002 A 
HETATM   29  C   UNL     1      44.417 -22.511   2.143  1.00  0.00     0.000 A 
HETATM   30  C   UNL     1      43.809 -21.461   1.460  1.00  0.00     0.002 A 
HETATM   31  C   UNL     1      43.713 -20.201   2.054  1.00  0.00     0.029 A 
ENDBRANCH  22  26
ENDBRANCH   5  20
TORSDOF 6
ENDMDL
MODEL 10
REMARK VINA RESULT:      -7.3      2.772      3.313
REMARK  6 active torsions:
REMARK  status: ('A' for Active; 'I' for Inactive)
REMARK    1  A    between atoms: C_2  and  N_3 
REMARK    2  A    between atoms: C_2  and  C_24 
REMARK       I    between atoms: N_3  and  C_4 
REMARK    3  A    between atoms: C_4  and  C_5 
REMARK    4  A    between atoms: C_5  and  N_6 
REMARK    5  A    between atoms: C_10  and  N_11 
REMARK       I    between atoms: N_11  and  C_12 
REMARK       I    between atoms: C_12  and  N_13 
REMARK    6  A    between atoms: N_13  and  C_14 
ROOT
HETATM    1  N   UNL     1      40.873 -12.431   4.681  1.00  0.00    -0.063 N 
HETATM    2  H   UNL     1      40.106 -12.324   4.001  1.00  0.00     0.280 HD
HETATM    3  C   UNL     1      40.327 -13.272   5.810  1.00  0.00     0.237 C 
HETATM    4  C   UNL     1      39.418 -12.473   6.721  1.00  0.00     0.053 C 
HETATM    5  C   UNL     1      40.052 -11.186   7.238  1.00  0.00     0.089 C 
HETATM    6  C   UNL     1      40.571 -10.338   6.080  1.00  0.00     0.053 C 
HETATM    7  C   UNL     1      41.410 -11.072   5.048  1.00  0.00     0.237 C 
ENDROOT
BRANCH   1   8
HETATM    8  C   UNL     1      41.972 -13.210   3.930  1.00  0.00     0.337 C 
BRANCH   8   9
HETATM    9  C   UNL     1      41.403 -14.339   3.072  1.00  0.00     0.244 C 
HETATM   10  N   UNL     1      42.212 -15.437   2.946  1.00  0.00    -0.351 N 
HETATM   11  H   UNL     1      43.170 -15.425   3.282  1.00  0.00     0.163 HD
HETATM   12  O   UNL     1      40.268 -14.253   2.607  1.00  0.00    -0.272 OA
BRANCH  10  13
HETATM   13  C   UNL     1      41.829 -16.615   2.180  1.00  0.00     0.120 C 
HETATM   14  C   UNL     1      41.961 -16.374   0.679  1.00  0.00     0.038 C 
BRANCH  13  15
HETATM   15  C   UNL     1      42.676 -17.773   2.647  1.00  0.00     0.005 A 
HETATM   16  S   UNL     1      43.381 -17.799   4.216  1.00  0.00    -0.104 SA
HETATM   17  C   UNL     1      44.105 -19.322   3.945  1.00  0.00     0.050 A 
HETATM   18  C   UNL     1      43.824 -19.810   2.690  1.00  0.00     0.008 A 
HETATM   19  C   UNL     1      43.002 -18.918   1.941  1.00  0.00     0.017 A 
ENDBRANCH  13  15
ENDBRANCH  10  13
ENDBRANCH   8   9
ENDBRANCH   1   8
BRANCH   5  20
HETATM   20  N   UNL     1      40.977 -11.405   8.352  1.00  0.00    -0.338 N 
HETATM   21  C   UNL     1      40.806 -11.013   9.657  1.00  0.00     0.321 C 
HETATM   22  N   UNL     1      41.977 -11.076  10.369  1.00  0.00    -0.309 N 
HETATM   23  O   UNL     1      39.738 -10.577  10.068  1.00  0.00    -0.247 OA
HETATM   24  H   UNL     1      42.825 -11.175   9.829  1.00  0.00     0.170 HD
HETATM   25  H   UNL     1      41.759 -12.027   8.180  1.00  0.00     0.164 HD
BRANCH  22  26
HETATM   26  C   UNL     1      42.151 -10.681  11.714  1.00  0.00     0.036 A 
HETATM   27  C   UNL     1      41.242 -10.985  12.731  1.00  0.00     0.029 A 
HETATM   28  C   UNL     1      41.459 -10.535  14.036  1.00  0.00     0.002 A 
HETATM   29  C   UNL     1      42.589  -9.778  14.335  1.00  0.00     0.000 A 
HETATM   30  C   UNL     1      43.510  -9.485  13.333  1.00  0.00     0.002 A 
HETATM   31  C   UNL     1      43.299  -9.944  12.031  1.00  0.00     0.029 A 
ENDBRANCH  22  26
ENDBRANCH   5  20
TORSDOF 6
ENDMDL
