MODEL 1
REMARK VINA RESULT:      -8.6      0.000      0.000
REMARK  4 active torsions:
REMARK  status: ('A' for Active; 'I' for Inactive)
REMARK    1  A    between atoms: C_4  and  C_5 
REMARK    2  A    between atoms: C_14  and  C_15 
REMARK    3  A    between atoms: C_15  and  C_16 
REMARK    4  A    between atoms: C_17  and  O_18 
ROOT
HETATM    1  C   UNL     1      43.919 -14.028   3.521  1.00  0.00     0.071 C 
HETATM    2  C   UNL     1      42.532 -14.519   3.849  1.00  0.00     0.045 A 
HETATM    3  N   UNL     1      41.563 -13.935   3.062  1.00  0.00    -0.234 NA
HETATM    4  C   UNL     1      40.329 -14.292   3.225  1.00  0.00     0.141 A 
HETATM    5  N   UNL     1      39.953 -15.188   4.188  1.00  0.00    -0.307 N 
HETATM    6  C   UNL     1      40.854 -15.808   4.991  1.00  0.00     0.255 A 
HETATM    7  O   UNL     1      40.514 -16.649   5.821  1.00  0.00    -0.268 OA
HETATM    8  C   UNL     1      42.277 -15.453   4.787  1.00  0.00     0.039 A 
HETATM    9  H   UNL     1      38.989 -15.430   4.352  1.00  0.00     0.170 HD
ENDROOT
BRANCH   8  10
HETATM   10  C   UNL     1      43.266 -16.174   5.667  1.00  0.00     0.088 C 
BRANCH  10  11
HETATM   11  C   UNL     1      43.743 -17.493   5.090  1.00  0.00    -0.020 A 
HETATM   12  C   UNL     1      44.514 -18.427   5.819  1.00  0.00     0.074 A 
HETATM   13  C   UNL     1      44.875 -19.660   5.271  1.00  0.00     0.074 A 
HETATM   14  C   UNL     1      44.480 -19.938   3.982  1.00  0.00     0.077 A 
HETATM   15  C   UNL     1      43.764 -19.026   3.230  1.00  0.00    -0.022 A 
HETATM   16  O   UNL     1      44.772 -21.097   3.311  1.00  0.00    -0.350 OA
HETATM   17  C   UNL     1      43.581 -19.563   1.863  1.00  0.00     0.068 C 
HETATM   18  C   UNL     1      43.390 -17.803   3.760  1.00  0.00     0.020 A 
HETATM   19  C   UNL     1      43.931 -21.026   2.135  1.00  0.00     0.180 C 
BRANCH  12  20
HETATM   20  O   UNL     1      44.972 -18.212   7.089  1.00  0.00    -0.360 OA
HETATM   21  H   UNL     1      45.543 -18.942   7.397  1.00  0.00     0.217 HD
ENDBRANCH  12  20
ENDBRANCH  10  11
ENDBRANCH   8  10
BRANCH   4  22
HETATM   22  C   UNL     1      39.250 -13.729   2.366  1.00  0.00     0.010 A 
HETATM   23  C   UNL     1      38.919 -12.367   2.391  1.00  0.00     0.015 A 
HETATM   24  C   UNL     1      37.888 -11.881   1.584  1.00  0.00     0.001 A 
HETATM   25  C   UNL     1      37.177 -12.749   0.758  1.00  0.00     0.000 A 
HETATM   26  C   UNL     1      37.489 -14.107   0.741  1.00  0.00     0.001 A 
HETATM   27  C   UNL     1      38.521 -14.597   1.544  1.00  0.00     0.015 A 
ENDBRANCH   4  22
TORSDOF 4
ENDMDL
MODEL 2
REMARK VINA RESULT:      -8.5      1.601      2.135
REMARK  4 active torsions:
REMARK  status: ('A' for Active; 'I' for Inactive)
REMARK    1  A    between atoms: C_4  and  C_5 
REMARK    2  A    between atoms: C_14  and  C_15 
REMARK    3  A    between atoms: C_15  and  C_16 
REMARK    4  A    between atoms: C_17  and  O_18 
ROOT
HETATM    1  C   UNL     1      44.116 -14.693   6.270  1.00  0.00     0.071 C 
HETATM    2  C   UNL     1      42.663 -15.062   6.117  1.00  0.00     0.045 A 
HETATM    3  N   UNL     1      41.950 -14.128   5.397  1.00  0.00    -0.234 NA
HETATM    4  C   UNL     1      40.694 -14.340   5.170  1.00  0.00     0.141 A 
HETATM    5  N   UNL     1      40.041 -15.435   5.668  1.00  0.00    -0.307 N 
HETATM    6  C   UNL     1      40.681 -16.400   6.375  1.00  0.00     0.255 A 
HETATM    7  O   UNL     1      40.098 -17.405   6.777  1.00  0.00    -0.268 OA
HETATM    8  C   UNL     1      42.131 -16.202   6.602  1.00  0.00     0.039 A 
HETATM    9  H   UNL     1      39.052 -15.579   5.536  1.00  0.00     0.170 HD
ENDROOT
BRANCH   8  10
HETATM   10  C   UNL     1      42.830 -17.298   7.364  1.00  0.00     0.088 C 
BRANCH  10  11
HETATM   11  C   UNL     1      43.380 -18.399   6.477  1.00  0.00    -0.020 A 
HETATM   12  C   UNL     1      43.763 -19.671   6.962  1.00  0.00     0.074 A 
HETATM   13  C   UNL     1      44.199 -20.679   6.099  1.00  0.00     0.074 A 
HETATM   14  C   UNL     1      44.274 -20.394   4.754  1.00  0.00     0.077 A 
HETATM   15  C   UNL     1      43.949 -19.147   4.256  1.00  0.00    -0.022 A 
HETATM   16  O   UNL     1      44.697 -21.277   3.794  1.00  0.00    -0.350 OA
HETATM   17  C   UNL     1      44.228 -19.117   2.804  1.00  0.00     0.068 C 
HETATM   18  C   UNL     1      43.505 -18.139   5.096  1.00  0.00     0.020 A 
HETATM   19  C   UNL     1      44.343 -20.621   2.555  1.00  0.00     0.180 C 
BRANCH  12  20
HETATM   20  O   UNL     1      43.748 -20.018   8.284  1.00  0.00    -0.360 OA
HETATM   21  H   UNL     1      43.872 -19.242   8.863  1.00  0.00     0.217 HD
ENDBRANCH  12  20
ENDBRANCH  10  11
ENDBRANCH   8  10
BRANCH   4  22
HETATM   22  C   UNL     1      39.891 -13.386   4.355  1.00  0.00     0.010 A 
HETATM   23  C   UNL     1      39.712 -13.559   2.976  1.00  0.00     0.015 A 
HETATM   24  C   UNL     1      38.967 -12.632   2.243  1.00  0.00     0.001 A 
HETATM   25  C   UNL     1      38.408 -11.525   2.879  1.00  0.00     0.000 A 
HETATM   26  C   UNL     1      38.596 -11.337   4.246  1.00  0.00     0.001 A 
HETATM   27  C   UNL     1      39.338 -12.263   4.983  1.00  0.00     0.015 A 
ENDBRANCH   4  22
TORSDOF 4
ENDMDL
MODEL 3
REMARK VINA RESULT:      -8.5      2.843      7.507
REMARK  4 active torsions:
REMARK  status: ('A' for Active; 'I' for Inactive)
REMARK    1  A    between atoms: C_4  and  C_5 
REMARK    2  A    between atoms: C_14  and  C_15 
REMARK    3  A    between atoms: C_15  and  C_16 
REMARK    4  A    between atoms: C_17  and  O_18 
ROOT
HETATM    1  C   UNL     1      43.245 -14.477   2.689  1.00  0.00     0.071 C 
HETATM    2  C   UNL     1      43.315 -15.548   3.747  1.00  0.00     0.045 A 
HETATM    3  N   UNL     1      43.495 -16.807   3.218  1.00  0.00    -0.234 NA
HETATM    4  C   UNL     1      43.600 -17.815   4.024  1.00  0.00     0.141 A 
HETATM    5  N   UNL     1      43.483 -17.674   5.380  1.00  0.00    -0.307 N 
HETATM    6  C   UNL     1      43.315 -16.464   5.970  1.00  0.00     0.255 A 
HETATM    7  O   UNL     1      43.260 -16.340   7.193  1.00  0.00    -0.268 OA
HETATM    8  C   UNL     1      43.245 -15.292   5.069  1.00  0.00     0.039 A 
HETATM    9  H   UNL     1      43.513 -18.462   6.008  1.00  0.00     0.170 HD
ENDROOT
BRANCH   8  10
HETATM   10  C   UNL     1      43.087 -13.954   5.745  1.00  0.00     0.088 C 
BRANCH  10  11
HETATM   11  C   UNL     1      41.745 -13.298   5.486  1.00  0.00    -0.020 A 
HETATM   12  C   UNL     1      40.513 -13.854   5.902  1.00  0.00     0.074 A 
HETATM   13  C   UNL     1      39.305 -13.183   5.702  1.00  0.00     0.074 A 
HETATM   14  C   UNL     1      39.338 -11.965   5.062  1.00  0.00     0.077 A 
HETATM   15  C   UNL     1      40.521 -11.416   4.605  1.00  0.00    -0.022 A 
HETATM   16  O   UNL     1      38.233 -11.201   4.785  1.00  0.00    -0.350 OA
HETATM   17  C   UNL     1      40.223 -10.165   3.872  1.00  0.00     0.068 C 
HETATM   18  C   UNL     1      41.728 -12.064   4.802  1.00  0.00     0.020 A 
HETATM   19  C   UNL     1      38.796  -9.935   4.368  1.00  0.00     0.180 C 
BRANCH  12  20
HETATM   20  O   UNL     1      40.395 -15.071   6.513  1.00  0.00    -0.360 OA
HETATM   21  H   UNL     1      41.141 -15.661   6.292  1.00  0.00     0.217 HD
ENDBRANCH  12  20
ENDBRANCH  10  11
ENDBRANCH   8  10
BRANCH   4  22
HETATM   22  C   UNL     1      43.845 -19.189   3.505  1.00  0.00     0.010 A 
HETATM   23  C   UNL     1      43.368 -19.603   2.254  1.00  0.00     0.015 A 
HETATM   24  C   UNL     1      43.604 -20.907   1.810  1.00  0.00     0.001 A 
HETATM   25  C   UNL     1      44.305 -21.804   2.614  1.00  0.00     0.000 A 
HETATM   26  C   UNL     1      44.768 -21.404   3.865  1.00  0.00     0.001 A 
HETATM   27  C   UNL     1      44.537 -20.101   4.312  1.00  0.00     0.015 A 
ENDBRANCH   4  22
TORSDOF 4
ENDMDL
MODEL 4
REMARK VINA RESULT:      -8.3      3.260      5.836
REMARK  4 active torsions:
REMARK  status: ('A' for Active; 'I' for Inactive)
REMARK    1  A    between atoms: C_4  and  C_5 
REMARK    2  A    between atoms: C_14  and  C_15 
REMARK    3  A    between atoms: C_15  and  C_16 
REMARK    4  A    between atoms: C_17  and  O_18 
ROOT
HETATM    1  C   UNL     1      42.652 -14.367   3.601  1.00  0.00     0.071 C 
HETATM    2  C   UNL     1      42.977 -14.778   5.014  1.00  0.00     0.045 A 
HETATM    3  N   UNL     1      43.823 -13.891   5.644  1.00  0.00    -0.234 NA
HETATM    4  C   UNL     1      44.159 -14.115   6.874  1.00  0.00     0.141 A 
HETATM    5  N   UNL     1      43.744 -15.232   7.549  1.00  0.00    -0.307 N 
HETATM    6  C   UNL     1      42.904 -16.141   6.994  1.00  0.00     0.255 A 
HETATM    7  O   UNL     1      42.496 -17.116   7.622  1.00  0.00    -0.268 OA
HETATM    8  C   UNL     1      42.466 -15.877   5.605  1.00  0.00     0.039 A 
HETATM    9  H   UNL     1      44.044 -15.436   8.489  1.00  0.00     0.170 HD
ENDROOT
BRANCH   8  10
HETATM   10  C   UNL     1      41.510 -16.883   5.016  1.00  0.00     0.088 C 
BRANCH  10  11
HETATM   11  C   UNL     1      42.173 -17.874   4.078  1.00  0.00    -0.020 A 
HETATM   12  C   UNL     1      41.919 -17.919   2.688  1.00  0.00     0.074 A 
HETATM   13  C   UNL     1      42.603 -18.803   1.850  1.00  0.00     0.074 A 
HETATM   14  C   UNL     1      43.521 -19.657   2.419  1.00  0.00     0.077 A 
HETATM   15  C   UNL     1      43.758 -19.666   3.781  1.00  0.00    -0.022 A 
HETATM   16  O   UNL     1      44.255 -20.585   1.726  1.00  0.00    -0.350 OA
HETATM   17  C   UNL     1      44.710 -20.753   4.099  1.00  0.00     0.068 C 
HETATM   18  C   UNL     1      43.096 -18.790   4.624  1.00  0.00     0.020 A 
HETATM   19  C   UNL     1      45.239 -21.024   2.691  1.00  0.00     0.180 C 
BRANCH  12  20
HETATM   20  O   UNL     1      41.001 -17.129   2.055  1.00  0.00    -0.360 OA
HETATM   21  H   UNL     1      41.244 -16.966   1.123  1.00  0.00     0.217 HD
ENDBRANCH  12  20
ENDBRANCH  10  11
ENDBRANCH   8  10
BRANCH   4  22
HETATM   22  C   UNL     1      45.029 -13.161   7.616  1.00  0.00     0.010 A 
HETATM   23  C   UNL     1      46.335 -12.871   7.197  1.00  0.00     0.015 A 
HETATM   24  C   UNL     1      47.126 -11.984   7.931  1.00  0.00     0.001 A 
HETATM   25  C   UNL     1      46.625 -11.392   9.089  1.00  0.00     0.000 A 
HETATM   26  C   UNL     1      45.334 -11.689   9.521  1.00  0.00     0.001 A 
HETATM   27  C   UNL     1      44.539 -12.573   8.789  1.00  0.00     0.015 A 
ENDBRANCH   4  22
TORSDOF 4
ENDMDL
MODEL 5
REMARK VINA RESULT:      -8.3      2.990      3.267
REMARK  4 active torsions:
REMARK  status: ('A' for Active; 'I' for Inactive)
REMARK    1  A    between atoms: C_4  and  C_5 
REMARK    2  A    between atoms: C_14  and  C_15 
REMARK    3  A    between atoms: C_15  and  C_16 
REMARK    4  A    between atoms: C_17  and  O_18 
ROOT
HETATM    1  C   UNL     1      43.491 -14.137   3.191  1.00  0.00     0.071 C 
HETATM    2  C   UNL     1      42.394 -14.682   2.313  1.00  0.00     0.045 A 
HETATM    3  N   UNL     1      42.348 -14.071   1.079  1.00  0.00    -0.234 NA
HETATM    4  C   UNL     1      41.466 -14.468   0.219  1.00  0.00     0.141 A 
HETATM    5  N   UNL     1      40.546 -15.437   0.516  1.00  0.00    -0.307 N 
HETATM    6  C   UNL     1      40.539 -16.087   1.706  1.00  0.00     0.255 A 
HETATM    7  O   UNL     1      39.741 -16.991   1.948  1.00  0.00    -0.268 OA
HETATM    8  C   UNL     1      41.573 -15.684   2.687  1.00  0.00     0.039 A 
HETATM    9  H   UNL     1      39.826 -15.713  -0.133  1.00  0.00     0.170 HD
ENDROOT
BRANCH   8  10
HETATM   10  C   UNL     1      41.569 -16.439   3.992  1.00  0.00     0.088 C 
BRANCH  10  11
HETATM   11  C   UNL     1      42.611 -17.538   4.060  1.00  0.00    -0.020 A 
HETATM   12  C   UNL     1      43.529 -17.676   5.127  1.00  0.00     0.074 A 
HETATM   13  C   UNL     1      44.427 -18.743   5.184  1.00  0.00     0.074 A 
HETATM   14  C   UNL     1      44.417 -19.655   4.153  1.00  0.00     0.077 A 
HETATM   15  C   UNL     1      43.562 -19.523   3.075  1.00  0.00    -0.022 A 
HETATM   16  O   UNL     1      45.248 -20.742   4.066  1.00  0.00    -0.350 OA
HETATM   17  C   UNL     1      43.857 -20.587   2.089  1.00  0.00     0.068 C 
HETATM   18  C   UNL     1      42.659 -18.476   3.007  1.00  0.00     0.020 A 
HETATM   19  C   UNL     1      44.680 -21.515   2.983  1.00  0.00     0.180 C 
BRANCH  12  20
HETATM   20  O   UNL     1      43.623 -16.795   6.169  1.00  0.00    -0.360 OA
HETATM   21  H   UNL     1      42.807 -16.267   6.272  1.00  0.00     0.217 HD
ENDBRANCH  12  20
ENDBRANCH  10  11
ENDBRANCH   8  10
BRANCH   4  22
HETATM   22  C   UNL     1      41.407 -13.874  -1.146  1.00  0.00     0.010 A 
HETATM   23  C   UNL     1      40.610 -14.426  -2.159  1.00  0.00     0.015 A 
HETATM   24  C   UNL     1      40.596 -13.850  -3.432  1.00  0.00     0.001 A 
HETATM   25  C   UNL     1      41.383 -12.732  -3.703  1.00  0.00     0.000 A 
HETATM   26  C   UNL     1      42.190 -12.189  -2.706  1.00  0.00     0.001 A 
HETATM   27  C   UNL     1      42.205 -12.759  -1.431  1.00  0.00     0.015 A 
ENDBRANCH   4  22
TORSDOF 4
ENDMDL
MODEL 6
REMARK VINA RESULT:      -8.3      3.688      7.703
REMARK  4 active torsions:
REMARK  status: ('A' for Active; 'I' for Inactive)
REMARK    1  A    between atoms: C_4  and  C_5 
REMARK    2  A    between atoms: C_14  and  C_15 
REMARK    3  A    between atoms: C_15  and  C_16 
REMARK    4  A    between atoms: C_17  and  O_18 
ROOT
HETATM    1  C   UNL     1      43.576 -14.003   3.240  1.00  0.00     0.071 C 
HETATM    2  C   UNL     1      42.786 -15.262   2.989  1.00  0.00     0.045 A 
HETATM    3  N   UNL     1      43.474 -16.401   3.347  1.00  0.00    -0.234 NA
HETATM    4  C   UNL     1      42.895 -17.550   3.206  1.00  0.00     0.141 A 
HETATM    5  N   UNL     1      41.644 -17.671   2.664  1.00  0.00    -0.307 N 
HETATM    6  C   UNL     1      40.906 -16.593   2.299  1.00  0.00     0.255 A 
HETATM    7  O   UNL     1      39.764 -16.707   1.858  1.00  0.00    -0.268 OA
HETATM    8  C   UNL     1      41.530 -15.266   2.499  1.00  0.00     0.039 A 
HETATM    9  H   UNL     1      41.210 -18.567   2.506  1.00  0.00     0.170 HD
ENDROOT
BRANCH   8  10
HETATM   10  C   UNL     1      40.684 -14.079   2.116  1.00  0.00     0.088 C 
BRANCH  10  11
HETATM   11  C   UNL     1      40.607 -13.847   0.618  1.00  0.00    -0.020 A 
HETATM   12  C   UNL     1      39.426 -14.027  -0.138  1.00  0.00     0.074 A 
HETATM   13  C   UNL     1      39.382 -13.737  -1.503  1.00  0.00     0.074 A 
HETATM   14  C   UNL     1      40.535 -13.291  -2.108  1.00  0.00     0.077 A 
HETATM   15  C   UNL     1      41.716 -13.147  -1.405  1.00  0.00    -0.022 A 
HETATM   16  O   UNL     1      40.645 -12.981  -3.440  1.00  0.00    -0.350 OA
HETATM   17  C   UNL     1      42.793 -12.756  -2.341  1.00  0.00     0.068 C 
HETATM   18  C   UNL     1      41.774 -13.421  -0.049  1.00  0.00     0.020 A 
HETATM   19  C   UNL     1      41.930 -12.320  -3.525  1.00  0.00     0.180 C 
BRANCH  12  20
HETATM   20  O   UNL     1      38.252 -14.497   0.384  1.00  0.00    -0.360 OA
HETATM   21  H   UNL     1      37.543 -13.828   0.339  1.00  0.00     0.217 HD
ENDBRANCH  12  20
ENDBRANCH  10  11
ENDBRANCH   8  10
BRANCH   4  22
HETATM   22  C   UNL     1      43.576 -18.807   3.625  1.00  0.00     0.010 A 
HETATM   23  C   UNL     1      43.930 -19.047   4.959  1.00  0.00     0.015 A 
HETATM   24  C   UNL     1      44.585 -20.231   5.309  1.00  0.00     0.001 A 
HETATM   25  C   UNL     1      44.897 -21.173   4.331  1.00  0.00     0.000 A 
HETATM   26  C   UNL     1      44.563 -20.933   3.000  1.00  0.00     0.001 A 
HETATM   27  C   UNL     1      43.907 -19.753   2.646  1.00  0.00     0.015 A 
ENDBRANCH   4  22
TORSDOF 4
ENDMDL
MODEL 7
REMARK VINA RESULT:      -8.2      2.498      7.429
REMARK  4 active torsions:
REMARK  status: ('A' for Active; 'I' for Inactive)
REMARK    1  A    between atoms: C_4  and  C_5 
REMARK    2  A    between atoms: C_14  and  C_15 
REMARK    3  A    between atoms: C_15  and  C_16 
REMARK    4  A    between atoms: C_17  and  O_18 
ROOT
HETATM    1  C   UNL     1      40.598 -16.642   6.231  1.00  0.00     0.071 C 
HETATM    2  C   UNL     1      41.671 -16.599   5.173  1.00  0.00     0.045 A 
HETATM    3  N   UNL     1      42.136 -17.852   4.837  1.00  0.00    -0.234 NA
HETATM    4  C   UNL     1      43.041 -17.956   3.918  1.00  0.00     0.141 A 
HETATM    5  N   UNL     1      43.589 -16.859   3.311  1.00  0.00    -0.307 N 
HETATM    6  C   UNL     1      43.173 -15.597   3.585  1.00  0.00     0.255 A 
HETATM    7  O   UNL     1      43.634 -14.619   3.000  1.00  0.00    -0.268 OA
HETATM    8  C   UNL     1      42.100 -15.459   4.596  1.00  0.00     0.039 A 
HETATM    9  H   UNL     1      44.329 -16.932   2.631  1.00  0.00     0.170 HD
ENDROOT
BRANCH   8  10
HETATM   10  C   UNL     1      41.631 -14.052   4.866  1.00  0.00     0.088 C 
BRANCH  10  11
HETATM   11  C   UNL     1      40.798 -13.464   3.743  1.00  0.00    -0.020 A 
HETATM   12  C   UNL     1      40.918 -12.126   3.303  1.00  0.00     0.074 A 
HETATM   13  C   UNL     1      40.179 -11.645   2.220  1.00  0.00     0.074 A 
HETATM   14  C   UNL     1      39.302 -12.506   1.600  1.00  0.00     0.077 A 
HETATM   15  C   UNL     1      39.131 -13.807   2.035  1.00  0.00    -0.022 A 
HETATM   16  O   UNL     1      38.503 -12.171   0.537  1.00  0.00    -0.350 OA
HETATM   17  C   UNL     1      38.055 -14.445   1.244  1.00  0.00     0.068 C 
HETATM   18  C   UNL     1      39.862 -14.302   3.102  1.00  0.00     0.020 A 
HETATM   19  C   UNL     1      37.990 -13.447   0.088  1.00  0.00     0.180 C 
BRANCH  12  20
HETATM   20  O   UNL     1      41.741 -11.203   3.887  1.00  0.00    -0.360 OA
HETATM   21  H   UNL     1      42.217 -11.577   4.654  1.00  0.00     0.217 HD
ENDBRANCH  12  20
ENDBRANCH  10  11
ENDBRANCH   8  10
BRANCH   4  22
HETATM   22  C   UNL     1      43.541 -19.290   3.483  1.00  0.00     0.010 A 
HETATM   23  C   UNL     1      44.366 -20.074   4.300  1.00  0.00     0.015 A 
HETATM   24  C   UNL     1      44.829 -21.312   3.848  1.00  0.00     0.001 A 
HETATM   25  C   UNL     1      44.480 -21.769   2.578  1.00  0.00     0.000 A 
HETATM   26  C   UNL     1      43.674 -20.987   1.754  1.00  0.00     0.001 A 
HETATM   27  C   UNL     1      43.207 -19.750   2.202  1.00  0.00     0.015 A 
ENDBRANCH   4  22
TORSDOF 4
ENDMDL
MODEL 8
REMARK VINA RESULT:      -8.2      3.103      7.724
REMARK  4 active torsions:
REMARK  status: ('A' for Active; 'I' for Inactive)
REMARK    1  A    between atoms: C_4  and  C_5 
REMARK    2  A    between atoms: C_14  and  C_15 
REMARK    3  A    between atoms: C_15  and  C_16 
REMARK    4  A    between atoms: C_17  and  O_18 
ROOT
HETATM    1  C   UNL     1      43.717 -15.620   5.842  1.00  0.00     0.071 C 
HETATM    2  C   UNL     1      43.628 -16.341   4.522  1.00  0.00     0.045 A 
HETATM    3  N   UNL     1      43.943 -17.678   4.624  1.00  0.00    -0.234 NA
HETATM    4  C   UNL     1      43.879 -18.418   3.564  1.00  0.00     0.141 A 
HETATM    5  N   UNL     1      43.561 -17.902   2.337  1.00  0.00    -0.307 N 
HETATM    6  C   UNL     1      43.231 -16.597   2.164  1.00  0.00     0.255 A 
HETATM    7  O   UNL     1      42.899 -16.151   1.067  1.00  0.00    -0.268 OA
HETATM    8  C   UNL     1      43.248 -15.744   3.374  1.00  0.00     0.039 A 
HETATM    9  H   UNL     1      43.559 -18.463   1.500  1.00  0.00     0.170 HD
ENDROOT
BRANCH   8  10
HETATM   10  C   UNL     1      42.849 -14.305   3.167  1.00  0.00     0.088 C 
BRANCH  10  11
HETATM   11  C   UNL     1      41.745 -13.842   4.098  1.00  0.00    -0.020 A 
HETATM   12  C   UNL     1      40.506 -14.509   4.229  1.00  0.00     0.074 A 
HETATM   13  C   UNL     1      39.543 -14.087   5.148  1.00  0.00     0.074 A 
HETATM   14  C   UNL     1      39.821 -12.978   5.915  1.00  0.00     0.077 A 
HETATM   15  C   UNL     1      41.005 -12.279   5.779  1.00  0.00    -0.022 A 
HETATM   16  O   UNL     1      38.968 -12.442   6.845  1.00  0.00    -0.350 OA
HETATM   17  C   UNL     1      40.967 -11.087   6.654  1.00  0.00     0.068 C 
HETATM   18  C   UNL     1      41.974 -12.689   4.879  1.00  0.00     0.020 A 
HETATM   19  C   UNL     1      39.798 -11.491   7.553  1.00  0.00     0.180 C 
BRANCH  12  20
HETATM   20  O   UNL     1      40.143 -15.595   3.481  1.00  0.00    -0.360 OA
HETATM   21  H   UNL     1      40.537 -15.567   2.588  1.00  0.00     0.217 HD
ENDBRANCH  12  20
ENDBRANCH  10  11
ENDBRANCH   8  10
BRANCH   4  22
HETATM   22  C   UNL     1      44.160 -19.879   3.631  1.00  0.00     0.010 A 
HETATM   23  C   UNL     1      44.599 -20.494   4.811  1.00  0.00     0.015 A 
HETATM   24  C   UNL     1      44.870 -21.865   4.829  1.00  0.00     0.001 A 
HETATM   25  C   UNL     1      44.715 -22.624   3.671  1.00  0.00     0.000 A 
HETATM   26  C   UNL     1      44.296 -22.016   2.489  1.00  0.00     0.001 A 
HETATM   27  C   UNL     1      44.022 -20.647   2.468  1.00  0.00     0.015 A 
ENDBRANCH   4  22
TORSDOF 4
ENDMDL
MODEL 9
REMARK VINA RESULT:      -8.1      3.707      7.703
REMARK  4 active torsions:
REMARK  status: ('A' for Active; 'I' for Inactive)
REMARK    1  A    between atoms: C_4  and  C_5 
REMARK    2  A    between atoms: C_14  and  C_15 
REMARK    3  A    between atoms: C_15  and  C_16 
REMARK    4  A    between atoms: C_17  and  O_18 
ROOT
HETATM    1  C   UNL     1      39.465 -16.232   2.236  1.00  0.00     0.071 C 
HETATM    2  C   UNL     1      40.913 -16.011   2.594  1.00  0.00     0.045 A 
HETATM    3  N   UNL     1      41.568 -17.182   2.904  1.00  0.00    -0.234 NA
HETATM    4  C   UNL     1      42.827 -17.133   3.203  1.00  0.00     0.141 A 
HETATM    5  N   UNL     1      43.511 -15.949   3.274  1.00  0.00    -0.307 N 
HETATM    6  C   UNL     1      42.931 -14.760   2.973  1.00  0.00     0.255 A 
HETATM    7  O   UNL     1      43.565 -13.706   2.991  1.00  0.00    -0.268 OA
HETATM    8  C   UNL     1      41.505 -14.800   2.577  1.00  0.00     0.039 A 
HETATM    9  H   UNL     1      44.477 -15.901   3.556  1.00  0.00     0.170 HD
ENDROOT
BRANCH   8  10
HETATM   10  C   UNL     1      40.887 -13.473   2.218  1.00  0.00     0.088 C 
BRANCH  10  11
HETATM   11  C   UNL     1      40.979 -13.141   0.741  1.00  0.00    -0.020 A 
HETATM   12  C   UNL     1      41.920 -12.233   0.204  1.00  0.00     0.074 A 
HETATM   13  C   UNL     1      42.014 -12.008  -1.172  1.00  0.00     0.074 A 
HETATM   14  C   UNL     1      41.143 -12.679  -2.000  1.00  0.00     0.077 A 
HETATM   15  C   UNL     1      40.183 -13.539  -1.501  1.00  0.00    -0.022 A 
HETATM   16  O   UNL     1      41.110 -12.548  -3.364  1.00  0.00    -0.350 OA
HETATM   17  C   UNL     1      39.338 -14.021  -2.616  1.00  0.00     0.068 C 
HETATM   18  C   UNL     1      40.082 -13.780  -0.141  1.00  0.00     0.020 A 
HETATM   19  C   UNL     1      40.242 -13.627  -3.784  1.00  0.00     0.180 C 
BRANCH  12  20
HETATM   20  O   UNL     1      42.795 -11.506   0.962  1.00  0.00    -0.360 OA
HETATM   21  H   UNL     1      42.822 -11.821   1.886  1.00  0.00     0.217 HD
ENDBRANCH  12  20
ENDBRANCH  10  11
ENDBRANCH   8  10
BRANCH   4  22
HETATM   22  C   UNL     1      43.593 -18.376   3.497  1.00  0.00     0.010 A 
HETATM   23  C   UNL     1      44.154 -18.619   4.758  1.00  0.00     0.015 A 
HETATM   24  C   UNL     1      44.882 -19.789   4.988  1.00  0.00     0.001 A 
HETATM   25  C   UNL     1      45.063 -20.714   3.962  1.00  0.00     0.000 A 
HETATM   26  C   UNL     1      44.523 -20.471   2.701  1.00  0.00     0.001 A 
HETATM   27  C   UNL     1      43.792 -19.304   2.467  1.00  0.00     0.015 A 
ENDBRANCH   4  22
TORSDOF 4
ENDMDL
MODEL 10
REMARK VINA RESULT:      -8.1      3.713      7.570
REMARK  4 active torsions:
REMARK  status: ('A' for Active; 'I' for Inactive)
REMARK    1  A    between atoms: C_4  and  C_5 
REMARK    2  A    between atoms: C_14  and  C_15 
REMARK    3  A    between atoms: C_15  and  C_16 
REMARK    4  A    between atoms: C_17  and  O_18 
ROOT
HETATM    1  C   UNL     1      43.787 -14.427   3.472  1.00  0.00     0.071 C 
HETATM    2  C   UNL     1      42.901 -15.559   3.018  1.00  0.00     0.045 A 
HETATM    3  N   UNL     1      43.522 -16.786   3.102  1.00  0.00    -0.234 NA
HETATM    4  C   UNL     1      42.858 -17.846   2.767  1.00  0.00     0.141 A 
HETATM    5  N   UNL     1      41.580 -17.779   2.281  1.00  0.00    -0.307 N 
HETATM    6  C   UNL     1      40.906 -16.606   2.180  1.00  0.00     0.255 A 
HETATM    7  O   UNL     1      39.741 -16.560   1.789  1.00  0.00    -0.268 OA
HETATM    8  C   UNL     1      41.628 -15.387   2.607  1.00  0.00     0.039 A 
HETATM    9  H   UNL     1      41.078 -18.596   1.972  1.00  0.00     0.170 HD
ENDROOT
BRANCH   8  10
HETATM   10  C   UNL     1      40.852 -14.098   2.516  1.00  0.00     0.088 C 
BRANCH  10  11
HETATM   11  C   UNL     1      41.250 -13.234   1.334  1.00  0.00    -0.020 A 
HETATM   12  C   UNL     1      41.555 -11.857   1.445  1.00  0.00     0.074 A 
HETATM   13  C   UNL     1      41.982 -11.114   0.343  1.00  0.00     0.074 A 
HETATM   14  C   UNL     1      42.076 -11.753  -0.873  1.00  0.00     0.077 A 
HETATM   15  C   UNL     1      41.743 -13.086  -1.021  1.00  0.00    -0.022 A 
HETATM   16  O   UNL     1      42.467 -11.150  -2.041  1.00  0.00    -0.350 OA
HETATM   17  C   UNL     1      41.844 -13.455  -2.451  1.00  0.00     0.068 C 
HETATM   18  C   UNL     1      41.326 -13.839   0.063  1.00  0.00     0.020 A 
HETATM   19  C   UNL     1      42.664 -12.263  -2.944  1.00  0.00     0.180 C 
BRANCH  12  20
HETATM   20  O   UNL     1      41.454 -11.146   2.608  1.00  0.00    -0.360 OA
HETATM   21  H   UNL     1      41.896 -10.277   2.541  1.00  0.00     0.217 HD
ENDBRANCH  12  20
ENDBRANCH  10  11
ENDBRANCH   8  10
BRANCH   4  22
HETATM   22  C   UNL     1      43.466 -19.200   2.888  1.00  0.00     0.010 A 
HETATM   23  C   UNL     1      44.275 -19.554   3.977  1.00  0.00     0.015 A 
HETATM   24  C   UNL     1      44.842 -20.829   4.045  1.00  0.00     0.001 A 
HETATM   25  C   UNL     1      44.615 -21.751   3.025  1.00  0.00     0.000 A 
HETATM   26  C   UNL     1      43.826 -21.401   1.931  1.00  0.00     0.001 A 
HETATM   27  C   UNL     1      43.255 -20.128   1.861  1.00  0.00     0.015 A 
ENDBRANCH   4  22
TORSDOF 4
ENDMDL
