MODEL 1
REMARK VINA RESULT:      -9.0      0.000      0.000
REMARK  7 active torsions:
REMARK  status: ('A' for Active; 'I' for Inactive)
REMARK    1  A    between atoms: C_2  and  N_3 
REMARK    2  A    between atoms: C_11  and  C_12 
REMARK    3  A    between atoms: C_14  and  O_15 
REMARK    4  A    between atoms: C_17  and  O_18 
REMARK    5  A    between atoms: O_18  and  C_19 
REMARK    6  A    between atoms: C_19  and  C_20 
REMARK    7  A    between atoms: C_31  and  O_32 
ROOT
HETATM    1  N   UNL     1      40.564  -9.159  11.693  1.00  0.00    -0.067 N 
HETATM    2  H   UNL     1      40.664  -8.431  12.411  1.00  0.00     0.280 HD
HETATM    3  C   UNL     1      41.971  -9.382  11.134  1.00  0.00     0.281 C 
HETATM    4  C   UNL     1      41.911 -10.110   9.836  1.00  0.00     0.018 A 
HETATM    5  C   UNL     1      40.794 -10.192   9.023  1.00  0.00    -0.024 A 
HETATM    6  C   UNL     1      41.062 -10.984   7.860  1.00  0.00     0.057 A 
HETATM    7  C   UNL     1      42.353 -11.455   7.855  1.00  0.00     0.087 A 
HETATM    8  N   UNL     1      42.817 -12.262   6.887  1.00  0.00    -0.357 N 
HETATM    9  C   UNL     1      42.028 -12.395   5.671  1.00  0.00     0.243 C 
HETATM   10  N   UNL     1      40.602 -12.032   5.734  1.00  0.00    -0.235 NA
HETATM   11  C   UNL     1      40.220 -11.374   6.761  1.00  0.00     0.173 C 
HETATM   12  S   UNL     1      43.251 -10.943   9.199  1.00  0.00    -0.074 SA
HETATM   13  C   UNL     1      39.492  -9.552   9.411  1.00  0.00     0.068 C 
HETATM   14  C   UNL     1      39.657  -8.588  10.601  1.00  0.00     0.240 C 
HETATM   15  H   UNL     1      43.806 -12.476   6.794  1.00  0.00     0.162 HD
ENDROOT
BRANCH   9  16
HETATM   16  C   UNL     1      42.156 -13.824   5.163  1.00  0.00    -0.012 A 
HETATM   17  C   UNL     1      41.476 -14.234   3.998  1.00  0.00     0.050 A 
HETATM   18  C   UNL     1      41.642 -15.525   3.487  1.00  0.00     0.102 A 
HETATM   19  C   UNL     1      42.521 -16.405   4.139  1.00  0.00     0.112 A 
HETATM   20  C   UNL     1      43.182 -16.024   5.305  1.00  0.00     0.041 A 
HETATM   21  C   UNL     1      43.003 -14.735   5.811  1.00  0.00     0.014 A 
BRANCH  18  22
HETATM   22  O   UNL     1      41.025 -16.009   2.363  1.00  0.00    -0.353 OA
HETATM   23  C   UNL     1      39.696 -15.573   2.109  1.00  0.00     0.210 C 
ENDBRANCH  18  22
BRANCH  19  24
HETATM   24  O   UNL     1      42.686 -17.676   3.526  1.00  0.00    -0.272 OA
BRANCH  24  25
HETATM   25  C   UNL     1      43.674 -18.016   2.618  1.00  0.00     0.300 C 
HETATM   26  O   UNL     1      44.294 -17.294   1.855  1.00  0.00    -0.259 OA
BRANCH  25  27
HETATM   27  C   UNL     1      43.969 -19.448   2.783  1.00  0.00     0.061 A 
HETATM   28  C   UNL     1      44.577 -19.963   3.933  1.00  0.00     0.050 A 
HETATM   29 CL   UNL     1      45.012 -18.981   5.286  1.00  0.00    -0.083 Cl
HETATM   30  C   UNL     1      44.809 -21.339   4.032  1.00  0.00     0.025 A 
HETATM   31  C   UNL     1      44.427 -22.195   2.996  1.00  0.00     0.002 A 
HETATM   32  C   UNL     1      43.802 -21.683   1.860  1.00  0.00     0.001 A 
HETATM   33  C   UNL     1      43.567 -20.312   1.754  1.00  0.00     0.019 A 
ENDBRANCH  25  27
ENDBRANCH  24  25
ENDBRANCH  19  24
ENDBRANCH   9  16
BRANCH  11  34
HETATM   34  O   UNL     1      38.926 -11.015   6.838  1.00  0.00    -0.344 OA
HETATM   35  H   UNL     1      38.422 -11.838   6.976  1.00  0.00     0.219 HD
ENDBRANCH  11  34
BRANCH   1  36
HETATM   36  C   UNL     1      40.042 -10.394  12.397  1.00  0.00     0.231 C 
HETATM   37  C   UNL     1      41.090 -10.980  13.323  1.00  0.00     0.034 C 
ENDBRANCH   1  36
TORSDOF 7
ENDMDL
MODEL 2
REMARK VINA RESULT:      -8.8      1.837      2.707
REMARK  7 active torsions:
REMARK  status: ('A' for Active; 'I' for Inactive)
REMARK    1  A    between atoms: C_2  and  N_3 
REMARK    2  A    between atoms: C_11  and  C_12 
REMARK    3  A    between atoms: C_14  and  O_15 
REMARK    4  A    between atoms: C_17  and  O_18 
REMARK    5  A    between atoms: O_18  and  C_19 
REMARK    6  A    between atoms: C_19  and  C_20 
REMARK    7  A    between atoms: C_31  and  O_32 
ROOT
HETATM    1  N   UNL     1      41.218  -8.865  12.065  1.00  0.00    -0.067 N 
HETATM    2  H   UNL     1      41.244  -8.112  12.764  1.00  0.00     0.280 HD
HETATM    3  C   UNL     1      41.330  -8.170  10.706  1.00  0.00     0.281 C 
HETATM    4  C   UNL     1      40.912  -9.088   9.610  1.00  0.00     0.018 A 
HETATM    5  C   UNL     1      40.131 -10.219   9.776  1.00  0.00    -0.024 A 
HETATM    6  C   UNL     1      39.932 -10.893   8.529  1.00  0.00     0.057 A 
HETATM    7  C   UNL     1      40.566 -10.244   7.496  1.00  0.00     0.087 A 
HETATM    8  N   UNL     1      40.559 -10.721   6.240  1.00  0.00    -0.357 N 
HETATM    9  C   UNL     1      39.615 -11.780   5.915  1.00  0.00     0.243 C 
HETATM   10  N   UNL     1      39.061 -12.571   7.027  1.00  0.00    -0.235 NA
HETATM   11  C   UNL     1      39.229 -12.106   8.206  1.00  0.00     0.173 C 
HETATM   12  S   UNL     1      41.368  -8.834   7.991  1.00  0.00    -0.074 SA
HETATM   13  C   UNL     1      39.644 -10.644  11.132  1.00  0.00     0.068 C 
HETATM   14  C   UNL     1      39.853  -9.544  12.190  1.00  0.00     0.240 C 
HETATM   15  H   UNL     1      40.883 -10.165   5.454  1.00  0.00     0.162 HD
ENDROOT
BRANCH   9  16
HETATM   16  C   UNL     1      40.266 -12.720   4.912  1.00  0.00    -0.012 A 
HETATM   17  C   UNL     1      41.538 -13.272   5.166  1.00  0.00     0.050 A 
HETATM   18  C   UNL     1      42.113 -14.190   4.283  1.00  0.00     0.102 A 
HETATM   19  C   UNL     1      41.391 -14.578   3.142  1.00  0.00     0.112 A 
HETATM   20  C   UNL     1      40.143 -14.024   2.863  1.00  0.00     0.041 A 
HETATM   21  C   UNL     1      39.582 -13.102   3.749  1.00  0.00     0.014 A 
BRANCH  18  22
HETATM   22  O   UNL     1      43.340 -14.777   4.450  1.00  0.00    -0.353 OA
HETATM   23  C   UNL     1      43.715 -15.140   5.772  1.00  0.00     0.210 C 
ENDBRANCH  18  22
BRANCH  19  24
HETATM   24  O   UNL     1      42.011 -15.560   2.325  1.00  0.00    -0.272 OA
BRANCH  24  25
HETATM   25  C   UNL     1      41.537 -16.840   2.095  1.00  0.00     0.300 C 
HETATM   26  O   UNL     1      40.585 -17.194   1.419  1.00  0.00    -0.259 OA
BRANCH  25  27
HETATM   27  C   UNL     1      42.464 -17.788   2.734  1.00  0.00     0.061 A 
HETATM   28  C   UNL     1      42.358 -18.151   4.081  1.00  0.00     0.050 A 
HETATM   29 CL   UNL     1      41.114 -17.554   5.120  1.00  0.00    -0.083 Cl
HETATM   30  C   UNL     1      43.262 -19.074   4.618  1.00  0.00     0.025 A 
HETATM   31  C   UNL     1      44.255 -19.638   3.815  1.00  0.00     0.002 A 
HETATM   32  C   UNL     1      44.346 -19.291   2.467  1.00  0.00     0.001 A 
HETATM   33  C   UNL     1      43.449 -18.371   1.924  1.00  0.00     0.019 A 
ENDBRANCH  25  27
ENDBRANCH  24  25
ENDBRANCH  19  24
ENDBRANCH   9  16
BRANCH  11  34
HETATM   34  O   UNL     1      38.721 -12.800   9.239  1.00  0.00    -0.344 OA
HETATM   35  H   UNL     1      37.822 -13.067   8.973  1.00  0.00     0.219 HD
ENDBRANCH  11  34
BRANCH   1  36
HETATM   36  C   UNL     1      42.415  -9.752  12.337  1.00  0.00     0.231 C 
HETATM   37  C   UNL     1      43.003  -9.473  13.707  1.00  0.00     0.034 C 
ENDBRANCH   1  36
TORSDOF 7
ENDMDL
MODEL 3
REMARK VINA RESULT:      -8.7      1.507      2.260
REMARK  7 active torsions:
REMARK  status: ('A' for Active; 'I' for Inactive)
REMARK    1  A    between atoms: C_2  and  N_3 
REMARK    2  A    between atoms: C_11  and  C_12 
REMARK    3  A    between atoms: C_14  and  O_15 
REMARK    4  A    between atoms: C_17  and  O_18 
REMARK    5  A    between atoms: O_18  and  C_19 
REMARK    6  A    between atoms: C_19  and  C_20 
REMARK    7  A    between atoms: C_31  and  O_32 
ROOT
HETATM    1  N   UNL     1      40.729  -8.031  10.349  1.00  0.00    -0.067 N 
HETATM    2  H   UNL     1      40.691  -7.074  10.721  1.00  0.00     0.280 HD
HETATM    3  C   UNL     1      41.012  -7.880   8.852  1.00  0.00     0.281 C 
HETATM    4  C   UNL     1      40.704  -9.145   8.129  1.00  0.00     0.018 A 
HETATM    5  C   UNL     1      39.885 -10.154   8.607  1.00  0.00    -0.024 A 
HETATM    6  C   UNL     1      39.817 -11.243   7.679  1.00  0.00     0.057 A 
HETATM    7  C   UNL     1      40.579 -11.004   6.562  1.00  0.00     0.087 A 
HETATM    8  N   UNL     1      40.707 -11.908   5.576  1.00  0.00    -0.357 N 
HETATM    9  C   UNL     1      39.785 -13.033   5.555  1.00  0.00     0.243 C 
HETATM   10  N   UNL     1      39.089 -13.374   6.808  1.00  0.00    -0.235 NA
HETATM   11  C   UNL     1      39.131 -12.505   7.745  1.00  0.00     0.173 C 
HETATM   12  S   UNL     1      41.348  -9.493   6.593  1.00  0.00    -0.074 SA
HETATM   13  C   UNL     1      39.237 -10.064   9.959  1.00  0.00     0.068 C 
HETATM   14  C   UNL     1      39.345  -8.648  10.556  1.00  0.00     0.240 C 
HETATM   15  H   UNL     1      41.131 -11.672   4.683  1.00  0.00     0.162 HD
ENDROOT
BRANCH   9  16
HETATM   16  C   UNL     1      40.527 -14.261   5.049  1.00  0.00    -0.012 A 
HETATM   17  C   UNL     1      41.414 -14.961   5.891  1.00  0.00     0.050 A 
HETATM   18  C   UNL     1      42.047 -16.129   5.455  1.00  0.00     0.102 A 
HETATM   19  C   UNL     1      41.766 -16.614   4.168  1.00  0.00     0.112 A 
HETATM   20  C   UNL     1      40.910 -15.921   3.313  1.00  0.00     0.041 A 
HETATM   21  C   UNL     1      40.289 -14.751   3.757  1.00  0.00     0.014 A 
BRANCH  18  22
HETATM   22  O   UNL     1      42.921 -16.873   6.204  1.00  0.00    -0.353 OA
HETATM   23  C   UNL     1      43.604 -16.211   7.260  1.00  0.00     0.210 C 
ENDBRANCH  18  22
BRANCH  19  24
HETATM   24  O   UNL     1      42.397 -17.838   3.819  1.00  0.00    -0.272 OA
BRANCH  24  25
HETATM   25  C   UNL     1      43.484 -17.977   2.973  1.00  0.00     0.300 C 
HETATM   26  O   UNL     1      44.133 -17.110   2.413  1.00  0.00    -0.259 OA
BRANCH  25  27
HETATM   27  C   UNL     1      43.839 -19.404   2.922  1.00  0.00     0.061 A 
HETATM   28  C   UNL     1      44.555 -20.038   3.943  1.00  0.00     0.050 A 
HETATM   29 CL   UNL     1      45.063 -19.225   5.379  1.00  0.00    -0.083 Cl
HETATM   30  C   UNL     1      44.839 -21.404   3.838  1.00  0.00     0.025 A 
HETATM   31  C   UNL     1      44.404 -22.132   2.728  1.00  0.00     0.002 A 
HETATM   32  C   UNL     1      43.672 -21.503   1.722  1.00  0.00     0.001 A 
HETATM   33  C   UNL     1      43.384 -20.141   1.819  1.00  0.00     0.019 A 
ENDBRANCH  25  27
ENDBRANCH  24  25
ENDBRANCH  19  24
ENDBRANCH   9  16
BRANCH  11  34
HETATM   34  O   UNL     1      38.492 -12.783   8.895  1.00  0.00    -0.344 OA
HETATM   35  H   UNL     1      38.082 -13.659   8.775  1.00  0.00     0.219 HD
ENDBRANCH  11  34
BRANCH   1  36
HETATM   36  C   UNL     1      41.869  -8.730  11.062  1.00  0.00     0.231 C 
HETATM   37  C   UNL     1      41.550  -8.934  12.531  1.00  0.00     0.034 C 
ENDBRANCH   1  36
TORSDOF 7
ENDMDL
MODEL 4
REMARK VINA RESULT:      -8.6      1.487      1.956
REMARK  7 active torsions:
REMARK  status: ('A' for Active; 'I' for Inactive)
REMARK    1  A    between atoms: C_2  and  N_3 
REMARK    2  A    between atoms: C_11  and  C_12 
REMARK    3  A    between atoms: C_14  and  O_15 
REMARK    4  A    between atoms: C_17  and  O_18 
REMARK    5  A    between atoms: O_18  and  C_19 
REMARK    6  A    between atoms: C_19  and  C_20 
REMARK    7  A    between atoms: C_31  and  O_32 
ROOT
HETATM    1  N   UNL     1      41.656  -8.642  12.302  1.00  0.00    -0.067 N 
HETATM    2  H   UNL     1      41.764  -7.866  12.967  1.00  0.00     0.280 HD
HETATM    3  C   UNL     1      43.080  -9.082  11.950  1.00  0.00     0.281 C 
HETATM    4  C   UNL     1      43.080  -9.918  10.717  1.00  0.00     0.018 A 
HETATM    5  C   UNL     1      42.066  -9.946   9.776  1.00  0.00    -0.024 A 
HETATM    6  C   UNL     1      42.365 -10.872   8.725  1.00  0.00     0.057 A 
HETATM    7  C   UNL     1      43.577 -11.489   8.924  1.00  0.00     0.087 A 
HETATM    8  N   UNL     1      44.044 -12.434   8.092  1.00  0.00    -0.357 N 
HETATM    9  C   UNL     1      43.395 -12.589   6.799  1.00  0.00     0.243 C 
HETATM   10  N   UNL     1      42.029 -12.056   6.648  1.00  0.00    -0.235 NA
HETATM   11  C   UNL     1      41.616 -11.263   7.561  1.00  0.00     0.173 C 
HETATM   12  S   UNL     1      44.368 -10.959  10.328  1.00  0.00    -0.074 SA
HETATM   13  C   UNL     1      40.820  -9.124   9.940  1.00  0.00     0.068 C 
HETATM   14  C   UNL     1      40.965  -8.076  11.060  1.00  0.00     0.240 C 
HETATM   15  H   UNL     1      45.002 -12.770   8.145  1.00  0.00     0.162 HD
ENDROOT
BRANCH   9  16
HETATM   16  C   UNL     1      43.397 -14.064   6.428  1.00  0.00    -0.012 A 
HETATM   17  C   UNL     1      42.504 -14.561   5.457  1.00  0.00     0.050 A 
HETATM   18  C   UNL     1      42.546 -15.901   5.061  1.00  0.00     0.102 A 
HETATM   19  C   UNL     1      43.513 -16.746   5.628  1.00  0.00     0.112 A 
HETATM   20  C   UNL     1      44.388 -16.278   6.607  1.00  0.00     0.041 A 
HETATM   21  C   UNL     1      44.331 -14.939   7.000  1.00  0.00     0.014 A 
BRANCH  18  22
HETATM   22  O   UNL     1      41.720 -16.470   4.126  1.00  0.00    -0.353 OA
HETATM   23  C   UNL     1      40.984 -15.591   3.286  1.00  0.00     0.210 C 
ENDBRANCH  18  22
BRANCH  19  24
HETATM   24  O   UNL     1      43.536 -18.078   5.132  1.00  0.00    -0.272 OA
BRANCH  24  25
HETATM   25  C   UNL     1      44.655 -18.888   5.038  1.00  0.00     0.300 C 
HETATM   26  O   UNL     1      45.656 -18.894   5.733  1.00  0.00    -0.259 OA
BRANCH  25  27
HETATM   27  C   UNL     1      44.407 -19.880   3.979  1.00  0.00     0.061 A 
HETATM   28  C   UNL     1      44.074 -19.516   2.670  1.00  0.00     0.050 A 
HETATM   29 CL   UNL     1      43.953 -17.872   2.154  1.00  0.00    -0.083 Cl
HETATM   30  C   UNL     1      43.872 -20.512   1.709  1.00  0.00     0.025 A 
HETATM   31  C   UNL     1      44.013 -21.860   2.049  1.00  0.00     0.002 A 
HETATM   32  C   UNL     1      44.365 -22.220   3.349  1.00  0.00     0.001 A 
HETATM   33  C   UNL     1      44.568 -21.233   4.314  1.00  0.00     0.019 A 
ENDBRANCH  25  27
ENDBRANCH  24  25
ENDBRANCH  19  24
ENDBRANCH   9  16
BRANCH  11  34
HETATM   34  O   UNL     1      40.379 -10.749   7.441  1.00  0.00    -0.344 OA
HETATM   35  H   UNL     1      39.859 -11.116   8.179  1.00  0.00     0.219 HD
ENDBRANCH  11  34
BRANCH   1  36
HETATM   36  C   UNL     1      40.900  -9.735  13.030  1.00  0.00     0.231 C 
HETATM   37  C   UNL     1      41.708 -10.277  14.194  1.00  0.00     0.034 C 
ENDBRANCH   1  36
TORSDOF 7
ENDMDL
MODEL 5
REMARK VINA RESULT:      -8.5      5.116      8.049
REMARK  7 active torsions:
REMARK  status: ('A' for Active; 'I' for Inactive)
REMARK    1  A    between atoms: C_2  and  N_3 
REMARK    2  A    between atoms: C_11  and  C_12 
REMARK    3  A    between atoms: C_14  and  O_15 
REMARK    4  A    between atoms: C_17  and  O_18 
REMARK    5  A    between atoms: O_18  and  C_19 
REMARK    6  A    between atoms: C_19  and  C_20 
REMARK    7  A    between atoms: C_31  and  O_32 
ROOT
HETATM    1  N   UNL     1      40.714 -11.098  -3.730  1.00  0.00    -0.067 N 
HETATM    2  H   UNL     1      40.442 -10.700  -4.638  1.00  0.00     0.280 HD
HETATM    3  C   UNL     1      40.210 -12.543  -3.746  1.00  0.00     0.281 C 
HETATM    4  C   UNL     1      40.184 -13.105  -2.367  1.00  0.00     0.018 A 
HETATM    5  C   UNL     1      40.177 -12.355  -1.204  1.00  0.00    -0.024 A 
HETATM    6  C   UNL     1      40.175 -13.200  -0.048  1.00  0.00     0.057 A 
HETATM    7  C   UNL     1      40.180 -14.530  -0.393  1.00  0.00     0.087 A 
HETATM    8  N   UNL     1      40.228 -15.509   0.526  1.00  0.00    -0.357 N 
HETATM    9  C   UNL     1      39.969 -15.157   1.914  1.00  0.00     0.243 C 
HETATM   10  N   UNL     1      40.119 -13.744   2.304  1.00  0.00    -0.235 NA
HETATM   11  C   UNL     1      40.198 -12.890   1.357  1.00  0.00     0.173 C 
HETATM   12  S   UNL     1      40.160 -14.781  -2.071  1.00  0.00    -0.074 SA
HETATM   13  C   UNL     1      40.225 -10.855  -1.237  1.00  0.00     0.068 C 
HETATM   14  C   UNL     1      39.974 -10.302  -2.653  1.00  0.00     0.240 C 
HETATM   15  H   UNL     1      40.068 -16.482   0.283  1.00  0.00     0.162 HD
ENDROOT
BRANCH   9  16
HETATM   16  C   UNL     1      40.852 -16.016   2.807  1.00  0.00    -0.012 A 
HETATM   17  C   UNL     1      41.147 -15.614   4.125  1.00  0.00     0.050 A 
HETATM   18  C   UNL     1      41.900 -16.430   4.974  1.00  0.00     0.102 A 
HETATM   19  C   UNL     1      42.340 -17.677   4.501  1.00  0.00     0.112 A 
HETATM   20  C   UNL     1      42.078 -18.080   3.193  1.00  0.00     0.041 A 
HETATM   21  C   UNL     1      41.331 -17.253   2.352  1.00  0.00     0.014 A 
BRANCH  18  22
HETATM   22  O   UNL     1      42.233 -16.121   6.267  1.00  0.00    -0.353 OA
HETATM   23  C   UNL     1      43.329 -15.238   6.466  1.00  0.00     0.210 C 
ENDBRANCH  18  22
BRANCH  19  24
HETATM   24  O   UNL     1      43.046 -18.477   5.440  1.00  0.00    -0.272 OA
BRANCH  24  25
HETATM   25  C   UNL     1      44.387 -18.813   5.373  1.00  0.00     0.300 C 
HETATM   26  O   UNL     1      45.351 -18.203   5.805  1.00  0.00    -0.259 OA
BRANCH  25  27
HETATM   27  C   UNL     1      44.490 -20.147   4.761  1.00  0.00     0.061 A 
HETATM   28  C   UNL     1      44.337 -21.326   5.497  1.00  0.00     0.050 A 
HETATM   29 CL   UNL     1      43.977 -21.339   7.186  1.00  0.00    -0.083 Cl
HETATM   30  C   UNL     1      44.427 -22.562   4.846  1.00  0.00     0.025 A 
HETATM   31  C   UNL     1      44.657 -22.618   3.469  1.00  0.00     0.002 A 
HETATM   32  C   UNL     1      44.789 -21.441   2.733  1.00  0.00     0.001 A 
HETATM   33  C   UNL     1      44.700 -20.205   3.375  1.00  0.00     0.019 A 
ENDBRANCH  25  27
ENDBRANCH  24  25
ENDBRANCH  19  24
ENDBRANCH   9  16
BRANCH  11  34
HETATM   34  O   UNL     1      40.321 -11.591   1.683  1.00  0.00    -0.344 OA
HETATM   35  H   UNL     1      41.272 -11.434   1.826  1.00  0.00     0.219 HD
ENDBRANCH  11  34
BRANCH   1  36
HETATM   36  C   UNL     1      42.226 -11.036  -3.664  1.00  0.00     0.231 C 
HETATM   37  C   UNL     1      42.701  -9.643  -3.299  1.00  0.00     0.034 C 
ENDBRANCH   1  36
TORSDOF 7
ENDMDL
MODEL 6
REMARK VINA RESULT:      -7.9      2.181      2.724
REMARK  7 active torsions:
REMARK  status: ('A' for Active; 'I' for Inactive)
REMARK    1  A    between atoms: C_2  and  N_3 
REMARK    2  A    between atoms: C_11  and  C_12 
REMARK    3  A    between atoms: C_14  and  O_15 
REMARK    4  A    between atoms: C_17  and  O_18 
REMARK    5  A    between atoms: O_18  and  C_19 
REMARK    6  A    between atoms: C_19  and  C_20 
REMARK    7  A    between atoms: C_31  and  O_32 
ROOT
HETATM    1  N   UNL     1      41.300  -8.794  11.989  1.00  0.00    -0.067 N 
HETATM    2  H   UNL     1      41.347  -8.041  12.687  1.00  0.00     0.280 HD
HETATM    3  C   UNL     1      41.379  -8.098  10.627  1.00  0.00     0.281 C 
HETATM    4  C   UNL     1      40.930  -9.015   9.543  1.00  0.00     0.018 A 
HETATM    5  C   UNL     1      40.151 -10.144   9.729  1.00  0.00    -0.024 A 
HETATM    6  C   UNL     1      39.918 -10.817   8.486  1.00  0.00     0.057 A 
HETATM    7  C   UNL     1      40.526 -10.170   7.438  1.00  0.00     0.087 A 
HETATM    8  N   UNL     1      40.485 -10.646   6.182  1.00  0.00    -0.357 N 
HETATM    9  C   UNL     1      39.531 -11.702   5.881  1.00  0.00     0.243 C 
HETATM   10  N   UNL     1      39.004 -12.493   7.008  1.00  0.00    -0.235 NA
HETATM   11  C   UNL     1      39.204 -12.028   8.181  1.00  0.00     0.173 C 
HETATM   12  S   UNL     1      41.344  -8.762   7.912  1.00  0.00    -0.074 SA
HETATM   13  C   UNL     1      39.699 -10.568  11.096  1.00  0.00     0.068 C 
HETATM   14  C   UNL     1      39.937  -9.469  12.149  1.00  0.00     0.240 C 
HETATM   15  H   UNL     1      40.790 -10.091   5.388  1.00  0.00     0.162 HD
ENDROOT
BRANCH   9  16
HETATM   16  C   UNL     1      40.153 -12.644   4.862  1.00  0.00    -0.012 A 
HETATM   17  C   UNL     1      39.531 -12.866   3.617  1.00  0.00     0.050 A 
HETATM   18  C   UNL     1      40.130 -13.676   2.648  1.00  0.00     0.102 A 
HETATM   19  C   UNL     1      41.384 -14.247   2.922  1.00  0.00     0.112 A 
HETATM   20  C   UNL     1      42.003 -14.057   4.156  1.00  0.00     0.041 A 
HETATM   21  C   UNL     1      41.390 -13.253   5.119  1.00  0.00     0.014 A 
BRANCH  18  22
HETATM   22  O   UNL     1      39.599 -13.946   1.413  1.00  0.00    -0.353 OA
HETATM   23  C   UNL     1      38.259 -14.416   1.368  1.00  0.00     0.210 C 
ENDBRANCH  18  22
BRANCH  19  24
HETATM   24  O   UNL     1      41.959 -15.005   1.867  1.00  0.00    -0.272 OA
BRANCH  24  25
HETATM   25  C   UNL     1      41.671 -16.325   1.566  1.00  0.00     0.300 C 
HETATM   26  O   UNL     1      41.162 -16.787   0.559  1.00  0.00    -0.259 OA
BRANCH  25  27
HETATM   27  C   UNL     1      42.194 -17.163   2.657  1.00  0.00     0.061 A 
HETATM   28  C   UNL     1      43.487 -17.697   2.641  1.00  0.00     0.050 A 
HETATM   29 CL   UNL     1      44.611 -17.401   1.363  1.00  0.00    -0.083 Cl
HETATM   30  C   UNL     1      43.927 -18.468   3.723  1.00  0.00     0.025 A 
HETATM   31  C   UNL     1      43.086 -18.696   4.815  1.00  0.00     0.002 A 
HETATM   32  C   UNL     1      41.805 -18.145   4.838  1.00  0.00     0.001 A 
HETATM   33  C   UNL     1      41.359 -17.374   3.763  1.00  0.00     0.019 A 
ENDBRANCH  25  27
ENDBRANCH  24  25
ENDBRANCH  19  24
ENDBRANCH   9  16
BRANCH  11  34
HETATM   34  O   UNL     1      38.721 -12.721   9.228  1.00  0.00    -0.344 OA
HETATM   35  H   UNL     1      37.779 -12.484   9.301  1.00  0.00     0.219 HD
ENDBRANCH  11  34
BRANCH   1  36
HETATM   36  C   UNL     1      42.502  -9.684  12.229  1.00  0.00     0.231 C 
HETATM   37  C   UNL     1      42.279 -10.594  13.421  1.00  0.00     0.034 C 
ENDBRANCH   1  36
TORSDOF 7
ENDMDL
MODEL 7
REMARK VINA RESULT:      -7.9      2.905      3.982
REMARK  7 active torsions:
REMARK  status: ('A' for Active; 'I' for Inactive)
REMARK    1  A    between atoms: C_2  and  N_3 
REMARK    2  A    between atoms: C_11  and  C_12 
REMARK    3  A    between atoms: C_14  and  O_15 
REMARK    4  A    between atoms: C_17  and  O_18 
REMARK    5  A    between atoms: O_18  and  C_19 
REMARK    6  A    between atoms: C_19  and  C_20 
REMARK    7  A    between atoms: C_31  and  O_32 
ROOT
HETATM    1  N   UNL     1      41.421  -9.957  12.362  1.00  0.00    -0.067 N 
HETATM    2  H   UNL     1      41.446  -9.464  13.264  1.00  0.00     0.280 HD
HETATM    3  C   UNL     1      41.481  -8.862  11.294  1.00  0.00     0.281 C 
HETATM    4  C   UNL     1      41.060  -9.398   9.969  1.00  0.00     0.018 A 
HETATM    5  C   UNL     1      40.312 -10.547   9.779  1.00  0.00    -0.024 A 
HETATM    6  C   UNL     1      40.099 -10.796   8.385  1.00  0.00     0.057 A 
HETATM    7  C   UNL     1      40.690  -9.833   7.603  1.00  0.00     0.087 A 
HETATM    8  N   UNL     1      40.664  -9.886   6.261  1.00  0.00    -0.357 N 
HETATM    9  C   UNL     1      39.740 -10.816   5.630  1.00  0.00     0.243 C 
HETATM   10  N   UNL     1      39.234 -11.937   6.441  1.00  0.00    -0.235 NA
HETATM   11  C   UNL     1      39.420 -11.865   7.704  1.00  0.00     0.173 C 
HETATM   12  S   UNL     1      41.468  -8.628   8.508  1.00  0.00    -0.074 SA
HETATM   13  C   UNL     1      39.871 -11.396  10.936  1.00  0.00     0.068 C 
HETATM   14  C   UNL     1      40.077 -10.683  12.286  1.00  0.00     0.240 C 
HETATM   15  H   UNL     1      40.954  -9.099   5.687  1.00  0.00     0.162 HD
ENDROOT
BRANCH   9  16
HETATM   16  C   UNL     1      40.389 -11.368   4.370  1.00  0.00    -0.012 A 
HETATM   17  C   UNL     1      41.510 -12.218   4.454  1.00  0.00     0.050 A 
HETATM   18  C   UNL     1      42.071 -12.783   3.304  1.00  0.00     0.102 A 
HETATM   19  C   UNL     1      41.482 -12.513   2.059  1.00  0.00     0.112 A 
HETATM   20  C   UNL     1      40.388 -11.656   1.955  1.00  0.00     0.041 A 
HETATM   21  C   UNL     1      39.841 -11.090   3.109  1.00  0.00     0.014 A 
BRANCH  18  22
HETATM   22  O   UNL     1      43.157 -13.620   3.291  1.00  0.00    -0.353 OA
HETATM   23  C   UNL     1      43.156 -14.705   4.208  1.00  0.00     0.210 C 
ENDBRANCH  18  22
BRANCH  19  24
HETATM   24  O   UNL     1      42.066 -13.172   0.944  1.00  0.00    -0.272 OA
BRANCH  24  25
HETATM   25  C   UNL     1      41.441 -14.104   0.133  1.00  0.00     0.300 C 
HETATM   26  O   UNL     1      40.999 -13.962  -0.994  1.00  0.00    -0.259 OA
BRANCH  25  27
HETATM   27  C   UNL     1      41.478 -15.403   0.823  1.00  0.00     0.061 A 
HETATM   28  C   UNL     1      40.406 -15.882   1.584  1.00  0.00     0.050 A 
HETATM   29 CL   UNL     1      38.921 -15.019   1.763  1.00  0.00    -0.083 Cl
HETATM   30  C   UNL     1      40.503 -17.136   2.196  1.00  0.00     0.025 A 
HETATM   31  C   UNL     1      41.655 -17.910   2.041  1.00  0.00     0.002 A 
HETATM   32  C   UNL     1      42.714 -17.440   1.265  1.00  0.00     0.001 A 
HETATM   33  C   UNL     1      42.626 -16.190   0.651  1.00  0.00     0.019 A 
ENDBRANCH  25  27
ENDBRANCH  24  25
ENDBRANCH  19  24
ENDBRANCH   9  16
BRANCH  11  34
HETATM   34  O   UNL     1      38.956 -12.868   8.471  1.00  0.00    -0.344 OA
HETATM   35  H   UNL     1      38.257 -12.482   9.030  1.00  0.00     0.219 HD
ENDBRANCH  11  34
BRANCH   1  36
HETATM   36  C   UNL     1      42.648 -10.845  12.319  1.00  0.00     0.231 C 
HETATM   37  C   UNL     1      43.887 -10.049  11.955  1.00  0.00     0.034 C 
ENDBRANCH   1  36
TORSDOF 7
ENDMDL
MODEL 8
REMARK VINA RESULT:      -7.9      5.953      9.241
REMARK  7 active torsions:
REMARK  status: ('A' for Active; 'I' for Inactive)
REMARK    1  A    between atoms: C_2  and  N_3 
REMARK    2  A    between atoms: C_11  and  C_12 
REMARK    3  A    between atoms: C_14  and  O_15 
REMARK    4  A    between atoms: C_17  and  O_18 
REMARK    5  A    between atoms: O_18  and  C_19 
REMARK    6  A    between atoms: C_19  and  C_20 
REMARK    7  A    between atoms: C_31  and  O_32 
ROOT
HETATM    1  N   UNL     1      44.480 -18.996   6.626  1.00  0.00    -0.067 N 
HETATM    2  H   UNL     1      44.708 -19.535   7.470  1.00  0.00     0.280 HD
HETATM    3  C   UNL     1      43.037 -18.521   6.819  1.00  0.00     0.281 C 
HETATM    4  C   UNL     1      42.453 -18.074   5.524  1.00  0.00     0.018 A 
HETATM    5  C   UNL     1      42.933 -18.425   4.273  1.00  0.00    -0.024 A 
HETATM    6  C   UNL     1      42.162 -17.809   3.236  1.00  0.00     0.057 A 
HETATM    7  C   UNL     1      41.152 -17.032   3.750  1.00  0.00     0.087 A 
HETATM    8  N   UNL     1      40.329 -16.316   2.965  1.00  0.00    -0.357 N 
HETATM    9  C   UNL     1      40.320 -16.606   1.539  1.00  0.00     0.243 C 
HETATM   10  N   UNL     1      41.487 -17.306   0.973  1.00  0.00    -0.235 NA
HETATM   11  C   UNL     1      42.292 -17.848   1.804  1.00  0.00     0.173 C 
HETATM   12  S   UNL     1      41.096 -17.051   5.445  1.00  0.00    -0.074 SA
HETATM   13  C   UNL     1      44.144 -19.298   4.115  1.00  0.00     0.068 C 
HETATM   14  C   UNL     1      44.554 -19.962   5.443  1.00  0.00     0.240 C 
HETATM   15  H   UNL     1      39.488 -15.877   3.329  1.00  0.00     0.162 HD
ENDROOT
BRANCH   9  16
HETATM   16  C   UNL     1      40.104 -15.305   0.780  1.00  0.00    -0.012 A 
HETATM   17  C   UNL     1      40.831 -15.031  -0.396  1.00  0.00     0.050 A 
HETATM   18  C   UNL     1      40.590 -13.870  -1.136  1.00  0.00     0.102 A 
HETATM   19  C   UNL     1      39.587 -12.987  -0.704  1.00  0.00     0.112 A 
HETATM   20  C   UNL     1      38.875 -13.230   0.469  1.00  0.00     0.041 A 
HETATM   21  C   UNL     1      39.131 -14.389   1.204  1.00  0.00     0.014 A 
BRANCH  18  22
HETATM   22  O   UNL     1      41.246 -13.524  -2.288  1.00  0.00    -0.353 OA
HETATM   23  C   UNL     1      41.033 -14.341  -3.431  1.00  0.00     0.210 C 
ENDBRANCH  18  22
BRANCH  19  24
HETATM   24  O   UNL     1      39.355 -11.862  -1.541  1.00  0.00    -0.272 OA
BRANCH  24  25
HETATM   25  C   UNL     1      39.512 -10.535  -1.177  1.00  0.00     0.300 C 
HETATM   26  O   UNL     1      38.676  -9.754  -0.754  1.00  0.00    -0.259 OA
BRANCH  25  27
HETATM   27  C   UNL     1      40.942 -10.204  -1.276  1.00  0.00     0.061 A 
HETATM   28  C   UNL     1      41.783 -10.156  -0.158  1.00  0.00     0.050 A 
HETATM   29 CL   UNL     1      41.239 -10.514   1.442  1.00  0.00    -0.083 Cl
HETATM   30  C   UNL     1      43.138  -9.855  -0.329  1.00  0.00     0.025 A 
HETATM   31  C   UNL     1      43.652  -9.614  -1.605  1.00  0.00     0.002 A 
HETATM   32  C   UNL     1      42.817  -9.682  -2.720  1.00  0.00     0.001 A 
HETATM   33  C   UNL     1      41.464  -9.983  -2.559  1.00  0.00     0.019 A 
ENDBRANCH  25  27
ENDBRANCH  24  25
ENDBRANCH  19  24
ENDBRANCH   9  16
BRANCH  11  34
HETATM   34  O   UNL     1      43.358 -18.506   1.315  1.00  0.00    -0.344 OA
HETATM   35  H   UNL     1      43.009 -19.301   0.873  1.00  0.00     0.219 HD
ENDBRANCH  11  34
BRANCH   1  36
HETATM   36  C   UNL     1      45.447 -17.831   6.579  1.00  0.00     0.231 C 
HETATM   37  C   UNL     1      44.754 -16.530   6.938  1.00  0.00     0.034 C 
ENDBRANCH   1  36
TORSDOF 7
ENDMDL
MODEL 9
REMARK VINA RESULT:      -7.8      5.873      9.482
REMARK  7 active torsions:
REMARK  status: ('A' for Active; 'I' for Inactive)
REMARK    1  A    between atoms: C_2  and  N_3 
REMARK    2  A    between atoms: C_11  and  C_12 
REMARK    3  A    between atoms: C_14  and  O_15 
REMARK    4  A    between atoms: C_17  and  O_18 
REMARK    5  A    between atoms: O_18  and  C_19 
REMARK    6  A    between atoms: C_19  and  C_20 
REMARK    7  A    between atoms: C_31  and  O_32 
ROOT
HETATM    1  N   UNL     1      43.556 -17.807   7.308  1.00  0.00    -0.067 N 
HETATM    2  H   UNL     1      43.510 -18.050   8.306  1.00  0.00     0.280 HD
HETATM    3  C   UNL     1      42.253 -17.062   7.006  1.00  0.00     0.281 C 
HETATM    4  C   UNL     1      42.012 -17.002   5.537  1.00  0.00     0.018 A 
HETATM    5  C   UNL     1      42.595 -17.839   4.602  1.00  0.00    -0.024 A 
HETATM    6  C   UNL     1      42.171 -17.501   3.276  1.00  0.00     0.057 A 
HETATM    7  C   UNL     1      41.301 -16.438   3.278  1.00  0.00     0.087 A 
HETATM    8  N   UNL     1      40.809 -15.913   2.144  1.00  0.00    -0.357 N 
HETATM    9  C   UNL     1      40.967 -16.673   0.913  1.00  0.00     0.243 C 
HETATM   10  N   UNL     1      42.014 -17.709   0.876  1.00  0.00    -0.235 NA
HETATM   11  C   UNL     1      42.522 -18.056   1.996  1.00  0.00     0.173 C 
HETATM   12  S   UNL     1      40.964 -15.859   4.837  1.00  0.00    -0.074 SA
HETATM   13  C   UNL     1      43.576 -18.902   5.004  1.00  0.00     0.068 C 
HETATM   14  C   UNL     1      43.595 -19.122   6.528  1.00  0.00     0.240 C 
HETATM   15  H   UNL     1      40.048 -15.241   2.149  1.00  0.00     0.162 HD
ENDROOT
BRANCH   9  16
HETATM   16  C   UNL     1      41.190 -15.700  -0.234  1.00  0.00    -0.012 A 
HETATM   17  C   UNL     1      40.800 -16.036  -1.547  1.00  0.00     0.050 A 
HETATM   18  C   UNL     1      40.939 -15.121  -2.594  1.00  0.00     0.102 A 
HETATM   19  C   UNL     1      41.450 -13.843  -2.316  1.00  0.00     0.112 A 
HETATM   20  C   UNL     1      41.863 -13.502  -1.029  1.00  0.00     0.041 A 
HETATM   21  C   UNL     1      41.727 -14.427   0.008  1.00  0.00     0.014 A 
BRANCH  18  22
HETATM   22  O   UNL     1      40.586 -15.361  -3.897  1.00  0.00    -0.353 OA
HETATM   23  C   UNL     1      39.300 -15.915  -4.134  1.00  0.00     0.210 C 
ENDBRANCH  18  22
BRANCH  19  24
HETATM   24  O   UNL     1      41.503 -12.947  -3.417  1.00  0.00    -0.272 OA
BRANCH  24  25
HETATM   25  C   UNL     1      40.536 -12.013  -3.749  1.00  0.00     0.300 C 
HETATM   26  O   UNL     1      39.327 -12.154  -3.818  1.00  0.00    -0.259 OA
BRANCH  25  27
HETATM   27  C   UNL     1      41.203 -10.711  -3.914  1.00  0.00     0.061 A 
HETATM   28  C   UNL     1      41.289  -9.773  -2.880  1.00  0.00     0.050 A 
HETATM   29 CL   UNL     1      40.656 -10.058  -1.298  1.00  0.00    -0.083 Cl
HETATM   30  C   UNL     1      41.956  -8.563  -3.101  1.00  0.00     0.025 A 
HETATM   31  C   UNL     1      42.541  -8.297  -4.341  1.00  0.00     0.002 A 
HETATM   32  C   UNL     1      42.473  -9.242  -5.364  1.00  0.00     0.001 A 
HETATM   33  C   UNL     1      41.809 -10.451  -5.152  1.00  0.00     0.019 A 
ENDBRANCH  25  27
ENDBRANCH  24  25
ENDBRANCH  19  24
ENDBRANCH   9  16
BRANCH  11  34
HETATM   34  O   UNL     1      43.469 -19.011   1.994  1.00  0.00    -0.344 OA
HETATM   35  H   UNL     1      43.235 -19.629   2.710  1.00  0.00     0.219 HD
ENDBRANCH  11  34
BRANCH   1  36
HETATM   36  C   UNL     1      44.764 -16.909   7.136  1.00  0.00     0.231 C 
HETATM   37  C   UNL     1      44.353 -15.452   7.046  1.00  0.00     0.034 C 
ENDBRANCH   1  36
TORSDOF 7
ENDMDL
MODEL 10
REMARK VINA RESULT:      -7.8      6.255      9.617
REMARK  7 active torsions:
REMARK  status: ('A' for Active; 'I' for Inactive)
REMARK    1  A    between atoms: C_2  and  N_3 
REMARK    2  A    between atoms: C_11  and  C_12 
REMARK    3  A    between atoms: C_14  and  O_15 
REMARK    4  A    between atoms: C_17  and  O_18 
REMARK    5  A    between atoms: O_18  and  C_19 
REMARK    6  A    between atoms: C_19  and  C_20 
REMARK    7  A    between atoms: C_31  and  O_32 
ROOT
HETATM    1  N   UNL     1      44.141 -18.821   6.867  1.00  0.00    -0.067 N 
HETATM    2  H   UNL     1      44.174 -19.286   7.783  1.00  0.00     0.280 HD
HETATM    3  C   UNL     1      42.783 -18.115   6.813  1.00  0.00     0.281 C 
HETATM    4  C   UNL     1      42.443 -17.740   5.412  1.00  0.00     0.018 A 
HETATM    5  C   UNL     1      43.006 -18.303   4.280  1.00  0.00    -0.024 A 
HETATM    6  C   UNL     1      42.479 -17.703   3.091  1.00  0.00     0.057 A 
HETATM    7  C   UNL     1      41.555 -16.728   3.383  1.00  0.00     0.087 A 
HETATM    8  N   UNL     1      40.962 -15.994   2.427  1.00  0.00    -0.357 N 
HETATM    9  C   UNL     1      41.079 -16.443   1.048  1.00  0.00     0.243 C 
HETATM   10  N   UNL     1      42.175 -17.372   0.719  1.00  0.00    -0.235 NA
HETATM   11  C   UNL     1      42.774 -17.928   1.701  1.00  0.00     0.173 C 
HETATM   12  S   UNL     1      41.291 -16.541   5.048  1.00  0.00    -0.074 SA
HETATM   13  C   UNL     1      44.068 -19.361   4.375  1.00  0.00     0.068 C 
HETATM   14  C   UNL     1      44.198 -19.919   5.804  1.00  0.00     0.240 C 
HETATM   15  H   UNL     1      40.168 -15.393   2.627  1.00  0.00     0.162 HD
ENDROOT
BRANCH   9  16
HETATM   16  C   UNL     1      41.174 -15.223   0.145  1.00  0.00    -0.012 A 
HETATM   17  C   UNL     1      40.774 -15.296  -1.204  1.00  0.00     0.050 A 
HETATM   18  C   UNL     1      40.793 -14.162  -2.022  1.00  0.00     0.102 A 
HETATM   19  C   UNL     1      41.193 -12.934  -1.470  1.00  0.00     0.112 A 
HETATM   20  C   UNL     1      41.614 -12.848  -0.144  1.00  0.00     0.041 A 
HETATM   21  C   UNL     1      41.599 -13.990   0.661  1.00  0.00     0.014 A 
BRANCH  18  22
HETATM   22  O   UNL     1      40.422 -14.140  -3.341  1.00  0.00    -0.353 OA
HETATM   23  C   UNL     1      39.218 -14.808  -3.692  1.00  0.00     0.210 C 
ENDBRANCH  18  22
BRANCH  19  24
HETATM   24  O   UNL     1      41.127 -11.815  -2.343  1.00  0.00    -0.272 OA
BRANCH  24  25
HETATM   25  C   UNL     1      42.151 -11.359  -3.155  1.00  0.00     0.300 C 
HETATM   26  O   UNL     1      42.552 -11.819  -4.211  1.00  0.00    -0.259 OA
BRANCH  25  27
HETATM   27  C   UNL     1      42.653 -10.098  -2.586  1.00  0.00     0.061 A 
HETATM   28  C   UNL     1      42.124  -8.851  -2.937  1.00  0.00     0.050 A 
HETATM   29 CL   UNL     1      40.809  -8.665  -4.041  1.00  0.00    -0.083 Cl
HETATM   30  C   UNL     1      42.637  -7.694  -2.340  1.00  0.00     0.025 A 
HETATM   31  C   UNL     1      43.661  -7.782  -1.394  1.00  0.00     0.002 A 
HETATM   32  C   UNL     1      44.172  -9.027  -1.031  1.00  0.00     0.001 A 
HETATM   33  C   UNL     1      43.667 -10.186  -1.621  1.00  0.00     0.019 A 
ENDBRANCH  25  27
ENDBRANCH  24  25
ENDBRANCH  19  24
ENDBRANCH   9  16
BRANCH  11  34
HETATM   34  O   UNL     1      43.768 -18.792   1.430  1.00  0.00    -0.344 OA
HETATM   35  H   UNL     1      43.445 -19.362   0.709  1.00  0.00     0.219 HD
ENDBRANCH  11  34
BRANCH   1  36
HETATM   36  C   UNL     1      45.285 -17.828   6.843  1.00  0.00     0.231 C 
HETATM   37  C   UNL     1      44.775 -16.404   6.952  1.00  0.00     0.034 C 
ENDBRANCH   1  36
TORSDOF 7
ENDMDL
