MODEL 1
REMARK VINA RESULT:      -8.4      0.000      0.000
REMARK  5 active torsions:
REMARK  status: ('A' for Active; 'I' for Inactive)
REMARK    1  A    between atoms: C_8  and  C_9 
REMARK    2  A    between atoms: N_10  and  N_11 
REMARK       I    between atoms: N_11  and  C_12 
REMARK    3  A    between atoms: C_12  and  C_13 
REMARK    4  A    between atoms: C_13  and  O_14 
REMARK    5  A    between atoms: O_14  and  C_15 
ROOT
HETATM    1  N   UNL     1      42.307 -15.024   3.591  1.00  0.00    -0.246 N 
HETATM    2  C   UNL     1      42.964 -13.852   3.239  1.00  0.00     0.261 C 
HETATM    3  O   UNL     1      44.144 -13.583   3.457  1.00  0.00    -0.269 OA
HETATM    4  H   UNL     1      41.397 -15.183   3.160  1.00  0.00     0.192 HD
ENDROOT
BRANCH   1   5
HETATM    5  N   UNL     1      42.863 -16.150   4.150  1.00  0.00    -0.184 NA
HETATM    6  C   UNL     1      43.400 -17.041   3.380  1.00  0.00     0.152 C 
BRANCH   6   7
HETATM    7  C   UNL     1      43.944 -18.255   3.959  1.00  0.00     0.011 A 
HETATM    8  C   UNL     1      44.007 -19.544   3.338  1.00  0.00     0.004 A 
HETATM    9  C   UNL     1      43.600 -20.054   2.086  1.00  0.00     0.014 A 
HETATM   10  C   UNL     1      44.603 -20.419   4.248  1.00  0.00     0.043 A 
HETATM   11  C   UNL     1      43.802 -21.408   1.792  1.00  0.00     0.001 A 
HETATM   12  C   UNL     1      44.402 -22.253   2.722  1.00  0.00     0.002 A 
HETATM   13  C   UNL     1      44.816 -21.774   3.968  1.00  0.00     0.030 A 
HETATM   14  N   UNL     1      44.893 -19.690   5.378  1.00  0.00    -0.364 N 
HETATM   15  H   UNL     1      45.329 -20.068   6.207  1.00  0.00     0.165 HD
HETATM   16  C   UNL     1      44.495 -18.391   5.220  1.00  0.00     0.102 A 
ENDBRANCH   6   7
ENDBRANCH   1   5
BRANCH   2  17
HETATM   17  C   UNL     1      42.045 -12.825   2.579  1.00  0.00     0.280 C 
BRANCH  17  18
HETATM   18  O   UNL     1      42.535 -12.418   1.305  1.00  0.00    -0.341 OA
BRANCH  18  19
HETATM   19  C   UNL     1      42.031 -13.109   0.232  1.00  0.00     0.086 A 
HETATM   20  C   UNL     1      42.203 -12.547  -1.043  1.00  0.00     0.045 A 
HETATM   21 BR   UNL     1      43.082 -10.879  -1.275  1.00  0.00    -0.048 Br
HETATM   22  C   UNL     1      41.714 -13.194  -2.181  1.00  0.00     0.046 A 
HETATM   23  C   UNL     1      41.061 -14.416  -2.046  1.00  0.00     0.035 A 
HETATM   24 CL   UNL     1      40.449 -15.218  -3.440  1.00  0.00    -0.084 Cl
HETATM   25  C   UNL     1      40.904 -14.999  -0.791  1.00  0.00     0.026 A 
HETATM   26  C   UNL     1      41.393 -14.349   0.346  1.00  0.00     0.040 A 
ENDBRANCH  18  19
ENDBRANCH  17  18
ENDBRANCH   2  17
TORSDOF 5
ENDMDL
MODEL 2
REMARK VINA RESULT:      -8.3      6.359      8.104
REMARK  5 active torsions:
REMARK  status: ('A' for Active; 'I' for Inactive)
REMARK    1  A    between atoms: C_8  and  C_9 
REMARK    2  A    between atoms: N_10  and  N_11 
REMARK       I    between atoms: N_11  and  C_12 
REMARK    3  A    between atoms: C_12  and  C_13 
REMARK    4  A    between atoms: C_13  and  O_14 
REMARK    5  A    between atoms: O_14  and  C_15 
ROOT
HETATM    1  N   UNL     1      43.633 -14.350   7.059  1.00  0.00    -0.246 N 
HETATM    2  C   UNL     1      44.798 -13.650   7.347  1.00  0.00     0.261 C 
HETATM    3  O   UNL     1      45.824 -13.630   6.670  1.00  0.00    -0.269 OA
HETATM    4  H   UNL     1      42.806 -14.101   7.600  1.00  0.00     0.192 HD
ENDROOT
BRANCH   1   5
HETATM    5  N   UNL     1      43.357 -15.064   5.916  1.00  0.00    -0.184 NA
HETATM    6  C   UNL     1      43.551 -16.343   5.905  1.00  0.00     0.152 C 
BRANCH   6   7
HETATM    7  C   UNL     1      43.310 -17.094   4.688  1.00  0.00     0.011 A 
HETATM    8  C   UNL     1      43.852 -18.377   4.353  1.00  0.00     0.004 A 
HETATM    9  C   UNL     1      44.728 -19.274   5.001  1.00  0.00     0.014 A 
HETATM   10  C   UNL     1      43.360 -18.724   3.093  1.00  0.00     0.043 A 
HETATM   11  C   UNL     1      45.078 -20.474   4.372  1.00  0.00     0.001 A 
HETATM   12  C   UNL     1      44.567 -20.791   3.116  1.00  0.00     0.002 A 
HETATM   13  C   UNL     1      43.696 -19.923   2.453  1.00  0.00     0.030 A 
HETATM   14  N   UNL     1      42.548 -17.694   2.679  1.00  0.00    -0.364 N 
HETATM   15  H   UNL     1      42.055 -17.672   1.797  1.00  0.00     0.165 HD
HETATM   16  C   UNL     1      42.516 -16.705   3.624  1.00  0.00     0.102 A 
ENDBRANCH   6   7
ENDBRANCH   1   5
BRANCH   2  17
HETATM   17  C   UNL     1      44.738 -12.914   8.684  1.00  0.00     0.280 C 
BRANCH  17  18
HETATM   18  O   UNL     1      44.338 -11.556   8.523  1.00  0.00    -0.341 OA
BRANCH  18  19
HETATM   19  C   UNL     1      43.869 -10.942   9.657  1.00  0.00     0.086 A 
HETATM   20  C   UNL     1      42.626 -10.293   9.578  1.00  0.00     0.045 A 
HETATM   21 BR   UNL     1      41.637 -10.248   7.956  1.00  0.00    -0.048 Br
HETATM   22  C   UNL     1      42.087  -9.645  10.693  1.00  0.00     0.046 A 
HETATM   23  C   UNL     1      42.786  -9.656  11.896  1.00  0.00     0.035 A 
HETATM   24 CL   UNL     1      42.135  -8.855  13.273  1.00  0.00    -0.084 Cl
HETATM   25  C   UNL     1      44.009 -10.316  11.997  1.00  0.00     0.026 A 
HETATM   26  C   UNL     1      44.547 -10.963  10.880  1.00  0.00     0.040 A 
ENDBRANCH  18  19
ENDBRANCH  17  18
ENDBRANCH   2  17
TORSDOF 5
ENDMDL
MODEL 3
REMARK VINA RESULT:      -8.2      2.489      2.769
REMARK  5 active torsions:
REMARK  status: ('A' for Active; 'I' for Inactive)
REMARK    1  A    between atoms: C_8  and  C_9 
REMARK    2  A    between atoms: N_10  and  N_11 
REMARK       I    between atoms: N_11  and  C_12 
REMARK    3  A    between atoms: C_12  and  C_13 
REMARK    4  A    between atoms: C_13  and  O_14 
REMARK    5  A    between atoms: O_14  and  C_15 
ROOT
HETATM    1  N   UNL     1      41.856 -16.393   1.614  1.00  0.00    -0.246 N 
HETATM    2  C   UNL     1      40.579 -15.857   1.510  1.00  0.00     0.261 C 
HETATM    3  O   UNL     1      39.577 -16.237   2.113  1.00  0.00    -0.269 OA
HETATM    4  H   UNL     1      42.616 -15.841   1.215  1.00  0.00     0.192 HD
ENDROOT
BRANCH   1   5
HETATM    5  N   UNL     1      42.276 -17.371   2.484  1.00  0.00    -0.184 NA
HETATM    6  C   UNL     1      43.510 -17.386   2.875  1.00  0.00     0.152 C 
BRANCH   6   7
HETATM    7  C   UNL     1      43.971 -18.444   3.753  1.00  0.00     0.011 A 
HETATM    8  C   UNL     1      44.140 -19.825   3.412  1.00  0.00     0.004 A 
HETATM    9  C   UNL     1      43.933 -20.581   2.238  1.00  0.00     0.014 A 
HETATM   10  C   UNL     1      44.600 -20.485   4.553  1.00  0.00     0.043 A 
HETATM   11  C   UNL     1      44.190 -21.956   2.246  1.00  0.00     0.001 A 
HETATM   12  C   UNL     1      44.651 -22.584   3.401  1.00  0.00     0.002 A 
HETATM   13  C   UNL     1      44.867 -21.860   4.577  1.00  0.00     0.030 A 
HETATM   14  N   UNL     1      44.708 -19.543   5.549  1.00  0.00    -0.364 N 
HETATM   15  H   UNL     1      45.018 -19.738   6.491  1.00  0.00     0.165 HD
HETATM   16  C   UNL     1      44.327 -18.314   5.083  1.00  0.00     0.102 A 
ENDBRANCH   6   7
ENDBRANCH   1   5
BRANCH   2  17
HETATM   17  C   UNL     1      40.482 -14.736   0.477  1.00  0.00     0.280 C 
BRANCH  17  18
HETATM   18  O   UNL     1      41.056 -15.115  -0.770  1.00  0.00    -0.341 OA
BRANCH  18  19
HETATM   19  C   UNL     1      41.420 -14.077  -1.591  1.00  0.00     0.086 A 
HETATM   20  C   UNL     1      40.898 -14.065  -2.895  1.00  0.00     0.045 A 
HETATM   21 BR   UNL     1      39.747 -15.446  -3.510  1.00  0.00    -0.048 Br
HETATM   22  C   UNL     1      41.226 -13.040  -3.786  1.00  0.00     0.046 A 
HETATM   23  C   UNL     1      42.069 -12.014  -3.370  1.00  0.00     0.035 A 
HETATM   24 CL   UNL     1      42.486 -10.751  -4.461  1.00  0.00    -0.084 Cl
HETATM   25  C   UNL     1      42.576 -11.999  -2.072  1.00  0.00     0.026 A 
HETATM   26  C   UNL     1      42.247 -13.026  -1.182  1.00  0.00     0.040 A 
ENDBRANCH  18  19
ENDBRANCH  17  18
ENDBRANCH   2  17
TORSDOF 5
ENDMDL
MODEL 4
REMARK VINA RESULT:      -7.9      6.634      8.429
REMARK  5 active torsions:
REMARK  status: ('A' for Active; 'I' for Inactive)
REMARK    1  A    between atoms: C_8  and  C_9 
REMARK    2  A    between atoms: N_10  and  N_11 
REMARK       I    between atoms: N_11  and  C_12 
REMARK    3  A    between atoms: C_12  and  C_13 
REMARK    4  A    between atoms: C_13  and  O_14 
REMARK    5  A    between atoms: O_14  and  C_15 
ROOT
HETATM    1  N   UNL     1      42.482 -12.874   6.642  1.00  0.00    -0.246 N 
HETATM    2  C   UNL     1      41.524 -11.881   6.486  1.00  0.00     0.261 C 
HETATM    3  O   UNL     1      40.755 -11.750   5.536  1.00  0.00    -0.269 OA
HETATM    4  H   UNL     1      42.892 -12.971   7.570  1.00  0.00     0.192 HD
ENDROOT
BRANCH   1   5
HETATM    5  N   UNL     1      42.686 -13.963   5.826  1.00  0.00    -0.184 NA
HETATM    6  C   UNL     1      41.898 -14.985   5.923  1.00  0.00     0.152 C 
BRANCH   6   7
HETATM    7  C   UNL     1      42.139 -16.155   5.102  1.00  0.00     0.011 A 
HETATM    8  C   UNL     1      43.163 -17.138   5.293  1.00  0.00     0.004 A 
HETATM    9  C   UNL     1      44.203 -17.305   6.233  1.00  0.00     0.014 A 
HETATM   10  C   UNL     1      43.030 -18.085   4.276  1.00  0.00     0.043 A 
HETATM   11  C   UNL     1      45.065 -18.402   6.124  1.00  0.00     0.001 A 
HETATM   12  C   UNL     1      44.903 -19.331   5.099  1.00  0.00     0.002 A 
HETATM   13  C   UNL     1      43.880 -19.192   4.156  1.00  0.00     0.030 A 
HETATM   14  N   UNL     1      41.965 -17.696   3.498  1.00  0.00    -0.364 N 
HETATM   15  H   UNL     1      41.638 -18.196   2.683  1.00  0.00     0.165 HD
HETATM   16  C   UNL     1      41.426 -16.534   3.978  1.00  0.00     0.102 A 
ENDBRANCH   6   7
ENDBRANCH   1   5
BRANCH   2  17
HETATM   17  C   UNL     1      41.537 -10.855   7.618  1.00  0.00     0.280 C 
BRANCH  17  18
HETATM   18  O   UNL     1      42.847 -10.664   8.144  1.00  0.00    -0.341 OA
BRANCH  18  19
HETATM   19  C   UNL     1      42.907 -10.356   9.480  1.00  0.00     0.086 A 
HETATM   20  C   UNL     1      44.069 -10.718  10.181  1.00  0.00     0.045 A 
HETATM   21 BR   UNL     1      45.499 -11.622   9.317  1.00  0.00    -0.048 Br
HETATM   22  C   UNL     1      44.198 -10.438  11.544  1.00  0.00     0.046 A 
HETATM   23  C   UNL     1      43.167  -9.780  12.208  1.00  0.00     0.035 A 
HETATM   24 CL   UNL     1      43.313  -9.436  13.888  1.00  0.00    -0.084 Cl
HETATM   25  C   UNL     1      42.018  -9.392  11.522  1.00  0.00     0.026 A 
HETATM   26  C   UNL     1      41.891  -9.674  10.159  1.00  0.00     0.040 A 
ENDBRANCH  18  19
ENDBRANCH  17  18
ENDBRANCH   2  17
TORSDOF 5
ENDMDL
MODEL 5
REMARK VINA RESULT:      -7.9      5.857      8.857
REMARK  5 active torsions:
REMARK  status: ('A' for Active; 'I' for Inactive)
REMARK    1  A    between atoms: C_8  and  C_9 
REMARK    2  A    between atoms: N_10  and  N_11 
REMARK       I    between atoms: N_11  and  C_12 
REMARK    3  A    between atoms: C_12  and  C_13 
REMARK    4  A    between atoms: C_13  and  O_14 
REMARK    5  A    between atoms: O_14  and  C_15 
ROOT
HETATM    1  N   UNL     1      44.487 -14.599   6.428  1.00  0.00    -0.246 N 
HETATM    2  C   UNL     1      43.394 -15.340   5.995  1.00  0.00     0.261 C 
HETATM    3  O   UNL     1      42.406 -15.640   6.662  1.00  0.00    -0.269 OA
HETATM    4  H   UNL     1      45.121 -14.258   5.706  1.00  0.00     0.192 HD
ENDROOT
BRANCH   1   5
HETATM    5  N   UNL     1      44.631 -13.967   7.640  1.00  0.00    -0.184 NA
HETATM    6  C   UNL     1      44.289 -12.724   7.753  1.00  0.00     0.152 C 
BRANCH   6   7
HETATM    7  C   UNL     1      44.485 -12.037   9.014  1.00  0.00     0.011 A 
HETATM    8  C   UNL     1      43.580 -11.119   9.639  1.00  0.00     0.004 A 
HETATM    9  C   UNL     1      42.315 -10.595   9.292  1.00  0.00     0.014 A 
HETATM   10  C   UNL     1      44.167 -10.699  10.833  1.00  0.00     0.043 A 
HETATM   11  C   UNL     1      41.690  -9.678  10.144  1.00  0.00     0.001 A 
HETATM   12  C   UNL     1      42.301  -9.282  11.330  1.00  0.00     0.002 A 
HETATM   13  C   UNL     1      43.551  -9.786  11.699  1.00  0.00     0.030 A 
HETATM   14  N   UNL     1      45.381 -11.337  10.934  1.00  0.00    -0.364 N 
HETATM   15  H   UNL     1      46.028 -11.221  11.701  1.00  0.00     0.165 HD
HETATM   16  C   UNL     1      45.587 -12.138   9.844  1.00  0.00     0.102 A 
ENDBRANCH   6   7
ENDBRANCH   1   5
BRANCH   2  17
HETATM   17  C   UNL     1      43.545 -15.847   4.562  1.00  0.00     0.280 C 
BRANCH  17  18
HETATM   18  O   UNL     1      42.572 -16.838   4.246  1.00  0.00    -0.341 OA
BRANCH  18  19
HETATM   19  C   UNL     1      43.071 -18.016   3.749  1.00  0.00     0.086 A 
HETATM   20  C   UNL     1      42.603 -18.443   2.495  1.00  0.00     0.045 A 
HETATM   21 BR   UNL     1      41.310 -17.439   1.531  1.00  0.00    -0.048 Br
HETATM   22  C   UNL     1      43.066 -19.633   1.928  1.00  0.00     0.046 A 
HETATM   23  C   UNL     1      44.010 -20.394   2.609  1.00  0.00     0.035 A 
HETATM   24 CL   UNL     1      44.581 -21.866   1.923  1.00  0.00    -0.084 Cl
HETATM   25  C   UNL     1      44.502 -19.972   3.843  1.00  0.00     0.026 A 
HETATM   26  C   UNL     1      44.037 -18.782   4.409  1.00  0.00     0.040 A 
ENDBRANCH  18  19
ENDBRANCH  17  18
ENDBRANCH   2  17
TORSDOF 5
ENDMDL
MODEL 6
REMARK VINA RESULT:      -7.8      6.907      8.675
REMARK  5 active torsions:
REMARK  status: ('A' for Active; 'I' for Inactive)
REMARK    1  A    between atoms: C_8  and  C_9 
REMARK    2  A    between atoms: N_10  and  N_11 
REMARK       I    between atoms: N_11  and  C_12 
REMARK    3  A    between atoms: C_12  and  C_13 
REMARK    4  A    between atoms: C_13  and  O_14 
REMARK    5  A    between atoms: O_14  and  C_15 
ROOT
HETATM    1  N   UNL     1      44.649 -13.665   7.985  1.00  0.00    -0.246 N 
HETATM    2  C   UNL     1      45.573 -12.655   8.219  1.00  0.00     0.261 C 
HETATM    3  O   UNL     1      46.701 -12.570   7.737  1.00  0.00    -0.269 OA
HETATM    4  H   UNL     1      43.692 -13.487   8.287  1.00  0.00     0.192 HD
ENDROOT
BRANCH   1   5
HETATM    5  N   UNL     1      44.767 -14.703   7.090  1.00  0.00    -0.184 NA
HETATM    6  C   UNL     1      44.085 -15.786   7.283  1.00  0.00     0.152 C 
BRANCH   6   7
HETATM    7  C   UNL     1      44.243 -16.903   6.372  1.00  0.00     0.011 A 
HETATM    8  C   UNL     1      43.531 -17.115   5.147  1.00  0.00     0.004 A 
HETATM    9  C   UNL     1      42.522 -16.404   4.460  1.00  0.00     0.014 A 
HETATM   10  C   UNL     1      43.994 -18.309   4.593  1.00  0.00     0.043 A 
HETATM   11  C   UNL     1      42.018 -16.910   3.256  1.00  0.00     0.001 A 
HETATM   12  C   UNL     1      42.505 -18.103   2.730  1.00  0.00     0.002 A 
HETATM   13  C   UNL     1      43.504 -18.826   3.387  1.00  0.00     0.030 A 
HETATM   14  N   UNL     1      44.953 -18.805   5.447  1.00  0.00    -0.364 N 
HETATM   15  H   UNL     1      45.461 -19.665   5.299  1.00  0.00     0.165 HD
HETATM   16  C   UNL     1      45.106 -17.973   6.522  1.00  0.00     0.102 A 
ENDBRANCH   6   7
ENDBRANCH   1   5
BRANCH   2  17
HETATM   17  C   UNL     1      45.087 -11.624   9.237  1.00  0.00     0.280 C 
BRANCH  17  18
HETATM   18  O   UNL     1      43.668 -11.498   9.226  1.00  0.00    -0.341 OA
BRANCH  18  19
HETATM   19  C   UNL     1      43.111 -11.009  10.381  1.00  0.00     0.086 A 
HETATM   20  C   UNL     1      42.014 -10.140  10.257  1.00  0.00     0.045 A 
HETATM   21 BR   UNL     1      41.338  -9.642   8.553  1.00  0.00    -0.048 Br
HETATM   22  C   UNL     1      41.398  -9.603  11.391  1.00  0.00     0.046 A 
HETATM   23  C   UNL     1      41.870  -9.944  12.654  1.00  0.00     0.035 A 
HETATM   24 CL   UNL     1      41.123  -9.282  14.056  1.00  0.00    -0.084 Cl
HETATM   25  C   UNL     1      42.942 -10.824  12.794  1.00  0.00     0.026 A 
HETATM   26  C   UNL     1      43.557 -11.360  11.659  1.00  0.00     0.040 A 
ENDBRANCH  18  19
ENDBRANCH  17  18
ENDBRANCH   2  17
TORSDOF 5
ENDMDL
MODEL 7
REMARK VINA RESULT:      -7.8      7.399     10.639
REMARK  5 active torsions:
REMARK  status: ('A' for Active; 'I' for Inactive)
REMARK    1  A    between atoms: C_8  and  C_9 
REMARK    2  A    between atoms: N_10  and  N_11 
REMARK       I    between atoms: N_11  and  C_12 
REMARK    3  A    between atoms: C_12  and  C_13 
REMARK    4  A    between atoms: C_13  and  O_14 
REMARK    5  A    between atoms: O_14  and  C_15 
ROOT
HETATM    1  N   UNL     1      43.874 -12.071   8.101  1.00  0.00    -0.246 N 
HETATM    2  C   UNL     1      44.949 -12.937   8.252  1.00  0.00     0.261 C 
HETATM    3  O   UNL     1      45.839 -12.857   9.096  1.00  0.00    -0.269 OA
HETATM    4  H   UNL     1      43.115 -12.386   7.498  1.00  0.00     0.192 HD
ENDROOT
BRANCH   1   5
HETATM    5  N   UNL     1      43.531 -11.025   8.926  1.00  0.00    -0.184 NA
HETATM    6  C   UNL     1      42.283 -10.803   9.184  1.00  0.00     0.152 C 
BRANCH   6   7
HETATM    7  C   UNL     1      41.912  -9.672  10.012  1.00  0.00     0.011 A 
HETATM    8  C   UNL     1      42.341  -9.417  11.355  1.00  0.00     0.004 A 
HETATM    9  C   UNL     1      43.175 -10.100  12.267  1.00  0.00     0.014 A 
HETATM   10  C   UNL     1      41.745  -8.224  11.766  1.00  0.00     0.043 A 
HETATM   11  C   UNL     1      43.380  -9.570  13.545  1.00  0.00     0.001 A 
HETATM   12  C   UNL     1      42.773  -8.375  13.923  1.00  0.00     0.002 A 
HETATM   13  C   UNL     1      41.944  -7.678  13.040  1.00  0.00     0.030 A 
HETATM   14  N   UNL     1      40.984  -7.769  10.714  1.00  0.00    -0.364 N 
HETATM   15  H   UNL     1      40.435  -6.921  10.729  1.00  0.00     0.165 HD
HETATM   16  C   UNL     1      41.070  -8.633   9.657  1.00  0.00     0.102 A 
ENDBRANCH   6   7
ENDBRANCH   1   5
BRANCH   2  17
HETATM   17  C   UNL     1      44.991 -14.029   7.184  1.00  0.00     0.280 C 
BRANCH  17  18
HETATM   18  O   UNL     1      43.937 -14.973   7.350  1.00  0.00    -0.341 OA
BRANCH  18  19
HETATM   19  C   UNL     1      44.015 -16.089   6.556  1.00  0.00     0.086 A 
HETATM   20  C   UNL     1      43.197 -16.135   5.415  1.00  0.00     0.045 A 
HETATM   21 BR   UNL     1      42.009 -14.713   4.996  1.00  0.00    -0.048 Br
HETATM   22  C   UNL     1      43.223 -17.241   4.562  1.00  0.00     0.046 A 
HETATM   23  C   UNL     1      44.079 -18.302   4.841  1.00  0.00     0.035 A 
HETATM   24 CL   UNL     1      44.114 -19.672   3.801  1.00  0.00    -0.084 Cl
HETATM   25  C   UNL     1      44.915 -18.262   5.956  1.00  0.00     0.026 A 
HETATM   26  C   UNL     1      44.887 -17.154   6.809  1.00  0.00     0.040 A 
ENDBRANCH  18  19
ENDBRANCH  17  18
ENDBRANCH   2  17
TORSDOF 5
ENDMDL
MODEL 8
REMARK VINA RESULT:      -7.8      2.640      3.253
REMARK  5 active torsions:
REMARK  status: ('A' for Active; 'I' for Inactive)
REMARK    1  A    between atoms: C_8  and  C_9 
REMARK    2  A    between atoms: N_10  and  N_11 
REMARK       I    between atoms: N_11  and  C_12 
REMARK    3  A    between atoms: C_12  and  C_13 
REMARK    4  A    between atoms: C_13  and  O_14 
REMARK    5  A    between atoms: O_14  and  C_15 
ROOT
HETATM    1  N   UNL     1      42.117 -15.960   0.016  1.00  0.00    -0.246 N 
HETATM    2  C   UNL     1      40.961 -15.204   0.157  1.00  0.00     0.261 C 
HETATM    3  O   UNL     1      40.332 -15.017   1.196  1.00  0.00    -0.269 OA
HETATM    4  H   UNL     1      42.633 -15.848  -0.856  1.00  0.00     0.192 HD
ENDROOT
BRANCH   1   5
HETATM    5  N   UNL     1      42.845 -16.555   1.021  1.00  0.00    -0.184 NA
HETATM    6  C   UNL     1      42.443 -17.683   1.512  1.00  0.00     0.152 C 
BRANCH   6   7
HETATM    7  C   UNL     1      43.178 -18.290   2.605  1.00  0.00     0.011 A 
HETATM    8  C   UNL     1      43.636 -19.645   2.679  1.00  0.00     0.004 A 
HETATM    9  C   UNL     1      43.543 -20.763   1.822  1.00  0.00     0.014 A 
HETATM   10  C   UNL     1      44.293 -19.800   3.901  1.00  0.00     0.043 A 
HETATM   11  C   UNL     1      44.104 -21.984   2.214  1.00  0.00     0.001 A 
HETATM   12  C   UNL     1      44.755 -22.103   3.439  1.00  0.00     0.002 A 
HETATM   13  C   UNL     1      44.864 -21.013   4.306  1.00  0.00     0.030 A 
HETATM   14  N   UNL     1      44.238 -18.586   4.546  1.00  0.00    -0.364 N 
HETATM   15  H   UNL     1      44.633 -18.403   5.457  1.00  0.00     0.165 HD
HETATM   16  C   UNL     1      43.564 -17.673   3.781  1.00  0.00     0.102 A 
ENDBRANCH   6   7
ENDBRANCH   1   5
BRANCH   2  17
HETATM   17  C   UNL     1      40.452 -14.638  -1.168  1.00  0.00     0.280 C 
BRANCH  17  18
HETATM   18  O   UNL     1      40.029 -13.284  -1.037  1.00  0.00    -0.341 OA
BRANCH  18  19
HETATM   19  C   UNL     1      41.026 -12.345  -1.114  1.00  0.00     0.086 A 
HETATM   20  C   UNL     1      41.121 -11.409  -0.070  1.00  0.00     0.045 A 
HETATM   21 BR   UNL     1      39.900 -11.428   1.385  1.00  0.00    -0.048 Br
HETATM   22  C   UNL     1      42.111 -10.423  -0.083  1.00  0.00     0.046 A 
HETATM   23  C   UNL     1      43.020 -10.379  -1.136  1.00  0.00     0.035 A 
HETATM   24 CL   UNL     1      44.238  -9.164  -1.165  1.00  0.00    -0.084 Cl
HETATM   25  C   UNL     1      42.955 -11.314  -2.166  1.00  0.00     0.026 A 
HETATM   26  C   UNL     1      41.963 -12.299  -2.152  1.00  0.00     0.040 A 
ENDBRANCH  18  19
ENDBRANCH  17  18
ENDBRANCH   2  17
TORSDOF 5
ENDMDL
MODEL 9
REMARK VINA RESULT:      -7.7      1.671      1.792
REMARK  5 active torsions:
REMARK  status: ('A' for Active; 'I' for Inactive)
REMARK    1  A    between atoms: C_8  and  C_9 
REMARK    2  A    between atoms: N_10  and  N_11 
REMARK       I    between atoms: N_11  and  C_12 
REMARK    3  A    between atoms: C_12  and  C_13 
REMARK    4  A    between atoms: C_13  and  O_14 
REMARK    5  A    between atoms: O_14  and  C_15 
ROOT
HETATM    1  N   UNL     1      41.929 -15.078   1.824  1.00  0.00    -0.246 N 
HETATM    2  C   UNL     1      42.156 -13.714   1.942  1.00  0.00     0.261 C 
HETATM    3  O   UNL     1      43.066 -13.176   2.572  1.00  0.00    -0.269 OA
HETATM    4  H   UNL     1      41.268 -15.370   1.104  1.00  0.00     0.192 HD
ENDROOT
BRANCH   1   5
HETATM    5  N   UNL     1      42.729 -16.095   2.291  1.00  0.00    -0.184 NA
HETATM    6  C   UNL     1      42.371 -16.751   3.347  1.00  0.00     0.152 C 
BRANCH   6   7
HETATM    7  C   UNL     1      43.234 -17.790   3.873  1.00  0.00     0.011 A 
HETATM    8  C   UNL     1      43.520 -19.055   3.264  1.00  0.00     0.004 A 
HETATM    9  C   UNL     1      43.105 -19.688   2.073  1.00  0.00     0.014 A 
HETATM   10  C   UNL     1      44.394 -19.739   4.110  1.00  0.00     0.043 A 
HETATM   11  C   UNL     1      43.574 -20.972   1.773  1.00  0.00     0.001 A 
HETATM   12  C   UNL     1      44.449 -21.627   2.637  1.00  0.00     0.002 A 
HETATM   13  C   UNL     1      44.877 -21.022   3.822  1.00  0.00     0.030 A 
HETATM   14  N   UNL     1      44.633 -18.923   5.191  1.00  0.00    -0.364 N 
HETATM   15  H   UNL     1      45.232 -19.163   5.968  1.00  0.00     0.165 HD
HETATM   16  C   UNL     1      43.937 -17.752   5.064  1.00  0.00     0.102 A 
ENDBRANCH   6   7
ENDBRANCH   1   5
BRANCH   2  17
HETATM   17  C   UNL     1      41.091 -12.867   1.247  1.00  0.00     0.280 C 
BRANCH  17  18
HETATM   18  O   UNL     1      41.373 -12.695  -0.138  1.00  0.00    -0.341 OA
BRANCH  18  19
HETATM   19  C   UNL     1      40.410 -13.161  -0.998  1.00  0.00     0.086 A 
HETATM   20  C   UNL     1      40.769 -13.335  -2.345  1.00  0.00     0.045 A 
HETATM   21 BR   UNL     1      42.517 -12.920  -2.961  1.00  0.00    -0.048 Br
HETATM   22  C   UNL     1      39.839 -13.804  -3.276  1.00  0.00     0.046 A 
HETATM   23  C   UNL     1      38.549 -14.115  -2.859  1.00  0.00     0.035 A 
HETATM   24 CL   UNL     1      37.394 -14.687  -4.000  1.00  0.00    -0.084 Cl
HETATM   25  C   UNL     1      38.184 -13.971  -1.523  1.00  0.00     0.026 A 
HETATM   26  C   UNL     1      39.115 -13.500  -0.592  1.00  0.00     0.040 A 
ENDBRANCH  18  19
ENDBRANCH  17  18
ENDBRANCH   2  17
TORSDOF 5
ENDMDL
MODEL 10
REMARK VINA RESULT:      -7.6      2.747      2.989
REMARK  5 active torsions:
REMARK  status: ('A' for Active; 'I' for Inactive)
REMARK    1  A    between atoms: C_8  and  C_9 
REMARK    2  A    between atoms: N_10  and  N_11 
REMARK       I    between atoms: N_11  and  C_12 
REMARK    3  A    between atoms: C_12  and  C_13 
REMARK    4  A    between atoms: C_13  and  O_14 
REMARK    5  A    between atoms: O_14  and  C_15 
ROOT
HETATM    1  N   UNL     1      42.723 -14.990   2.223  1.00  0.00    -0.246 N 
HETATM    2  C   UNL     1      42.922 -13.691   2.670  1.00  0.00     0.261 C 
HETATM    3  O   UNL     1      43.664 -13.338   3.585  1.00  0.00    -0.269 OA
HETATM    4  H   UNL     1      42.244 -15.097   1.329  1.00  0.00     0.192 HD
ENDROOT
BRANCH   1   5
HETATM    5  N   UNL     1      43.391 -16.119   2.635  1.00  0.00    -0.184 NA
HETATM    6  C   UNL     1      42.874 -16.862   3.560  1.00  0.00     0.152 C 
BRANCH   6   7
HETATM    7  C   UNL     1      43.598 -18.025   4.034  1.00  0.00     0.011 A 
HETATM    8  C   UNL     1      43.746 -19.277   3.351  1.00  0.00     0.004 A 
HETATM    9  C   UNL     1      43.286 -19.785   2.117  1.00  0.00     0.014 A 
HETATM   10  C   UNL     1      44.514 -20.110   4.166  1.00  0.00     0.043 A 
HETATM   11  C   UNL     1      43.607 -21.095   1.746  1.00  0.00     0.001 A 
HETATM   12  C   UNL     1      44.378 -21.899   2.581  1.00  0.00     0.002 A 
HETATM   13  C   UNL     1      44.849 -21.421   3.807  1.00  0.00     0.030 A 
HETATM   14  N   UNL     1      44.824 -19.393   5.299  1.00  0.00    -0.364 N 
HETATM   15  H   UNL     1      45.373 -19.748   6.069  1.00  0.00     0.165 HD
HETATM   16  C   UNL     1      44.273 -18.143   5.235  1.00  0.00     0.102 A 
ENDBRANCH   6   7
ENDBRANCH   1   5
BRANCH   2  17
HETATM   17  C   UNL     1      42.047 -12.668   1.947  1.00  0.00     0.280 C 
BRANCH  17  18
HETATM   18  O   UNL     1      41.283 -13.269   0.905  1.00  0.00    -0.341 OA
BRANCH  18  19
HETATM   19  C   UNL     1      40.000 -12.800   0.770  1.00  0.00     0.086 A 
HETATM   20  C   UNL     1      38.953 -13.638   1.185  1.00  0.00     0.045 A 
HETATM   21 BR   UNL     1      39.295 -15.368   1.890  1.00  0.00    -0.048 Br
HETATM   22  C   UNL     1      37.622 -13.226   1.075  1.00  0.00     0.046 A 
HETATM   23  C   UNL     1      37.335 -11.966   0.560  1.00  0.00     0.035 A 
HETATM   24 CL   UNL     1      35.700 -11.452   0.414  1.00  0.00    -0.084 Cl
HETATM   25  C   UNL     1      38.364 -11.113   0.166  1.00  0.00     0.026 A 
HETATM   26  C   UNL     1      39.695 -11.527   0.276  1.00  0.00     0.040 A 
ENDBRANCH  18  19
ENDBRANCH  17  18
ENDBRANCH   2  17
TORSDOF 5
ENDMDL
