MODEL 1
REMARK VINA RESULT:     -10.6      0.000      0.000
REMARK  7 active torsions:
REMARK  status: ('A' for Active; 'I' for Inactive)
REMARK    1  A    between atoms: C_9  and  O_10 
REMARK    2  A    between atoms: O_10  and  C_11 
REMARK    3  A    between atoms: C_11  and  C_12 
REMARK    4  A    between atoms: C_15  and  C_16 
REMARK       I    between atoms: C_16  and  N_17 
REMARK    5  A    between atoms: N_17  and  N_18 
REMARK    6  A    between atoms: C_19  and  N_20 
REMARK    7  A    between atoms: C_21  and  C_22 
ROOT
HETATM    1  C   UNL     1      40.860 -11.447   6.517  1.00  0.00     0.270 C 
HETATM    2  N   UNL     1      40.343 -11.718   7.772  1.00  0.00    -0.262 N 
HETATM    3  O   UNL     1      41.049 -10.323   6.060  1.00  0.00    -0.266 OA
HETATM    4  H   UNL     1      40.119 -12.651   8.104  1.00  0.00     0.190 HD
ENDROOT
BRANCH   2   5
HETATM    5  N   UNL     1      40.089 -10.687   8.688  1.00  0.00    -0.270 N 
HETATM    6  C   UNL     1      40.775 -10.639   9.901  1.00  0.00     0.113 C 
HETATM    7  C   UNL     1      40.075 -10.009  10.867  1.00  0.00     0.097 C 
HETATM    8  C   UNL     1      38.764  -9.680  10.256  1.00  0.00     0.186 C 
HETATM    9  O   UNL     1      37.865  -9.103  10.857  1.00  0.00    -0.290 OA
HETATM   10  C   UNL     1      38.714 -10.186   8.830  1.00  0.00     0.234 C 
BRANCH   6  11
HETATM   11  N   UNL     1      42.031 -11.190  10.035  1.00  0.00    -0.286 NA
HETATM   12  H   UNL     1      42.731 -10.453  10.022  1.00  0.00     0.125 HD
HETATM   13  H   UNL     1      42.093 -11.730  10.908  1.00  0.00     0.125 HD
ENDBRANCH   6  11
BRANCH   7  14
HETATM   14  C   UNL     1      40.490  -9.739  12.182  1.00  0.00     0.146 A 
HETATM   15  N   UNL     1      41.403 -10.324  12.938  1.00  0.00    -0.228 NA
HETATM   16  C   UNL     1      41.409  -9.627  14.124  1.00  0.00     0.086 A 
HETATM   17  C   UNL     1      40.486  -8.589  14.094  1.00  0.00     0.062 A 
HETATM   18  C   UNL     1      42.182  -9.821  15.278  1.00  0.00     0.034 A 
HETATM   19  N   UNL     1      39.914  -8.683  12.853  1.00  0.00    -0.338 N 
HETATM   20  C   UNL     1      40.283  -7.708  15.158  1.00  0.00     0.032 A 
HETATM   21  H   UNL     1      39.194  -8.077  12.475  1.00  0.00     0.167 HD
HETATM   22  C   UNL     1      41.066  -7.915  16.301  1.00  0.00     0.002 A 
HETATM   23  C   UNL     1      41.999  -8.953  16.363  1.00  0.00     0.002 A 
ENDBRANCH   7  14
ENDBRANCH   2   5
BRANCH   1  24
HETATM   24  C   UNL     1      41.134 -12.636   5.670  1.00  0.00     0.033 A 
HETATM   25  C   UNL     1      40.296 -13.749   5.800  1.00  0.00     0.017 A 
HETATM   26  C   UNL     1      40.520 -14.889   5.026  1.00  0.00     0.010 A 
HETATM   27  C   UNL     1      41.577 -14.929   4.105  1.00  0.00    -0.034 A 
HETATM   28  C   UNL     1      42.394 -13.797   3.957  1.00  0.00     0.010 A 
HETATM   29  C   UNL     1      42.178 -12.657   4.736  1.00  0.00     0.017 A 
BRANCH  27  30
HETATM   30  C   UNL     1      41.803 -16.167   3.269  1.00  0.00     0.214 C 
BRANCH  30  31
HETATM   31  O   UNL     1      43.204 -16.427   3.224  1.00  0.00    -0.347 OA
BRANCH  31  32
HETATM   32  C   UNL     1      43.624 -17.655   3.657  1.00  0.00     0.070 A 
HETATM   33  C   UNL     1      44.053 -17.969   4.944  1.00  0.00     0.037 A 
HETATM   34  C   UNL     1      44.449 -19.275   5.254  1.00  0.00     0.015 A 
HETATM   35  C   UNL     1      44.427 -20.286   4.280  1.00  0.00    -0.026 A 
HETATM   36  C   UNL     1      44.820 -21.600   4.577  1.00  0.00     0.012 A 
HETATM   37  C   UNL     1      44.000 -19.970   2.972  1.00  0.00    -0.023 A 
HETATM   38  C   UNL     1      44.793 -22.592   3.596  1.00  0.00     0.001 A 
HETATM   39  C   UNL     1      44.374 -22.282   2.305  1.00  0.00     0.001 A 
HETATM   40  C   UNL     1      43.979 -20.979   1.995  1.00  0.00     0.012 A 
HETATM   41  C   UNL     1      43.604 -18.654   2.679  1.00  0.00     0.049 A 
ENDBRANCH  31  32
ENDBRANCH  30  31
ENDBRANCH  27  30
ENDBRANCH   1  24
TORSDOF 7
ENDMDL
MODEL 2
REMARK VINA RESULT:     -10.6      1.711      2.381
REMARK  7 active torsions:
REMARK  status: ('A' for Active; 'I' for Inactive)
REMARK    1  A    between atoms: C_9  and  O_10 
REMARK    2  A    between atoms: O_10  and  C_11 
REMARK    3  A    between atoms: C_11  and  C_12 
REMARK    4  A    between atoms: C_15  and  C_16 
REMARK       I    between atoms: C_16  and  N_17 
REMARK    5  A    between atoms: N_17  and  N_18 
REMARK    6  A    between atoms: C_19  and  N_20 
REMARK    7  A    between atoms: C_21  and  C_22 
ROOT
HETATM    1  C   UNL     1      40.728 -13.308   5.307  1.00  0.00     0.270 C 
HETATM    2  N   UNL     1      41.320 -12.058   5.329  1.00  0.00    -0.262 N 
HETATM    3  O   UNL     1      39.968 -13.744   6.168  1.00  0.00    -0.266 OA
HETATM    4  H   UNL     1      42.008 -11.743   4.650  1.00  0.00     0.190 HD
ENDROOT
BRANCH   2   5
HETATM    5  N   UNL     1      40.997 -11.120   6.321  1.00  0.00    -0.270 N 
HETATM    6  C   UNL     1      41.591 -11.196   7.580  1.00  0.00     0.113 C 
HETATM    7  C   UNL     1      40.819 -10.661   8.549  1.00  0.00     0.097 C 
HETATM    8  C   UNL     1      39.557 -10.266   7.878  1.00  0.00     0.186 C 
HETATM    9  O   UNL     1      38.614  -9.747   8.464  1.00  0.00    -0.290 OA
HETATM   10  C   UNL     1      39.614 -10.630   6.409  1.00  0.00     0.234 C 
BRANCH   6  11
HETATM   11  N   UNL     1      42.834 -11.763   7.752  1.00  0.00    -0.286 NA
HETATM   12  H   UNL     1      43.483 -11.066   8.108  1.00  0.00     0.125 HD
HETATM   13  H   UNL     1      42.777 -12.564   8.395  1.00  0.00     0.125 HD
ENDBRANCH   6  11
BRANCH   7  14
HETATM   14  C   UNL     1      41.135 -10.522   9.911  1.00  0.00     0.146 A 
HETATM   15  N   UNL     1      40.499 -10.937  10.992  1.00  0.00    -0.228 NA
HETATM   16  C   UNL     1      41.278 -10.549  12.057  1.00  0.00     0.086 A 
HETATM   17  C   UNL     1      42.420  -9.887  11.621  1.00  0.00     0.062 A 
HETATM   18  C   UNL     1      41.077 -10.730  13.433  1.00  0.00     0.034 A 
HETATM   19  N   UNL     1      42.303  -9.880  10.256  1.00  0.00    -0.338 N 
HETATM   20  C   UNL     1      43.398  -9.389  12.484  1.00  0.00     0.032 A 
HETATM   21  H   UNL     1      42.965  -9.482   9.599  1.00  0.00     0.167 HD
HETATM   22  C   UNL     1      43.182  -9.581  13.854  1.00  0.00     0.002 A 
HETATM   23  C   UNL     1      42.042 -10.240  14.323  1.00  0.00     0.002 A 
ENDBRANCH   7  14
ENDBRANCH   2   5
BRANCH   1  24
HETATM   24  C   UNL     1      41.119 -14.179   4.168  1.00  0.00     0.033 A 
HETATM   25  C   UNL     1      40.491 -15.423   4.040  1.00  0.00     0.017 A 
HETATM   26  C   UNL     1      40.830 -16.274   2.986  1.00  0.00     0.010 A 
HETATM   27  C   UNL     1      41.794 -15.889   2.042  1.00  0.00    -0.034 A 
HETATM   28  C   UNL     1      42.396 -14.627   2.159  1.00  0.00     0.010 A 
HETATM   29  C   UNL     1      42.064 -13.776   3.217  1.00  0.00     0.017 A 
BRANCH  27  30
HETATM   30  C   UNL     1      42.146 -16.818   0.904  1.00  0.00     0.214 C 
BRANCH  30  31
HETATM   31  O   UNL     1      43.508 -17.213   1.054  1.00  0.00    -0.347 OA
BRANCH  31  32
HETATM   32  C   UNL     1      43.804 -18.044   2.099  1.00  0.00     0.070 A 
HETATM   33  C   UNL     1      43.998 -17.660   3.424  1.00  0.00     0.037 A 
HETATM   34  C   UNL     1      44.288 -18.621   4.399  1.00  0.00     0.015 A 
HETATM   35  C   UNL     1      44.393 -19.980   4.064  1.00  0.00    -0.026 A 
HETATM   36  C   UNL     1      44.683 -20.954   5.032  1.00  0.00     0.012 A 
HETATM   37  C   UNL     1      44.204 -20.373   2.722  1.00  0.00    -0.023 A 
HETATM   38  C   UNL     1      44.786 -22.301   4.681  1.00  0.00     0.001 A 
HETATM   39  C   UNL     1      44.601 -22.689   3.357  1.00  0.00     0.001 A 
HETATM   40  C   UNL     1      44.311 -21.732   2.383  1.00  0.00     0.012 A 
HETATM   41  C   UNL     1      43.912 -19.395   1.756  1.00  0.00     0.049 A 
ENDBRANCH  31  32
ENDBRANCH  30  31
ENDBRANCH  27  30
ENDBRANCH   1  24
TORSDOF 7
ENDMDL
MODEL 3
REMARK VINA RESULT:      -9.9      2.613     12.177
REMARK  7 active torsions:
REMARK  status: ('A' for Active; 'I' for Inactive)
REMARK    1  A    between atoms: C_9  and  O_10 
REMARK    2  A    between atoms: O_10  and  C_11 
REMARK    3  A    between atoms: C_11  and  C_12 
REMARK    4  A    between atoms: C_15  and  C_16 
REMARK       I    between atoms: C_16  and  N_17 
REMARK    5  A    between atoms: N_17  and  N_18 
REMARK    6  A    between atoms: C_19  and  N_20 
REMARK    7  A    between atoms: C_21  and  C_22 
ROOT
HETATM    1  C   UNL     1      40.797 -12.452   6.038  1.00  0.00     0.270 C 
HETATM    2  N   UNL     1      39.830 -13.442   6.014  1.00  0.00    -0.262 N 
HETATM    3  O   UNL     1      41.833 -12.463   5.378  1.00  0.00    -0.266 OA
HETATM    4  H   UNL     1      39.018 -13.457   6.624  1.00  0.00     0.190 HD
ENDROOT
BRANCH   2   5
HETATM    5  N   UNL     1      39.916 -14.517   5.117  1.00  0.00    -0.270 N 
HETATM    6  C   UNL     1      40.854 -15.529   5.321  1.00  0.00     0.113 C 
HETATM    7  C   UNL     1      41.219 -16.134   4.172  1.00  0.00     0.097 C 
HETATM    8  C   UNL     1      40.515 -15.397   3.094  1.00  0.00     0.186 C 
HETATM    9  O   UNL     1      40.622 -15.675   1.905  1.00  0.00    -0.290 OA
HETATM   10  C   UNL     1      39.701 -14.266   3.685  1.00  0.00     0.234 C 
BRANCH   6  11
HETATM   11  N   UNL     1      41.316 -15.834   6.582  1.00  0.00    -0.286 NA
HETATM   12  H   UNL     1      40.895 -16.702   6.901  1.00  0.00     0.125 HD
HETATM   13  H   UNL     1      42.342 -15.910   6.579  1.00  0.00     0.125 HD
ENDBRANCH   6  11
BRANCH   7  14
HETATM   14  C   UNL     1      42.096 -17.222   4.023  1.00  0.00     0.146 A 
HETATM   15  N   UNL     1      42.951 -17.765   4.871  1.00  0.00    -0.228 NA
HETATM   16  C   UNL     1      43.524 -18.821   4.201  1.00  0.00     0.086 A 
HETATM   17  C   UNL     1      43.006 -18.933   2.916  1.00  0.00     0.062 A 
HETATM   18  C   UNL     1      44.496 -19.737   4.628  1.00  0.00     0.034 A 
HETATM   19  N   UNL     1      42.105 -17.905   2.827  1.00  0.00    -0.338 N 
HETATM   20  C   UNL     1      43.396 -19.922   2.012  1.00  0.00     0.032 A 
HETATM   21  H   UNL     1      41.527 -17.680   2.025  1.00  0.00     0.167 HD
HETATM   22  C   UNL     1      44.366 -20.830   2.456  1.00  0.00     0.002 A 
HETATM   23  C   UNL     1      44.908 -20.741   3.741  1.00  0.00     0.002 A 
ENDBRANCH   7  14
ENDBRANCH   2   5
BRANCH   1  24
HETATM   24  C   UNL     1      40.551 -11.343   6.995  1.00  0.00     0.033 A 
HETATM   25  C   UNL     1      41.330 -10.186   6.883  1.00  0.00     0.017 A 
HETATM   26  C   UNL     1      41.134  -9.121   7.764  1.00  0.00     0.010 A 
HETATM   27  C   UNL     1      40.152  -9.194   8.762  1.00  0.00    -0.034 A 
HETATM   28  C   UNL     1      39.353 -10.344   8.849  1.00  0.00     0.010 A 
HETATM   29  C   UNL     1      39.551 -11.416   7.973  1.00  0.00     0.017 A 
BRANCH  27  30
HETATM   30  C   UNL     1      39.947  -8.031   9.704  1.00  0.00     0.214 C 
BRANCH  30  31
HETATM   31  O   UNL     1      41.221  -7.630  10.204  1.00  0.00    -0.347 OA
BRANCH  31  32
HETATM   32  C   UNL     1      41.622  -8.172  11.393  1.00  0.00     0.070 A 
HETATM   33  C   UNL     1      42.688  -9.050  11.578  1.00  0.00     0.037 A 
HETATM   34  C   UNL     1      42.996  -9.523  12.858  1.00  0.00     0.015 A 
HETATM   35  C   UNL     1      42.241  -9.129  13.974  1.00  0.00    -0.026 A 
HETATM   36  C   UNL     1      42.538  -9.595  15.264  1.00  0.00     0.012 A 
HETATM   37  C   UNL     1      41.155  -8.245  13.791  1.00  0.00    -0.023 A 
HETATM   38  C   UNL     1      41.775  -9.194  16.362  1.00  0.00     0.001 A 
HETATM   39  C   UNL     1      40.703  -8.325  16.182  1.00  0.00     0.001 A 
HETATM   40  C   UNL     1      40.395  -7.852  14.905  1.00  0.00     0.012 A 
HETATM   41  C   UNL     1      40.861  -7.779  12.498  1.00  0.00     0.049 A 
ENDBRANCH  31  32
ENDBRANCH  30  31
ENDBRANCH  27  30
ENDBRANCH   1  24
TORSDOF 7
ENDMDL
MODEL 4
REMARK VINA RESULT:      -9.9      2.109      3.142
REMARK  7 active torsions:
REMARK  status: ('A' for Active; 'I' for Inactive)
REMARK    1  A    between atoms: C_9  and  O_10 
REMARK    2  A    between atoms: O_10  and  C_11 
REMARK    3  A    between atoms: C_11  and  C_12 
REMARK    4  A    between atoms: C_15  and  C_16 
REMARK       I    between atoms: C_16  and  N_17 
REMARK    5  A    between atoms: N_17  and  N_18 
REMARK    6  A    between atoms: C_19  and  N_20 
REMARK    7  A    between atoms: C_21  and  C_22 
ROOT
HETATM    1  C   UNL     1      40.831 -11.974   3.892  1.00  0.00     0.270 C 
HETATM    2  N   UNL     1      40.674 -12.288   5.231  1.00  0.00    -0.262 N 
HETATM    3  O   UNL     1      40.795 -10.838   3.425  1.00  0.00    -0.266 OA
HETATM    4  H   UNL     1      40.628 -13.237   5.590  1.00  0.00     0.190 HD
ENDROOT
BRANCH   2   5
HETATM    5  N   UNL     1      40.568 -11.282   6.203  1.00  0.00    -0.270 N 
HETATM    6  C   UNL     1      41.357 -11.326   7.351  1.00  0.00     0.113 C 
HETATM    7  C   UNL     1      40.785 -10.696   8.397  1.00  0.00     0.097 C 
HETATM    8  C   UNL     1      39.451 -10.261   7.917  1.00  0.00     0.186 C 
HETATM    9  O   UNL     1      38.646  -9.656   8.616  1.00  0.00    -0.290 OA
HETATM   10  C   UNL     1      39.246 -10.705   6.483  1.00  0.00     0.234 C 
BRANCH   6  11
HETATM   11  N   UNL     1      42.582 -11.958   7.353  1.00  0.00    -0.286 NA
HETATM   12  H   UNL     1      42.946 -11.996   8.302  1.00  0.00     0.125 HD
HETATM   13  H   UNL     1      42.497 -12.905   6.962  1.00  0.00     0.125 HD
ENDBRANCH   6  11
BRANCH   7  14
HETATM   14  C   UNL     1      41.329 -10.505   9.678  1.00  0.00     0.146 A 
HETATM   15  N   UNL     1      42.474  -9.965  10.060  1.00  0.00    -0.228 NA
HETATM   16  C   UNL     1      42.471 -10.017  11.435  1.00  0.00     0.086 A 
HETATM   17  C   UNL     1      41.299 -10.594  11.908  1.00  0.00     0.062 A 
HETATM   18  C   UNL     1      43.439  -9.583  12.353  1.00  0.00     0.034 A 
HETATM   19  N   UNL     1      40.594 -10.899  10.774  1.00  0.00    -0.338 N 
HETATM   20  C   UNL     1      41.018 -10.767  13.264  1.00  0.00     0.032 A 
HETATM   21  H   UNL     1      39.677 -11.331  10.734  1.00  0.00     0.167 HD
HETATM   22  C   UNL     1      41.994 -10.326  14.167  1.00  0.00     0.002 A 
HETATM   23  C   UNL     1      43.184  -9.745  13.722  1.00  0.00     0.002 A 
ENDBRANCH   7  14
ENDBRANCH   2   5
BRANCH   1  24
HETATM   24  C   UNL     1      40.990 -13.135   2.979  1.00  0.00     0.033 A 
HETATM   25  C   UNL     1      42.281 -13.483   2.568  1.00  0.00     0.017 A 
HETATM   26  C   UNL     1      42.475 -14.566   1.708  1.00  0.00     0.010 A 
HETATM   27  C   UNL     1      41.383 -15.321   1.256  1.00  0.00    -0.034 A 
HETATM   28  C   UNL     1      40.094 -14.986   1.698  1.00  0.00     0.010 A 
HETATM   29  C   UNL     1      39.895 -13.898   2.553  1.00  0.00     0.017 A 
BRANCH  27  30
HETATM   30  C   UNL     1      41.609 -16.494   0.331  1.00  0.00     0.214 C 
BRANCH  30  31
HETATM   31  O   UNL     1      41.278 -17.689   1.035  1.00  0.00    -0.347 OA
BRANCH  31  32
HETATM   32  C   UNL     1      42.199 -18.161   1.929  1.00  0.00     0.070 A 
HETATM   33  C   UNL     1      43.355 -18.873   1.618  1.00  0.00     0.037 A 
HETATM   34  C   UNL     1      44.219 -19.291   2.636  1.00  0.00     0.015 A 
HETATM   35  C   UNL     1      43.939 -19.007   3.982  1.00  0.00    -0.026 A 
HETATM   36  C   UNL     1      44.797 -19.419   5.014  1.00  0.00     0.012 A 
HETATM   37  C   UNL     1      42.764 -18.292   4.303  1.00  0.00    -0.023 A 
HETATM   38  C   UNL     1      44.501 -19.129   6.347  1.00  0.00     0.001 A 
HETATM   39  C   UNL     1      43.343 -18.426   6.664  1.00  0.00     0.001 A 
HETATM   40  C   UNL     1      42.480 -18.008   5.649  1.00  0.00     0.012 A 
HETATM   41  C   UNL     1      41.909 -17.879   3.267  1.00  0.00     0.049 A 
ENDBRANCH  31  32
ENDBRANCH  30  31
ENDBRANCH  27  30
ENDBRANCH   1  24
TORSDOF 7
ENDMDL
MODEL 5
REMARK VINA RESULT:      -9.8      2.940     10.988
REMARK  7 active torsions:
REMARK  status: ('A' for Active; 'I' for Inactive)
REMARK    1  A    between atoms: C_9  and  O_10 
REMARK    2  A    between atoms: O_10  and  C_11 
REMARK    3  A    between atoms: C_11  and  C_12 
REMARK    4  A    between atoms: C_15  and  C_16 
REMARK       I    between atoms: C_16  and  N_17 
REMARK    5  A    between atoms: N_17  and  N_18 
REMARK    6  A    between atoms: C_19  and  N_20 
REMARK    7  A    between atoms: C_21  and  C_22 
ROOT
HETATM    1  C   UNL     1      40.381 -12.376   5.930  1.00  0.00     0.270 C 
HETATM    2  N   UNL     1      39.585 -13.508   5.932  1.00  0.00    -0.262 N 
HETATM    3  O   UNL     1      41.352 -12.198   5.199  1.00  0.00    -0.266 OA
HETATM    4  H   UNL     1      38.834 -13.674   6.596  1.00  0.00     0.190 HD
ENDROOT
BRANCH   2   5
HETATM    5  N   UNL     1      39.773 -14.527   4.986  1.00  0.00    -0.270 N 
HETATM    6  C   UNL     1      40.695 -15.546   5.224  1.00  0.00     0.113 C 
HETATM    7  C   UNL     1      41.182 -16.080   4.085  1.00  0.00     0.097 C 
HETATM    8  C   UNL     1      40.586 -15.281   2.987  1.00  0.00     0.186 C 
HETATM    9  O   UNL     1      40.817 -15.486   1.801  1.00  0.00    -0.290 OA
HETATM   10  C   UNL     1      39.704 -14.190   3.557  1.00  0.00     0.234 C 
BRANCH   6  11
HETATM   11  N   UNL     1      41.028 -15.925   6.507  1.00  0.00    -0.286 NA
HETATM   12  H   UNL     1      40.803 -16.907   6.644  1.00  0.00     0.125 HD
HETATM   13  H   UNL     1      42.027 -15.756   6.682  1.00  0.00     0.125 HD
ENDBRANCH   6  11
BRANCH   7  14
HETATM   14  C   UNL     1      42.080 -17.153   3.963  1.00  0.00     0.146 A 
HETATM   15  N   UNL     1      42.948 -17.656   4.823  1.00  0.00    -0.228 NA
HETATM   16  C   UNL     1      43.540 -18.718   4.180  1.00  0.00     0.086 A 
HETATM   17  C   UNL     1      43.020 -18.876   2.901  1.00  0.00     0.062 A 
HETATM   18  C   UNL     1      44.532 -19.603   4.628  1.00  0.00     0.034 A 
HETATM   19  N   UNL     1      42.099 -17.869   2.787  1.00  0.00    -0.338 N 
HETATM   20  C   UNL     1      43.427 -19.882   2.023  1.00  0.00     0.032 A 
HETATM   21  H   UNL     1      41.514 -17.678   1.981  1.00  0.00     0.167 HD
HETATM   22  C   UNL     1      44.416 -20.758   2.488  1.00  0.00     0.002 A 
HETATM   23  C   UNL     1      44.961 -20.623   3.768  1.00  0.00     0.002 A 
ENDBRANCH   7  14
ENDBRANCH   2   5
BRANCH   1  24
HETATM   24  C   UNL     1      40.035 -11.352   6.949  1.00  0.00     0.033 A 
HETATM   25  C   UNL     1      39.348 -11.764   8.096  1.00  0.00     0.017 A 
HETATM   26  C   UNL     1      39.001 -10.834   9.077  1.00  0.00     0.010 A 
HETATM   27  C   UNL     1      39.343  -9.482   8.930  1.00  0.00    -0.034 A 
HETATM   28  C   UNL     1      40.060  -9.081   7.792  1.00  0.00     0.010 A 
HETATM   29  C   UNL     1      40.402 -10.008   6.803  1.00  0.00     0.017 A 
BRANCH  27  30
HETATM   30  C   UNL     1      38.966  -8.488  10.003  1.00  0.00     0.214 C 
BRANCH  30  31
HETATM   31  O   UNL     1      40.140  -8.162  10.744  1.00  0.00    -0.347 OA
BRANCH  31  32
HETATM   32  C   UNL     1      40.914  -9.205  11.174  1.00  0.00     0.070 A 
HETATM   33  C   UNL     1      40.588 -10.107  12.184  1.00  0.00     0.037 A 
HETATM   34  C   UNL     1      41.474 -11.138  12.519  1.00  0.00     0.015 A 
HETATM   35  C   UNL     1      42.701 -11.279  11.853  1.00  0.00    -0.026 A 
HETATM   36  C   UNL     1      43.598 -12.309  12.178  1.00  0.00     0.012 A 
HETATM   37  C   UNL     1      43.039 -10.363  10.834  1.00  0.00    -0.023 A 
HETATM   38  C   UNL     1      44.815 -12.433  11.506  1.00  0.00     0.001 A 
HETATM   39  C   UNL     1      45.150 -11.529  10.503  1.00  0.00     0.001 A 
HETATM   40  C   UNL     1      44.267 -10.500  10.167  1.00  0.00     0.012 A 
HETATM   41  C   UNL     1      42.137  -9.335  10.509  1.00  0.00     0.049 A 
ENDBRANCH  31  32
ENDBRANCH  30  31
ENDBRANCH  27  30
ENDBRANCH   1  24
TORSDOF 7
ENDMDL
MODEL 6
REMARK VINA RESULT:      -9.7      3.149     12.054
REMARK  7 active torsions:
REMARK  status: ('A' for Active; 'I' for Inactive)
REMARK    1  A    between atoms: C_9  and  O_10 
REMARK    2  A    between atoms: O_10  and  C_11 
REMARK    3  A    between atoms: C_11  and  C_12 
REMARK    4  A    between atoms: C_15  and  C_16 
REMARK       I    between atoms: C_16  and  N_17 
REMARK    5  A    between atoms: N_17  and  N_18 
REMARK    6  A    between atoms: C_19  and  N_20 
REMARK    7  A    between atoms: C_21  and  C_22 
ROOT
HETATM    1  C   UNL     1      40.394 -13.470   4.246  1.00  0.00     0.270 C 
HETATM    2  N   UNL     1      41.593 -14.127   4.462  1.00  0.00    -0.262 N 
HETATM    3  O   UNL     1      39.634 -13.682   3.304  1.00  0.00    -0.266 OA
HETATM    4  H   UNL     1      42.247 -13.885   5.201  1.00  0.00     0.190 HD
ENDROOT
BRANCH   2   5
HETATM    5  N   UNL     1      41.988 -15.199   3.650  1.00  0.00    -0.270 N 
HETATM    6  C   UNL     1      42.265 -16.444   4.213  1.00  0.00     0.113 C 
HETATM    7  C   UNL     1      43.140 -17.161   3.479  1.00  0.00     0.097 C 
HETATM    8  C   UNL     1      43.544 -16.272   2.363  1.00  0.00     0.186 C 
HETATM    9  O   UNL     1      44.344 -16.599   1.494  1.00  0.00    -0.290 OA
HETATM   10  C   UNL     1      42.853 -14.931   2.492  1.00  0.00     0.234 C 
BRANCH   6  11
HETATM   11  N   UNL     1      41.675 -16.843   5.393  1.00  0.00    -0.286 NA
HETATM   12  H   UNL     1      41.147 -16.071   5.790  1.00  0.00     0.125 HD
HETATM   13  H   UNL     1      41.063 -17.653   5.230  1.00  0.00     0.125 HD
ENDBRANCH   6  11
BRANCH   7  14
HETATM   14  C   UNL     1      43.591 -18.469   3.727  1.00  0.00     0.146 A 
HETATM   15  N   UNL     1      43.951 -19.060   4.853  1.00  0.00    -0.228 NA
HETATM   16  C   UNL     1      44.275 -20.352   4.511  1.00  0.00     0.086 A 
HETATM   17  C   UNL     1      44.103 -20.562   3.148  1.00  0.00     0.062 A 
HETATM   18  C   UNL     1      44.720 -21.411   5.314  1.00  0.00     0.034 A 
HETATM   19  N   UNL     1      43.673 -19.351   2.673  1.00  0.00    -0.338 N 
HETATM   20  C   UNL     1      44.346 -21.785   2.520  1.00  0.00     0.032 A 
HETATM   21  H   UNL     1      43.439 -19.131   1.711  1.00  0.00     0.167 HD
HETATM   22  C   UNL     1      44.788 -22.832   3.338  1.00  0.00     0.002 A 
HETATM   23  C   UNL     1      44.974 -22.651   4.711  1.00  0.00     0.002 A 
ENDBRANCH   7  14
ENDBRANCH   2   5
BRANCH   1  24
HETATM   24  C   UNL     1      40.073 -12.392   5.216  1.00  0.00     0.033 A 
HETATM   25  C   UNL     1      40.044 -11.071   4.753  1.00  0.00     0.017 A 
HETATM   26  C   UNL     1      39.750 -10.027   5.632  1.00  0.00     0.010 A 
HETATM   27  C   UNL     1      39.472 -10.289   6.981  1.00  0.00    -0.034 A 
HETATM   28  C   UNL     1      39.470 -11.618   7.432  1.00  0.00     0.010 A 
HETATM   29  C   UNL     1      39.772 -12.665   6.556  1.00  0.00     0.017 A 
BRANCH  27  30
HETATM   30  C   UNL     1      39.149  -9.149   7.919  1.00  0.00     0.214 C 
BRANCH  30  31
HETATM   31  O   UNL     1      40.341  -8.790   8.615  1.00  0.00    -0.347 OA
BRANCH  31  32
HETATM   32  C   UNL     1      40.441  -9.182   9.921  1.00  0.00     0.070 A 
HETATM   33  C   UNL     1      39.422  -9.734  10.694  1.00  0.00     0.037 A 
HETATM   34  C   UNL     1      39.667 -10.100  12.022  1.00  0.00     0.015 A 
HETATM   35  C   UNL     1      40.932  -9.916  12.600  1.00  0.00    -0.026 A 
HETATM   36  C   UNL     1      41.192 -10.280  13.931  1.00  0.00     0.012 A 
HETATM   37  C   UNL     1      41.966  -9.350  11.823  1.00  0.00    -0.023 A 
HETATM   38  C   UNL     1      42.456 -10.087  14.490  1.00  0.00     0.001 A 
HETATM   39  C   UNL     1      43.475  -9.527  13.725  1.00  0.00     0.001 A 
HETATM   40  C   UNL     1      43.233  -9.162  12.400  1.00  0.00     0.012 A 
HETATM   41  C   UNL     1      41.704  -8.990  10.491  1.00  0.00     0.049 A 
ENDBRANCH  31  32
ENDBRANCH  30  31
ENDBRANCH  27  30
ENDBRANCH   1  24
TORSDOF 7
ENDMDL
MODEL 7
REMARK VINA RESULT:      -9.7      3.387     12.712
REMARK  7 active torsions:
REMARK  status: ('A' for Active; 'I' for Inactive)
REMARK    1  A    between atoms: C_9  and  O_10 
REMARK    2  A    between atoms: O_10  and  C_11 
REMARK    3  A    between atoms: C_11  and  C_12 
REMARK    4  A    between atoms: C_15  and  C_16 
REMARK       I    between atoms: C_16  and  N_17 
REMARK    5  A    between atoms: N_17  and  N_18 
REMARK    6  A    between atoms: C_19  and  N_20 
REMARK    7  A    between atoms: C_21  and  C_22 
ROOT
HETATM    1  C   UNL     1      44.187 -13.565   6.976  1.00  0.00     0.270 C 
HETATM    2  N   UNL     1      42.934 -13.701   6.403  1.00  0.00    -0.262 N 
HETATM    3  O   UNL     1      45.198 -14.160   6.610  1.00  0.00    -0.266 OA
HETATM    4  H   UNL     1      42.093 -13.263   6.767  1.00  0.00     0.190 HD
ENDROOT
BRANCH   2   5
HETATM    5  N   UNL     1      42.746 -14.474   5.248  1.00  0.00    -0.270 N 
HETATM    6  C   UNL     1      42.969 -15.850   5.280  1.00  0.00     0.113 C 
HETATM    7  C   UNL     1      43.313 -16.346   4.073  1.00  0.00     0.097 C 
HETATM    8  C   UNL     1      43.405 -15.171   3.173  1.00  0.00     0.186 C 
HETATM    9  O   UNL     1      43.707 -15.251   1.988  1.00  0.00    -0.290 OA
HETATM   10  C   UNL     1      43.109 -13.902   3.944  1.00  0.00     0.234 C 
BRANCH   6  11
HETATM   11  N   UNL     1      42.834 -16.571   6.446  1.00  0.00    -0.286 NA
HETATM   12  H   UNL     1      42.126 -17.291   6.324  1.00  0.00     0.125 HD
HETATM   13  H   UNL     1      43.733 -16.991   6.713  1.00  0.00     0.125 HD
ENDBRANCH   6  11
BRANCH   7  14
HETATM   14  C   UNL     1      43.552 -17.690   3.741  1.00  0.00     0.146 A 
HETATM   15  N   UNL     1      43.350 -18.351   2.614  1.00  0.00    -0.228 NA
HETATM   16  C   UNL     1      43.792 -19.633   2.848  1.00  0.00     0.086 A 
HETATM   17  C   UNL     1      44.281 -19.761   4.142  1.00  0.00     0.062 A 
HETATM   18  C   UNL     1      43.812 -20.747   1.997  1.00  0.00     0.034 A 
HETATM   19  N   UNL     1      44.114 -18.515   4.689  1.00  0.00    -0.338 N 
HETATM   20  C   UNL     1      44.806 -20.949   4.654  1.00  0.00     0.032 A 
HETATM   21  H   UNL     1      44.368 -18.233   5.629  1.00  0.00     0.167 HD
HETATM   22  C   UNL     1      44.820 -22.050   3.789  1.00  0.00     0.002 A 
HETATM   23  C   UNL     1      44.332 -21.954   2.483  1.00  0.00     0.002 A 
ENDBRANCH   7  14
ENDBRANCH   2   5
BRANCH   1  24
HETATM   24  C   UNL     1      44.253 -12.671   8.161  1.00  0.00     0.033 A 
HETATM   25  C   UNL     1      43.171 -11.819   8.409  1.00  0.00     0.017 A 
HETATM   26  C   UNL     1      43.193 -10.960   9.509  1.00  0.00     0.010 A 
HETATM   27  C   UNL     1      44.291 -10.948  10.381  1.00  0.00    -0.034 A 
HETATM   28  C   UNL     1      45.358 -11.828  10.145  1.00  0.00     0.010 A 
HETATM   29  C   UNL     1      45.343 -12.684   9.040  1.00  0.00     0.017 A 
BRANCH  27  30
HETATM   30  C   UNL     1      44.297 -10.018  11.572  1.00  0.00     0.214 C 
BRANCH  30  31
HETATM   31  O   UNL     1      43.598 -10.653  12.640  1.00  0.00    -0.347 OA
BRANCH  31  32
HETATM   32  C   UNL     1      42.709  -9.889  13.344  1.00  0.00     0.070 A 
HETATM   33  C   UNL     1      42.901  -9.379  14.626  1.00  0.00     0.037 A 
HETATM   34  C   UNL     1      41.906  -8.601  15.229  1.00  0.00     0.015 A 
HETATM   35  C   UNL     1      40.703  -8.323  14.562  1.00  0.00    -0.026 A 
HETATM   36  C   UNL     1      39.698  -7.543  15.154  1.00  0.00     0.012 A 
HETATM   37  C   UNL     1      40.502  -8.844  13.265  1.00  0.00    -0.023 A 
HETATM   38  C   UNL     1      38.507  -7.279  14.476  1.00  0.00     0.001 A 
HETATM   39  C   UNL     1      38.306  -7.794  13.198  1.00  0.00     0.001 A 
HETATM   40  C   UNL     1      39.298  -8.570  12.595  1.00  0.00     0.012 A 
HETATM   41  C   UNL     1      41.512  -9.622  12.674  1.00  0.00     0.049 A 
ENDBRANCH  31  32
ENDBRANCH  30  31
ENDBRANCH  27  30
ENDBRANCH   1  24
TORSDOF 7
ENDMDL
MODEL 8
REMARK VINA RESULT:      -9.5      7.346     11.389
REMARK  7 active torsions:
REMARK  status: ('A' for Active; 'I' for Inactive)
REMARK    1  A    between atoms: C_9  and  O_10 
REMARK    2  A    between atoms: O_10  and  C_11 
REMARK    3  A    between atoms: C_11  and  C_12 
REMARK    4  A    between atoms: C_15  and  C_16 
REMARK       I    between atoms: C_16  and  N_17 
REMARK    5  A    between atoms: N_17  and  N_18 
REMARK    6  A    between atoms: C_19  and  N_20 
REMARK    7  A    between atoms: C_21  and  C_22 
ROOT
HETATM    1  C   UNL     1      41.905 -14.120   1.804  1.00  0.00     0.270 C 
HETATM    2  N   UNL     1      41.176 -14.789   0.837  1.00  0.00    -0.262 N 
HETATM    3  O   UNL     1      42.463 -13.037   1.644  1.00  0.00    -0.266 OA
HETATM    4  H   UNL     1      40.789 -15.720   0.961  1.00  0.00     0.190 HD
ENDROOT
BRANCH   2   5
HETATM    5  N   UNL     1      40.921 -14.204  -0.412  1.00  0.00    -0.270 N 
HETATM    6  C   UNL     1      39.610 -13.983  -0.830  1.00  0.00     0.113 C 
HETATM    7  C   UNL     1      39.490 -13.976  -2.174  1.00  0.00     0.097 C 
HETATM    8  C   UNL     1      40.839 -14.306  -2.695  1.00  0.00     0.186 C 
HETATM    9  O   UNL     1      41.098 -14.394  -3.889  1.00  0.00    -0.290 OA
HETATM   10  C   UNL     1      41.796 -14.539  -1.544  1.00  0.00     0.234 C 
BRANCH   6  11
HETATM   11  N   UNL     1      38.591 -13.795   0.078  1.00  0.00    -0.286 NA
HETATM   12  H   UNL     1      38.099 -14.672   0.228  1.00  0.00     0.125 HD
HETATM   13  H   UNL     1      38.964 -13.435   0.965  1.00  0.00     0.125 HD
ENDBRANCH   6  11
BRANCH   7  14
HETATM   14  C   UNL     1      38.328 -13.729  -2.924  1.00  0.00     0.146 A 
HETATM   15  N   UNL     1      37.632 -14.517  -3.726  1.00  0.00    -0.228 NA
HETATM   16  C   UNL     1      36.575 -13.758  -4.171  1.00  0.00     0.086 A 
HETATM   17  C   UNL     1      36.616 -12.481  -3.626  1.00  0.00     0.062 A 
HETATM   18  C   UNL     1      35.529 -14.095  -5.042  1.00  0.00     0.034 A 
HETATM   19  N   UNL     1      37.740 -12.486  -2.842  1.00  0.00    -0.338 N 
HETATM   20  C   UNL     1      35.662 -11.497  -3.894  1.00  0.00     0.032 A 
HETATM   21  H   UNL     1      38.086 -11.715  -2.282  1.00  0.00     0.167 HD
HETATM   22  C   UNL     1      34.624 -11.853  -4.764  1.00  0.00     0.002 A 
HETATM   23  C   UNL     1      34.556 -13.128  -5.330  1.00  0.00     0.002 A 
ENDBRANCH   7  14
ENDBRANCH   2   5
BRANCH   1  24
HETATM   24  C   UNL     1      42.051 -14.832   3.100  1.00  0.00     0.033 A 
HETATM   25  C   UNL     1      41.164 -15.877   3.385  1.00  0.00     0.017 A 
HETATM   26  C   UNL     1      41.263 -16.571   4.592  1.00  0.00     0.010 A 
HETATM   27  C   UNL     1      42.255 -16.237   5.526  1.00  0.00    -0.034 A 
HETATM   28  C   UNL     1      43.161 -15.211   5.220  1.00  0.00     0.010 A 
HETATM   29  C   UNL     1      43.060 -14.508   4.015  1.00  0.00     0.017 A 
BRANCH  27  30
HETATM   30  C   UNL     1      42.354 -17.002   6.825  1.00  0.00     0.214 C 
BRANCH  30  31
HETATM   31  O   UNL     1      43.672 -17.538   6.929  1.00  0.00    -0.347 OA
BRANCH  31  32
HETATM   32  C   UNL     1      43.866 -18.808   6.462  1.00  0.00     0.070 A 
HETATM   33  C   UNL     1      43.855 -19.974   7.225  1.00  0.00     0.037 A 
HETATM   34  C   UNL     1      44.061 -21.216   6.614  1.00  0.00     0.015 A 
HETATM   35  C   UNL     1      44.286 -21.312   5.232  1.00  0.00    -0.026 A 
HETATM   36  C   UNL     1      44.493 -22.551   4.606  1.00  0.00     0.012 A 
HETATM   37  C   UNL     1      44.305 -20.132   4.456  1.00  0.00    -0.023 A 
HETATM   38  C   UNL     1      44.717 -22.627   3.230  1.00  0.00     0.001 A 
HETATM   39  C   UNL     1      44.739 -21.465   2.465  1.00  0.00     0.001 A 
HETATM   40  C   UNL     1      44.533 -20.225   3.073  1.00  0.00     0.012 A 
HETATM   41  C   UNL     1      44.095 -18.894   5.086  1.00  0.00     0.049 A 
ENDBRANCH  31  32
ENDBRANCH  30  31
ENDBRANCH  27  30
ENDBRANCH   1  24
TORSDOF 7
ENDMDL
MODEL 9
REMARK VINA RESULT:      -9.4      6.640     10.592
REMARK  7 active torsions:
REMARK  status: ('A' for Active; 'I' for Inactive)
REMARK    1  A    between atoms: C_9  and  O_10 
REMARK    2  A    between atoms: O_10  and  C_11 
REMARK    3  A    between atoms: C_11  and  C_12 
REMARK    4  A    between atoms: C_15  and  C_16 
REMARK       I    between atoms: C_16  and  N_17 
REMARK    5  A    between atoms: N_17  and  N_18 
REMARK    6  A    between atoms: C_19  and  N_20 
REMARK    7  A    between atoms: C_21  and  C_22 
ROOT
HETATM    1  C   UNL     1      40.782 -13.713   3.908  1.00  0.00     0.270 C 
HETATM    2  N   UNL     1      41.091 -13.931   2.576  1.00  0.00    -0.262 N 
HETATM    3  O   UNL     1      40.118 -12.770   4.332  1.00  0.00    -0.266 OA
HETATM    4  H   UNL     1      41.707 -14.671   2.250  1.00  0.00     0.190 HD
ENDROOT
BRANCH   2   5
HETATM    5  N   UNL     1      40.555 -13.119   1.566  1.00  0.00    -0.270 N 
HETATM    6  C   UNL     1      39.605 -13.630   0.683  1.00  0.00     0.113 C 
HETATM    7  C   UNL     1      39.615 -12.998  -0.509  1.00  0.00     0.097 C 
HETATM    8  C   UNL     1      40.735 -12.029  -0.436  1.00  0.00     0.186 C 
HETATM    9  O   UNL     1      41.042 -11.281  -1.357  1.00  0.00    -0.290 OA
HETATM   10  C   UNL     1      41.429 -12.139   0.905  1.00  0.00     0.234 C 
BRANCH   6  11
HETATM   11  N   UNL     1      38.773 -14.666   1.047  1.00  0.00    -0.286 NA
HETATM   12  H   UNL     1      38.433 -15.141   0.215  1.00  0.00     0.125 HD
HETATM   13  H   UNL     1      39.269 -15.325   1.661  1.00  0.00     0.125 HD
ENDBRANCH   6  11
BRANCH   7  14
HETATM   14  C   UNL     1      38.757 -13.223  -1.599  1.00  0.00     0.146 A 
HETATM   15  N   UNL     1      38.376 -14.346  -2.183  1.00  0.00    -0.228 NA
HETATM   16  C   UNL     1      37.507 -13.973  -3.182  1.00  0.00     0.086 A 
HETATM   17  C   UNL     1      37.346 -12.593  -3.209  1.00  0.00     0.062 A 
HETATM   18  C   UNL     1      36.810 -14.761  -4.109  1.00  0.00     0.034 A 
HETATM   19  N   UNL     1      38.152 -12.140  -2.198  1.00  0.00    -0.338 N 
HETATM   20  C   UNL     1      36.513 -11.932  -4.114  1.00  0.00     0.032 A 
HETATM   21  H   UNL     1      38.282 -11.174  -1.920  1.00  0.00     0.167 HD
HETATM   22  C   UNL     1      35.823 -12.735  -5.031  1.00  0.00     0.002 A 
HETATM   23  C   UNL     1      35.967 -14.125  -5.031  1.00  0.00     0.002 A 
ENDBRANCH   7  14
ENDBRANCH   2   5
BRANCH   1  24
HETATM   24  C   UNL     1      41.371 -14.683   4.867  1.00  0.00     0.033 A 
HETATM   25  C   UNL     1      40.517 -15.594   5.496  1.00  0.00     0.017 A 
HETATM   26  C   UNL     1      41.029 -16.521   6.407  1.00  0.00     0.010 A 
HETATM   27  C   UNL     1      42.401 -16.555   6.692  1.00  0.00    -0.034 A 
HETATM   28  C   UNL     1      43.257 -15.659   6.033  1.00  0.00     0.010 A 
HETATM   29  C   UNL     1      42.747 -14.725   5.127  1.00  0.00     0.017 A 
BRANCH  27  30
HETATM   30  C   UNL     1      42.942 -17.568   7.675  1.00  0.00     0.214 C 
BRANCH  30  31
HETATM   31  O   UNL     1      44.221 -17.998   7.215  1.00  0.00    -0.347 OA
BRANCH  31  32
HETATM   32  C   UNL     1      44.261 -19.139   6.462  1.00  0.00     0.070 A 
HETATM   33  C   UNL     1      44.230 -20.445   6.947  1.00  0.00     0.037 A 
HETATM   34  C   UNL     1      44.269 -21.526   6.059  1.00  0.00     0.015 A 
HETATM   35  C   UNL     1      44.343 -21.319   4.673  1.00  0.00    -0.026 A 
HETATM   36  C   UNL     1      44.382 -22.394   3.771  1.00  0.00     0.012 A 
HETATM   37  C   UNL     1      44.382 -19.998   4.177  1.00  0.00    -0.023 A 
HETATM   38  C   UNL     1      44.457 -22.169   2.396  1.00  0.00     0.001 A 
HETATM   39  C   UNL     1      44.498 -20.867   1.906  1.00  0.00     0.001 A 
HETATM   40  C   UNL     1      44.459 -19.787   2.791  1.00  0.00     0.012 A 
HETATM   41  C   UNL     1      44.341 -18.924   5.083  1.00  0.00     0.049 A 
ENDBRANCH  31  32
ENDBRANCH  30  31
ENDBRANCH  27  30
ENDBRANCH   1  24
TORSDOF 7
ENDMDL
MODEL 10
REMARK VINA RESULT:      -9.2      8.565     13.279
REMARK  7 active torsions:
REMARK  status: ('A' for Active; 'I' for Inactive)
REMARK    1  A    between atoms: C_9  and  O_10 
REMARK    2  A    between atoms: O_10  and  C_11 
REMARK    3  A    between atoms: C_11  and  C_12 
REMARK    4  A    between atoms: C_15  and  C_16 
REMARK       I    between atoms: C_16  and  N_17 
REMARK    5  A    between atoms: N_17  and  N_18 
REMARK    6  A    between atoms: C_19  and  N_20 
REMARK    7  A    between atoms: C_21  and  C_22 
ROOT
HETATM    1  C   UNL     1      38.320 -13.937   0.045  1.00  0.00     0.270 C 
HETATM    2  N   UNL     1      38.514 -13.371  -1.203  1.00  0.00    -0.262 N 
HETATM    3  O   UNL     1      37.234 -14.050   0.607  1.00  0.00    -0.266 OA
HETATM    4  H   UNL     1      39.428 -13.214  -1.619  1.00  0.00     0.190 HD
ENDROOT
BRANCH   2   5
HETATM    5  N   UNL     1      37.427 -12.968  -1.992  1.00  0.00    -0.270 N 
HETATM    6  C   UNL     1      37.202 -13.561  -3.234  1.00  0.00     0.113 C 
HETATM    7  C   UNL     1      36.548 -12.744  -4.086  1.00  0.00     0.097 C 
HETATM    8  C   UNL     1      36.398 -11.457  -3.365  1.00  0.00     0.186 C 
HETATM    9  O   UNL     1      35.849 -10.473  -3.847  1.00  0.00    -0.290 OA
HETATM   10  C   UNL     1      37.042 -11.550  -1.997  1.00  0.00     0.234 C 
BRANCH   6  11
HETATM   11  N   UNL     1      37.622 -14.845  -3.501  1.00  0.00    -0.286 NA
HETATM   12  H   UNL     1      38.491 -15.032  -3.008  1.00  0.00     0.125 HD
HETATM   13  H   UNL     1      36.899 -15.523  -3.225  1.00  0.00     0.125 HD
ENDBRANCH   6  11
BRANCH   7  14
HETATM   14  C   UNL     1      36.116 -13.042  -5.389  1.00  0.00     0.146 A 
HETATM   15  N   UNL     1      35.706 -14.178  -5.925  1.00  0.00    -0.228 NA
HETATM   16  C   UNL     1      35.379 -13.881  -7.228  1.00  0.00     0.086 A 
HETATM   17  C   UNL     1      35.586 -12.533  -7.496  1.00  0.00     0.062 A 
HETATM   18  C   UNL     1      34.892 -14.713  -8.246  1.00  0.00     0.034 A 
HETATM   19  N   UNL     1      36.057 -12.024  -6.315  1.00  0.00    -0.338 N 
HETATM   20  C   UNL     1      35.328 -11.946  -8.736  1.00  0.00     0.032 A 
HETATM   21  H   UNL     1      36.312 -11.059  -6.135  1.00  0.00     0.167 HD
HETATM   22  C   UNL     1      34.840 -12.792  -9.740  1.00  0.00     0.002 A 
HETATM   23  C   UNL     1      34.625 -14.152  -9.502  1.00  0.00     0.002 A 
ENDBRANCH   7  14
ENDBRANCH   2   5
BRANCH   1  24
HETATM   24  C   UNL     1      39.556 -14.371   0.748  1.00  0.00     0.033 A 
HETATM   25  C   UNL     1      40.777 -13.826   0.337  1.00  0.00     0.017 A 
HETATM   26  C   UNL     1      41.963 -14.208   0.968  1.00  0.00     0.010 A 
HETATM   27  C   UNL     1      41.942 -15.131   2.023  1.00  0.00    -0.034 A 
HETATM   28  C   UNL     1      40.710 -15.649   2.451  1.00  0.00     0.010 A 
HETATM   29  C   UNL     1      39.522 -15.275   1.816  1.00  0.00     0.017 A 
BRANCH  27  30
HETATM   30  C   UNL     1      43.232 -15.530   2.700  1.00  0.00     0.214 C 
BRANCH  30  31
HETATM   31  O   UNL     1      42.910 -16.231   3.899  1.00  0.00    -0.347 OA
BRANCH  31  32
HETATM   32  C   UNL     1      43.424 -17.490   4.042  1.00  0.00     0.070 A 
HETATM   33  C   UNL     1      44.102 -17.979   5.157  1.00  0.00     0.037 A 
HETATM   34  C   UNL     1      44.569 -19.298   5.173  1.00  0.00     0.015 A 
HETATM   35  C   UNL     1      44.370 -20.147   4.074  1.00  0.00    -0.026 A 
HETATM   36  C   UNL     1      44.833 -21.473   4.076  1.00  0.00     0.012 A 
HETATM   37  C   UNL     1      43.690 -19.654   2.939  1.00  0.00    -0.023 A 
HETATM   38  C   UNL     1      44.628 -22.303   2.973  1.00  0.00     0.001 A 
HETATM   39  C   UNL     1      43.959 -21.817   1.854  1.00  0.00     0.001 A 
HETATM   40  C   UNL     1      43.492 -20.501   1.836  1.00  0.00     0.012 A 
HETATM   41  C   UNL     1      43.226 -18.328   2.941  1.00  0.00     0.049 A 
ENDBRANCH  31  32
ENDBRANCH  30  31
ENDBRANCH  27  30
ENDBRANCH   1  24
TORSDOF 7
ENDMDL
