MODEL 1
REMARK VINA RESULT:      -8.2      0.000      0.000
REMARK  5 active torsions:
REMARK  status: ('A' for Active; 'I' for Inactive)
REMARK    1  A    between atoms: C_2  and  N_3 
REMARK       I    between atoms: N_3  and  C_4 
REMARK    2  A    between atoms: C_4  and  C_5 
REMARK    3  A    between atoms: C_8  and  N_9 
REMARK       I    between atoms: N_9  and  C_10 
REMARK       I    between atoms: C_10  and  N_11 
REMARK    4  A    between atoms: N_11  and  C_12 
REMARK    5  A    between atoms: C_17  and  C_18 
ROOT
HETATM    1  N   UNL     1      41.701 -14.833  -0.646  1.00  0.00    -0.309 N 
HETATM    2  C   UNL     1      41.626 -15.597   0.511  1.00  0.00     0.325 C 
HETATM    3  N   UNL     1      42.901 -15.981   0.905  1.00  0.00    -0.308 N 
HETATM    4  O   UNL     1      40.587 -15.922   1.067  1.00  0.00    -0.247 OA
HETATM    5  H   UNL     1      42.580 -14.366  -0.813  1.00  0.00     0.170 HD
HETATM    6  H   UNL     1      43.602 -15.897   0.188  1.00  0.00     0.170 HD
ENDROOT
BRANCH   1   7
HETATM    7  C   UNL     1      40.652 -14.541  -1.541  1.00  0.00     0.036 A 
HETATM    8  C   UNL     1      39.740 -13.500  -1.351  1.00  0.00     0.030 A 
HETATM    9  C   UNL     1      38.665 -13.322  -2.229  1.00  0.00     0.019 A 
HETATM   10  C   UNL     1      38.480 -14.198  -3.302  1.00  0.00     0.032 A 
HETATM   11  C   UNL     1      39.412 -15.217  -3.521  1.00  0.00     0.019 A 
HETATM   12  C   UNL     1      40.489 -15.390  -2.644  1.00  0.00     0.030 A 
BRANCH  10  13
HETATM   13  C   UNL     1      37.311 -14.092  -4.220  1.00  0.00     0.251 C 
HETATM   14  N   UNL     1      36.929 -12.812  -4.573  1.00  0.00    -0.357 N 
HETATM   15  H   UNL     1      37.340 -12.024  -4.093  1.00  0.00     0.162 HD
HETATM   16  O   UNL     1      36.716 -15.102  -4.577  1.00  0.00    -0.268 OA
BRANCH  14  17
HETATM   17  C   UNL     1      35.729 -12.566  -5.346  1.00  0.00     0.118 C 
HETATM   18  C   UNL     1      34.555 -12.218  -4.449  1.00  0.00     0.026 C 
ENDBRANCH  14  17
ENDBRANCH  10  13
ENDBRANCH   1   7
BRANCH   3  19
HETATM   19  C   UNL     1      43.243 -16.779   2.025  1.00  0.00     0.043 A 
HETATM   20  C   UNL     1      43.330 -16.167   3.295  1.00  0.00    -0.035 A 
HETATM   21  C   UNL     1      43.067 -14.699   3.505  1.00  0.00     0.050 C 
HETATM   22  C   UNL     1      43.705 -16.940   4.404  1.00  0.00     0.010 A 
HETATM   23  C   UNL     1      43.976 -18.302   4.267  1.00  0.00     0.016 A 
HETATM   24  C   UNL     1      43.867 -18.929   3.022  1.00  0.00     0.019 A 
HETATM   25  C   UNL     1      43.496 -18.154   1.911  1.00  0.00     0.046 A 
BRANCH  24  26
HETATM   26  C   UNL     1      44.149 -20.357   2.911  1.00  0.00     0.179 A 
HETATM   27  O   UNL     1      43.899 -20.951   1.699  1.00  0.00    -0.302 OA
HETATM   28  C   UNL     1      44.244 -22.255   1.887  1.00  0.00     0.163 A 
HETATM   29  C   UNL     1      44.679 -22.396   3.179  1.00  0.00     0.144 A 
HETATM   30  N   UNL     1      44.612 -21.190   3.829  1.00  0.00    -0.234 NA
ENDBRANCH  24  26
ENDBRANCH   3  19
TORSDOF 5
ENDMDL
MODEL 2
REMARK VINA RESULT:      -7.8      7.419     11.255
REMARK  5 active torsions:
REMARK  status: ('A' for Active; 'I' for Inactive)
REMARK    1  A    between atoms: C_2  and  N_3 
REMARK       I    between atoms: N_3  and  C_4 
REMARK    2  A    between atoms: C_4  and  C_5 
REMARK    3  A    between atoms: C_8  and  N_9 
REMARK       I    between atoms: N_9  and  C_10 
REMARK       I    between atoms: C_10  and  N_11 
REMARK    4  A    between atoms: N_11  and  C_12 
REMARK    5  A    between atoms: C_17  and  C_18 
ROOT
HETATM    1  N   UNL     1      43.847 -15.041   6.286  1.00  0.00    -0.309 N 
HETATM    2  C   UNL     1      44.024 -14.532   7.566  1.00  0.00     0.325 C 
HETATM    3  N   UNL     1      44.155 -13.152   7.511  1.00  0.00    -0.308 N 
HETATM    4  O   UNL     1      44.100 -15.210   8.581  1.00  0.00    -0.247 OA
HETATM    5  H   UNL     1      43.475 -14.399   5.602  1.00  0.00     0.170 HD
HETATM    6  H   UNL     1      44.375 -12.790   6.598  1.00  0.00     0.170 HD
ENDROOT
BRANCH   1   7
HETATM    7  C   UNL     1      44.013 -16.378   5.872  1.00  0.00     0.036 A 
HETATM    8  C   UNL     1      44.674 -17.346   6.632  1.00  0.00     0.030 A 
HETATM    9  C   UNL     1      44.886 -18.632   6.122  1.00  0.00     0.019 A 
HETATM   10  C   UNL     1      44.451 -18.960   4.834  1.00  0.00     0.032 A 
HETATM   11  C   UNL     1      43.754 -18.007   4.085  1.00  0.00     0.019 A 
HETATM   12  C   UNL     1      43.540 -16.724   4.600  1.00  0.00     0.030 A 
BRANCH  10  13
HETATM   13  C   UNL     1      44.718 -20.292   4.223  1.00  0.00     0.251 C 
HETATM   14  N   UNL     1      44.503 -20.392   2.862  1.00  0.00    -0.357 N 
HETATM   15  H   UNL     1      44.042 -19.633   2.379  1.00  0.00     0.162 HD
HETATM   16  O   UNL     1      45.058 -21.235   4.928  1.00  0.00    -0.268 OA
BRANCH  14  17
HETATM   17  C   UNL     1      44.593 -21.661   2.172  1.00  0.00     0.118 C 
HETATM   18  C   UNL     1      43.317 -21.968   1.409  1.00  0.00     0.026 C 
ENDBRANCH  14  17
ENDBRANCH  10  13
ENDBRANCH   1   7
BRANCH   3  19
HETATM   19  C   UNL     1      44.365 -12.271   8.601  1.00  0.00     0.043 A 
HETATM   20  C   UNL     1      45.669 -11.786   8.841  1.00  0.00    -0.035 A 
HETATM   21  C   UNL     1      46.845 -12.166   7.980  1.00  0.00     0.050 C 
HETATM   22  C   UNL     1      45.895 -10.942   9.939  1.00  0.00     0.010 A 
HETATM   23  C   UNL     1      44.847 -10.569  10.781  1.00  0.00     0.016 A 
HETATM   24  C   UNL     1      43.545 -11.017  10.540  1.00  0.00     0.019 A 
HETATM   25  C   UNL     1      43.320 -11.865   9.443  1.00  0.00     0.046 A 
BRANCH  24  26
HETATM   26  C   UNL     1      42.467 -10.602  11.434  1.00  0.00     0.179 A 
HETATM   27  O   UNL     1      41.198 -10.572  10.910  1.00  0.00    -0.302 OA
HETATM   28  C   UNL     1      40.418 -10.156  11.944  1.00  0.00     0.163 A 
HETATM   29  C   UNL     1      41.228  -9.954  13.032  1.00  0.00     0.144 A 
HETATM   30  N   UNL     1      42.530 -10.233  12.702  1.00  0.00    -0.234 NA
ENDBRANCH  24  26
ENDBRANCH   3  19
TORSDOF 5
ENDMDL
MODEL 3
REMARK VINA RESULT:      -7.8      3.377     10.068
REMARK  5 active torsions:
REMARK  status: ('A' for Active; 'I' for Inactive)
REMARK    1  A    between atoms: C_2  and  N_3 
REMARK       I    between atoms: N_3  and  C_4 
REMARK    2  A    between atoms: C_4  and  C_5 
REMARK    3  A    between atoms: C_8  and  N_9 
REMARK       I    between atoms: N_9  and  C_10 
REMARK       I    between atoms: C_10  and  N_11 
REMARK    4  A    between atoms: N_11  and  C_12 
REMARK    5  A    between atoms: C_17  and  C_18 
ROOT
HETATM    1  N   UNL     1      41.942 -16.650   0.016  1.00  0.00    -0.309 N 
HETATM    2  C   UNL     1      41.706 -15.291  -0.147  1.00  0.00     0.325 C 
HETATM    3  N   UNL     1      41.718 -14.969  -1.497  1.00  0.00    -0.308 N 
HETATM    4  O   UNL     1      41.560 -14.493   0.768  1.00  0.00    -0.247 OA
HETATM    5  H   UNL     1      41.716 -17.236  -0.773  1.00  0.00     0.170 HD
HETATM    6  H   UNL     1      42.148 -15.662  -2.087  1.00  0.00     0.170 HD
ENDROOT
BRANCH   1   7
HETATM    7  C   UNL     1      42.341 -17.307   1.197  1.00  0.00     0.036 A 
HETATM    8  C   UNL     1      41.588 -17.308   2.374  1.00  0.00     0.030 A 
HETATM    9  C   UNL     1      42.085 -17.901   3.540  1.00  0.00     0.019 A 
HETATM   10  C   UNL     1      43.353 -18.489   3.545  1.00  0.00     0.032 A 
HETATM   11  C   UNL     1      44.094 -18.527   2.360  1.00  0.00     0.019 A 
HETATM   12  C   UNL     1      43.592 -17.937   1.195  1.00  0.00     0.030 A 
BRANCH  10  13
HETATM   13  C   UNL     1      43.953 -19.069   4.780  1.00  0.00     0.251 C 
HETATM   14  N   UNL     1      43.183 -18.993   5.924  1.00  0.00    -0.357 N 
HETATM   15  H   UNL     1      42.343 -18.432   5.917  1.00  0.00     0.162 HD
HETATM   16  O   UNL     1      45.088 -19.530   4.754  1.00  0.00    -0.268 OA
BRANCH  14  17
HETATM   17  C   UNL     1      43.702 -19.394   7.215  1.00  0.00     0.118 C 
HETATM   18  C   UNL     1      44.124 -18.192   8.040  1.00  0.00     0.026 C 
ENDBRANCH  14  17
ENDBRANCH  10  13
ENDBRANCH   1   7
BRANCH   3  19
HETATM   19  C   UNL     1      41.532 -13.687  -2.070  1.00  0.00     0.043 A 
HETATM   20  C   UNL     1      40.561 -13.529  -3.083  1.00  0.00    -0.035 A 
HETATM   21  C   UNL     1      39.710 -14.670  -3.573  1.00  0.00     0.050 C 
HETATM   22  C   UNL     1      40.395 -12.271  -3.683  1.00  0.00     0.010 A 
HETATM   23  C   UNL     1      41.166 -11.180  -3.281  1.00  0.00     0.016 A 
HETATM   24  C   UNL     1      42.112 -11.313  -2.260  1.00  0.00     0.019 A 
HETATM   25  C   UNL     1      42.280 -12.573  -1.662  1.00  0.00     0.046 A 
BRANCH  24  26
HETATM   26  C   UNL     1      42.898 -10.151  -1.854  1.00  0.00     0.179 A 
HETATM   27  O   UNL     1      42.570  -8.946  -2.424  1.00  0.00    -0.302 OA
HETATM   28  C   UNL     1      43.449  -8.064  -1.875  1.00  0.00     0.163 A 
HETATM   29  C   UNL     1      44.259  -8.756  -1.012  1.00  0.00     0.144 A 
HETATM   30  N   UNL     1      43.910 -10.083  -1.006  1.00  0.00    -0.234 NA
ENDBRANCH  24  26
ENDBRANCH   3  19
TORSDOF 5
ENDMDL
MODEL 4
REMARK VINA RESULT:      -7.8      1.853     10.032
REMARK  5 active torsions:
REMARK  status: ('A' for Active; 'I' for Inactive)
REMARK    1  A    between atoms: C_2  and  N_3 
REMARK       I    between atoms: N_3  and  C_4 
REMARK    2  A    between atoms: C_4  and  C_5 
REMARK    3  A    between atoms: C_8  and  N_9 
REMARK       I    between atoms: N_9  and  C_10 
REMARK       I    between atoms: C_10  and  N_11 
REMARK    4  A    between atoms: N_11  and  C_12 
REMARK    5  A    between atoms: C_17  and  C_18 
ROOT
HETATM    1  N   UNL     1      42.720 -16.693   0.289  1.00  0.00    -0.309 N 
HETATM    2  C   UNL     1      41.595 -15.881   0.226  1.00  0.00     0.325 C 
HETATM    3  N   UNL     1      41.698 -15.014  -0.852  1.00  0.00    -0.308 N 
HETATM    4  O   UNL     1      40.676 -15.900   1.033  1.00  0.00    -0.247 OA
HETATM    5  H   UNL     1      43.222 -16.821  -0.577  1.00  0.00     0.170 HD
HETATM    6  H   UNL     1      42.630 -14.917  -1.221  1.00  0.00     0.170 HD
ENDROOT
BRANCH   1   7
HETATM    7  C   UNL     1      43.162 -17.450   1.392  1.00  0.00     0.036 A 
HETATM    8  C   UNL     1      43.314 -18.839   1.366  1.00  0.00     0.030 A 
HETATM    9  C   UNL     1      43.667 -19.541   2.523  1.00  0.00     0.019 A 
HETATM   10  C   UNL     1      43.855 -18.860   3.730  1.00  0.00     0.032 A 
HETATM   11  C   UNL     1      43.744 -17.467   3.753  1.00  0.00     0.019 A 
HETATM   12  C   UNL     1      43.396 -16.767   2.593  1.00  0.00     0.030 A 
BRANCH  10  13
HETATM   13  C   UNL     1      44.161 -19.573   5.002  1.00  0.00     0.251 C 
HETATM   14  N   UNL     1      43.440 -19.175   6.111  1.00  0.00    -0.357 N 
HETATM   15  H   UNL     1      42.868 -18.343   6.056  1.00  0.00     0.162 HD
HETATM   16  O   UNL     1      45.044 -20.422   5.035  1.00  0.00    -0.268 OA
BRANCH  14  17
HETATM   17  C   UNL     1      43.735 -19.690   7.432  1.00  0.00     0.118 C 
HETATM   18  C   UNL     1      44.247 -18.596   8.351  1.00  0.00     0.026 C 
ENDBRANCH  14  17
ENDBRANCH  10  13
ENDBRANCH   1   7
BRANCH   3  19
HETATM   19  C   UNL     1      40.764 -14.023  -1.243  1.00  0.00     0.043 A 
HETATM   20  C   UNL     1      40.909 -12.714  -0.733  1.00  0.00    -0.035 A 
HETATM   21  C   UNL     1      42.022 -12.330   0.206  1.00  0.00     0.050 C 
HETATM   22  C   UNL     1      39.967 -11.734  -1.085  1.00  0.00     0.010 A 
HETATM   23  C   UNL     1      38.906 -12.036  -1.938  1.00  0.00     0.016 A 
HETATM   24  C   UNL     1      38.765 -13.320  -2.474  1.00  0.00     0.019 A 
HETATM   25  C   UNL     1      39.705 -14.301  -2.119  1.00  0.00     0.046 A 
BRANCH  24  26
HETATM   26  C   UNL     1      37.649 -13.604  -3.372  1.00  0.00     0.179 A 
HETATM   27  O   UNL     1      36.922 -12.530  -3.823  1.00  0.00    -0.302 OA
HETATM   28  C   UNL     1      35.967 -13.082  -4.621  1.00  0.00     0.163 A 
HETATM   29  C   UNL     1      36.148 -14.441  -4.620  1.00  0.00     0.144 A 
HETATM   30  N   UNL     1      37.214 -14.769  -3.820  1.00  0.00    -0.234 NA
ENDBRANCH  24  26
ENDBRANCH   3  19
TORSDOF 5
ENDMDL
MODEL 5
REMARK VINA RESULT:      -7.7      2.037      2.773
REMARK  5 active torsions:
REMARK  status: ('A' for Active; 'I' for Inactive)
REMARK    1  A    between atoms: C_2  and  N_3 
REMARK       I    between atoms: N_3  and  C_4 
REMARK    2  A    between atoms: C_4  and  C_5 
REMARK    3  A    between atoms: C_8  and  N_9 
REMARK       I    between atoms: N_9  and  C_10 
REMARK       I    between atoms: C_10  and  N_11 
REMARK    4  A    between atoms: N_11  and  C_12 
REMARK    5  A    between atoms: C_17  and  C_18 
ROOT
HETATM    1  N   UNL     1      41.478 -14.706   2.645  1.00  0.00    -0.309 N 
HETATM    2  C   UNL     1      41.900 -15.943   3.115  1.00  0.00     0.325 C 
HETATM    3  N   UNL     1      42.822 -15.769   4.138  1.00  0.00    -0.308 N 
HETATM    4  O   UNL     1      41.545 -17.020   2.658  1.00  0.00    -0.247 OA
HETATM    5  H   UNL     1      41.567 -13.934   3.289  1.00  0.00     0.170 HD
HETATM    6  H   UNL     1      43.227 -14.849   4.181  1.00  0.00     0.170 HD
ENDROOT
BRANCH   1   7
HETATM    7  C   UNL     1      40.828 -14.437   1.423  1.00  0.00     0.036 A 
HETATM    8  C   UNL     1      39.456 -14.200   1.313  1.00  0.00     0.030 A 
HETATM    9  C   UNL     1      38.859 -14.032   0.059  1.00  0.00     0.019 A 
HETATM   10  C   UNL     1      39.629 -14.116  -1.105  1.00  0.00     0.032 A 
HETATM   11  C   UNL     1      41.009 -14.312  -0.998  1.00  0.00     0.019 A 
HETATM   12  C   UNL     1      41.604 -14.476   0.258  1.00  0.00     0.030 A 
BRANCH  10  13
HETATM   13  C   UNL     1      39.025 -14.016  -2.464  1.00  0.00     0.251 C 
HETATM   14  N   UNL     1      38.181 -15.045  -2.833  1.00  0.00    -0.357 N 
HETATM   15  H   UNL     1      38.129 -15.871  -2.254  1.00  0.00     0.162 HD
HETATM   16  O   UNL     1      39.326 -13.085  -3.203  1.00  0.00    -0.268 OA
BRANCH  14  17
HETATM   17  C   UNL     1      37.640 -15.137  -4.172  1.00  0.00     0.118 C 
HETATM   18  C   UNL     1      36.317 -14.400  -4.287  1.00  0.00     0.026 C 
ENDBRANCH  14  17
ENDBRANCH  10  13
ENDBRANCH   1   7
BRANCH   3  19
HETATM   19  C   UNL     1      43.494 -16.784   4.862  1.00  0.00     0.043 A 
HETATM   20  C   UNL     1      44.042 -16.470   6.125  1.00  0.00    -0.035 A 
HETATM   21  C   UNL     1      43.933 -15.097   6.734  1.00  0.00     0.050 C 
HETATM   22  C   UNL     1      44.742 -17.458   6.834  1.00  0.00     0.010 A 
HETATM   23  C   UNL     1      44.888 -18.743   6.312  1.00  0.00     0.016 A 
HETATM   24  C   UNL     1      44.327 -19.079   5.075  1.00  0.00     0.019 A 
HETATM   25  C   UNL     1      43.630 -18.089   4.365  1.00  0.00     0.046 A 
BRANCH  24  26
HETATM   26  C   UNL     1      44.489 -20.435   4.559  1.00  0.00     0.179 A 
HETATM   27  O   UNL     1      44.686 -21.434   5.480  1.00  0.00    -0.302 OA
HETATM   28  C   UNL     1      44.804 -22.564   4.730  1.00  0.00     0.163 A 
HETATM   29  C   UNL     1      44.679 -22.212   3.411  1.00  0.00     0.144 A 
HETATM   30  N   UNL     1      44.485 -20.857   3.306  1.00  0.00    -0.234 NA
ENDBRANCH  24  26
ENDBRANCH   3  19
TORSDOF 5
ENDMDL
MODEL 6
REMARK VINA RESULT:      -7.6      6.258     10.624
REMARK  5 active torsions:
REMARK  status: ('A' for Active; 'I' for Inactive)
REMARK    1  A    between atoms: C_2  and  N_3 
REMARK       I    between atoms: N_3  and  C_4 
REMARK    2  A    between atoms: C_4  and  C_5 
REMARK    3  A    between atoms: C_8  and  N_9 
REMARK       I    between atoms: N_9  and  C_10 
REMARK       I    between atoms: C_10  and  N_11 
REMARK    4  A    between atoms: N_11  and  C_12 
REMARK    5  A    between atoms: C_17  and  C_18 
ROOT
HETATM    1  N   UNL     1      40.134 -15.468   5.765  1.00  0.00    -0.309 N 
HETATM    2  C   UNL     1      40.521 -14.185   6.129  1.00  0.00     0.325 C 
HETATM    3  N   UNL     1      39.407 -13.444   6.500  1.00  0.00    -0.308 N 
HETATM    4  O   UNL     1      41.667 -13.763   6.081  1.00  0.00    -0.247 OA
HETATM    5  H   UNL     1      39.260 -15.794   6.151  1.00  0.00     0.170 HD
HETATM    6  H   UNL     1      38.529 -13.830   6.195  1.00  0.00     0.170 HD
ENDROOT
BRANCH   1   7
HETATM    7  C   UNL     1      40.881 -16.403   5.021  1.00  0.00     0.036 A 
HETATM    8  C   UNL     1      41.620 -17.438   5.600  1.00  0.00     0.030 A 
HETATM    9  C   UNL     1      42.416 -18.276   4.812  1.00  0.00     0.019 A 
HETATM   10  C   UNL     1      42.495 -18.075   3.430  1.00  0.00     0.032 A 
HETATM   11  C   UNL     1      41.727 -17.067   2.840  1.00  0.00     0.019 A 
HETATM   12  C   UNL     1      40.928 -16.234   3.632  1.00  0.00     0.030 A 
BRANCH  10  13
HETATM   13  C   UNL     1      43.385 -18.895   2.560  1.00  0.00     0.251 C 
HETATM   14  N   UNL     1      43.853 -20.074   3.107  1.00  0.00    -0.357 N 
HETATM   15  H   UNL     1      43.708 -20.254   4.090  1.00  0.00     0.162 HD
HETATM   16  O   UNL     1      43.703 -18.488   1.448  1.00  0.00    -0.268 OA
BRANCH  14  17
HETATM   17  C   UNL     1      44.831 -20.892   2.420  1.00  0.00     0.118 C 
HETATM   18  C   UNL     1      44.163 -21.988   1.608  1.00  0.00     0.026 C 
ENDBRANCH  14  17
ENDBRANCH  10  13
ENDBRANCH   1   7
BRANCH   3  19
HETATM   19  C   UNL     1      39.384 -12.091   6.919  1.00  0.00     0.043 A 
HETATM   20  C   UNL     1      39.422 -11.075   5.940  1.00  0.00    -0.035 A 
HETATM   21  C   UNL     1      39.479 -11.374   4.465  1.00  0.00     0.050 C 
HETATM   22  C   UNL     1      39.436  -9.731   6.346  1.00  0.00     0.010 A 
HETATM   23  C   UNL     1      39.400  -9.394   7.699  1.00  0.00     0.016 A 
HETATM   24  C   UNL     1      39.335 -10.387   8.680  1.00  0.00     0.019 A 
HETATM   25  C   UNL     1      39.323 -11.732   8.274  1.00  0.00     0.046 A 
BRANCH  24  26
HETATM   26  C   UNL     1      39.289 -10.002  10.088  1.00  0.00     0.179 A 
HETATM   27  O   UNL     1      40.000 -10.777  10.971  1.00  0.00    -0.302 OA
HETATM   28  C   UNL     1      39.777 -10.197  12.182  1.00  0.00     0.163 A 
HETATM   29  C   UNL     1      38.955  -9.117  11.989  1.00  0.00     0.144 A 
HETATM   30  N   UNL     1      38.643  -9.000  10.658  1.00  0.00    -0.234 NA
ENDBRANCH  24  26
ENDBRANCH   3  19
TORSDOF 5
ENDMDL
MODEL 7
REMARK VINA RESULT:      -7.4      2.568     10.216
REMARK  5 active torsions:
REMARK  status: ('A' for Active; 'I' for Inactive)
REMARK    1  A    between atoms: C_2  and  N_3 
REMARK       I    between atoms: N_3  and  C_4 
REMARK    2  A    between atoms: C_4  and  C_5 
REMARK    3  A    between atoms: C_8  and  N_9 
REMARK       I    between atoms: N_9  and  C_10 
REMARK       I    between atoms: C_10  and  N_11 
REMARK    4  A    between atoms: N_11  and  C_12 
REMARK    5  A    between atoms: C_17  and  C_18 
ROOT
HETATM    1  N   UNL     1      42.878 -16.859   0.468  1.00  0.00    -0.309 N 
HETATM    2  C   UNL     1      41.646 -16.243   0.293  1.00  0.00     0.325 C 
HETATM    3  N   UNL     1      41.741 -15.271  -0.693  1.00  0.00    -0.308 N 
HETATM    4  O   UNL     1      40.643 -16.490   0.947  1.00  0.00    -0.247 OA
HETATM    5  H   UNL     1      43.509 -16.819  -0.319  1.00  0.00     0.170 HD
HETATM    6  H   UNL     1      42.682 -14.986  -0.909  1.00  0.00     0.170 HD
ENDROOT
BRANCH   1   7
HETATM    7  C   UNL     1      43.292 -17.635   1.569  1.00  0.00     0.036 A 
HETATM    8  C   UNL     1      43.400 -19.028   1.536  1.00  0.00     0.030 A 
HETATM    9  C   UNL     1      43.726 -19.747   2.691  1.00  0.00     0.019 A 
HETATM   10  C   UNL     1      43.932 -19.078   3.902  1.00  0.00     0.032 A 
HETATM   11  C   UNL     1      43.865 -17.682   3.931  1.00  0.00     0.019 A 
HETATM   12  C   UNL     1      43.543 -16.966   2.773  1.00  0.00     0.030 A 
BRANCH  10  13
HETATM   13  C   UNL     1      44.210 -19.806   5.172  1.00  0.00     0.251 C 
HETATM   14  N   UNL     1      43.546 -19.349   6.294  1.00  0.00    -0.357 N 
HETATM   15  H   UNL     1      43.038 -18.477   6.245  1.00  0.00     0.162 HD
HETATM   16  O   UNL     1      45.027 -20.720   5.191  1.00  0.00    -0.268 OA
BRANCH  14  17
HETATM   17  C   UNL     1      43.830 -19.879   7.611  1.00  0.00     0.118 C 
HETATM   18  C   UNL     1      44.252 -18.781   8.570  1.00  0.00     0.026 C 
ENDBRANCH  14  17
ENDBRANCH  10  13
ENDBRANCH   1   7
BRANCH   3  19
HETATM   19  C   UNL     1      40.708 -14.415  -1.150  1.00  0.00     0.043 A 
HETATM   20  C   UNL     1      40.052 -14.727  -2.361  1.00  0.00    -0.035 A 
HETATM   21  C   UNL     1      40.405 -15.938  -3.183  1.00  0.00     0.050 C 
HETATM   22  C   UNL     1      39.053 -13.866  -2.841  1.00  0.00     0.010 A 
HETATM   23  C   UNL     1      38.695 -12.721  -2.129  1.00  0.00     0.016 A 
HETATM   24  C   UNL     1      39.315 -12.413  -0.914  1.00  0.00     0.019 A 
HETATM   25  C   UNL     1      40.317 -13.272  -0.436  1.00  0.00     0.046 A 
BRANCH  24  26
HETATM   26  C   UNL     1      38.912 -11.211  -0.189  1.00  0.00     0.179 A 
HETATM   27  O   UNL     1      38.666 -11.347   1.155  1.00  0.00    -0.302 OA
HETATM   28  C   UNL     1      38.316 -10.095   1.560  1.00  0.00     0.163 A 
HETATM   29  C   UNL     1      38.361  -9.268   0.468  1.00  0.00     0.144 A 
HETATM   30  N   UNL     1      38.735  -9.982  -0.643  1.00  0.00    -0.234 NA
ENDBRANCH  24  26
ENDBRANCH   3  19
TORSDOF 5
ENDMDL
MODEL 8
REMARK VINA RESULT:      -7.3      2.721     10.185
REMARK  5 active torsions:
REMARK  status: ('A' for Active; 'I' for Inactive)
REMARK    1  A    between atoms: C_2  and  N_3 
REMARK       I    between atoms: N_3  and  C_4 
REMARK    2  A    between atoms: C_4  and  C_5 
REMARK    3  A    between atoms: C_8  and  N_9 
REMARK       I    between atoms: N_9  and  C_10 
REMARK       I    between atoms: C_10  and  N_11 
REMARK    4  A    between atoms: N_11  and  C_12 
REMARK    5  A    between atoms: C_17  and  C_18 
ROOT
HETATM    1  N   UNL     1      40.534 -16.250   0.988  1.00  0.00    -0.309 N 
HETATM    2  C   UNL     1      40.466 -14.908   0.638  1.00  0.00     0.325 C 
HETATM    3  N   UNL     1      39.579 -14.740  -0.417  1.00  0.00    -0.308 N 
HETATM    4  O   UNL     1      41.127 -14.018   1.154  1.00  0.00    -0.247 OA
HETATM    5  H   UNL     1      39.734 -16.813   0.741  1.00  0.00     0.170 HD
HETATM    6  H   UNL     1      39.360 -15.586  -0.916  1.00  0.00     0.170 HD
ENDROOT
BRANCH   1   7
HETATM    7  C   UNL     1      41.537 -16.879   1.753  1.00  0.00     0.036 A 
HETATM    8  C   UNL     1      42.727 -17.372   1.212  1.00  0.00     0.030 A 
HETATM    9  C   UNL     1      43.640 -18.069   2.011  1.00  0.00     0.019 A 
HETATM   10  C   UNL     1      43.362 -18.297   3.363  1.00  0.00     0.032 A 
HETATM   11  C   UNL     1      42.192 -17.771   3.918  1.00  0.00     0.019 A 
HETATM   12  C   UNL     1      41.284 -17.070   3.117  1.00  0.00     0.030 A 
BRANCH  10  13
HETATM   13  C   UNL     1      44.269 -19.096   4.234  1.00  0.00     0.251 C 
HETATM   14  N   UNL     1      44.423 -20.426   3.896  1.00  0.00    -0.357 N 
HETATM   15  H   UNL     1      43.819 -20.829   3.193  1.00  0.00     0.162 HD
HETATM   16  O   UNL     1      44.789 -18.580   5.217  1.00  0.00    -0.268 OA
BRANCH  14  17
HETATM   17  C   UNL     1      45.165 -21.341   4.737  1.00  0.00     0.118 C 
HETATM   18  C   UNL     1      44.651 -22.762   4.599  1.00  0.00     0.026 C 
ENDBRANCH  14  17
ENDBRANCH  10  13
ENDBRANCH   1   7
BRANCH   3  19
HETATM   19  C   UNL     1      39.248 -13.526  -1.068  1.00  0.00     0.043 A 
HETATM   20  C   UNL     1      38.093 -12.826  -0.654  1.00  0.00    -0.035 A 
HETATM   21  C   UNL     1      37.203 -13.319   0.456  1.00  0.00     0.050 C 
HETATM   22  C   UNL     1      37.735 -11.642  -1.317  1.00  0.00     0.010 A 
HETATM   23  C   UNL     1      38.513 -11.146  -2.363  1.00  0.00     0.016 A 
HETATM   24  C   UNL     1      39.675 -11.811  -2.766  1.00  0.00     0.019 A 
HETATM   25  C   UNL     1      40.031 -12.998  -2.105  1.00  0.00     0.046 A 
BRANCH  24  26
HETATM   26  C   UNL     1      40.473 -11.263  -3.858  1.00  0.00     0.179 A 
HETATM   27  O   UNL     1      41.815 -11.553  -3.859  1.00  0.00    -0.302 OA
HETATM   28  C   UNL     1      42.294 -10.923  -4.966  1.00  0.00     0.163 A 
HETATM   29  C   UNL     1      41.246 -10.287  -5.579  1.00  0.00     0.144 A 
HETATM   30  N   UNL     1      40.092 -10.500  -4.869  1.00  0.00    -0.234 NA
ENDBRANCH  24  26
ENDBRANCH   3  19
TORSDOF 5
ENDMDL
MODEL 9
REMARK VINA RESULT:      -7.3      4.604      5.099
REMARK  5 active torsions:
REMARK  status: ('A' for Active; 'I' for Inactive)
REMARK    1  A    between atoms: C_2  and  N_3 
REMARK       I    between atoms: N_3  and  C_4 
REMARK    2  A    between atoms: C_4  and  C_5 
REMARK    3  A    between atoms: C_8  and  N_9 
REMARK       I    between atoms: N_9  and  C_10 
REMARK       I    between atoms: C_10  and  N_11 
REMARK    4  A    between atoms: N_11  and  C_12 
REMARK    5  A    between atoms: C_17  and  C_18 
ROOT
HETATM    1  N   UNL     1      40.207 -15.098   4.603  1.00  0.00    -0.309 N 
HETATM    2  C   UNL     1      41.468 -15.643   4.401  1.00  0.00     0.325 C 
HETATM    3  N   UNL     1      41.695 -16.657   5.321  1.00  0.00    -0.308 N 
HETATM    4  O   UNL     1      42.272 -15.252   3.568  1.00  0.00    -0.247 OA
HETATM    5  H   UNL     1      39.535 -15.693   5.063  1.00  0.00     0.170 HD
HETATM    6  H   UNL     1      41.076 -16.646   6.115  1.00  0.00     0.170 HD
ENDROOT
BRANCH   1   7
HETATM    7  C   UNL     1      39.730 -13.859   4.127  1.00  0.00     0.036 A 
HETATM    8  C   UNL     1      39.531 -12.743   4.943  1.00  0.00     0.030 A 
HETATM    9  C   UNL     1      38.967 -11.571   4.426  1.00  0.00     0.019 A 
HETATM   10  C   UNL     1      38.579 -11.510   3.084  1.00  0.00     0.032 A 
HETATM   11  C   UNL     1      38.814 -12.610   2.253  1.00  0.00     0.019 A 
HETATM   12  C   UNL     1      39.382 -13.778   2.773  1.00  0.00     0.030 A 
BRANCH  10  13
HETATM   13  C   UNL     1      37.909 -10.310   2.507  1.00  0.00     0.251 C 
HETATM   14  N   UNL     1      36.674  -9.990   3.035  1.00  0.00    -0.357 N 
HETATM   15  H   UNL     1      36.219 -10.643   3.657  1.00  0.00     0.162 HD
HETATM   16  O   UNL     1      38.432  -9.699   1.582  1.00  0.00    -0.268 OA
BRANCH  14  17
HETATM   17  C   UNL     1      35.860  -8.934   2.471  1.00  0.00     0.118 C 
HETATM   18  C   UNL     1      34.536  -9.470   1.956  1.00  0.00     0.026 C 
ENDBRANCH  14  17
ENDBRANCH  10  13
ENDBRANCH   1   7
BRANCH   3  19
HETATM   19  C   UNL     1      42.866 -17.444   5.452  1.00  0.00     0.043 A 
HETATM   20  C   UNL     1      43.894 -16.997   6.310  1.00  0.00    -0.035 A 
HETATM   21  C   UNL     1      43.791 -15.717   7.097  1.00  0.00     0.050 C 
HETATM   22  C   UNL     1      45.073 -17.750   6.418  1.00  0.00     0.010 A 
HETATM   23  C   UNL     1      45.232 -18.936   5.701  1.00  0.00     0.016 A 
HETATM   24  C   UNL     1      44.212 -19.407   4.868  1.00  0.00     0.019 A 
HETATM   25  C   UNL     1      43.033 -18.652   4.758  1.00  0.00     0.046 A 
BRANCH  24  26
HETATM   26  C   UNL     1      44.403 -20.657   4.137  1.00  0.00     0.179 A 
HETATM   27  O   UNL     1      44.159 -20.634   2.787  1.00  0.00    -0.302 OA
HETATM   28  C   UNL     1      44.411 -21.908   2.378  1.00  0.00     0.163 A 
HETATM   29  C   UNL     1      44.790 -22.637   3.475  1.00  0.00     0.144 A 
HETATM   30  N   UNL     1      44.778 -21.841   4.592  1.00  0.00    -0.234 NA
ENDBRANCH  24  26
ENDBRANCH   3  19
TORSDOF 5
ENDMDL
MODEL 10
REMARK VINA RESULT:      -7.3      2.905      3.152
REMARK  5 active torsions:
REMARK  status: ('A' for Active; 'I' for Inactive)
REMARK    1  A    between atoms: C_2  and  N_3 
REMARK       I    between atoms: N_3  and  C_4 
REMARK    2  A    between atoms: C_4  and  C_5 
REMARK    3  A    between atoms: C_8  and  N_9 
REMARK       I    between atoms: N_9  and  C_10 
REMARK       I    between atoms: C_10  and  N_11 
REMARK    4  A    between atoms: N_11  and  C_12 
REMARK    5  A    between atoms: C_17  and  C_18 
ROOT
HETATM    1  N   UNL     1      40.425 -15.021  -1.523  1.00  0.00    -0.309 N 
HETATM    2  C   UNL     1      41.156 -15.207  -0.357  1.00  0.00     0.325 C 
HETATM    3  N   UNL     1      40.665 -16.305   0.336  1.00  0.00    -0.308 N 
HETATM    4  O   UNL     1      42.063 -14.480   0.021  1.00  0.00    -0.247 OA
HETATM    5  H   UNL     1      39.954 -15.836  -1.886  1.00  0.00     0.170 HD
HETATM    6  H   UNL     1      39.745 -16.599   0.054  1.00  0.00     0.170 HD
ENDROOT
BRANCH   1   7
HETATM    7  C   UNL     1      40.371 -13.856  -2.316  1.00  0.00     0.036 A 
HETATM    8  C   UNL     1      39.238 -13.046  -2.424  1.00  0.00     0.030 A 
HETATM    9  C   UNL     1      39.220 -11.956  -3.301  1.00  0.00     0.019 A 
HETATM   10  C   UNL     1      40.336 -11.673  -4.095  1.00  0.00     0.032 A 
HETATM   11  C   UNL     1      41.486 -12.456  -3.961  1.00  0.00     0.019 A 
HETATM   12  C   UNL     1      41.502 -13.543  -3.080  1.00  0.00     0.030 A 
BRANCH  10  13
HETATM   13  C   UNL     1      40.337 -10.568  -5.095  1.00  0.00     0.251 C 
HETATM   14  N   UNL     1      39.342 -10.611  -6.052  1.00  0.00    -0.357 N 
HETATM   15  H   UNL     1      38.768 -11.439  -6.130  1.00  0.00     0.162 HD
HETATM   16  O   UNL     1      41.219  -9.717  -5.069  1.00  0.00    -0.268 OA
BRANCH  14  17
HETATM   17  C   UNL     1      39.313  -9.677  -7.157  1.00  0.00     0.118 C 
HETATM   18  C   UNL     1      40.043 -10.229  -8.368  1.00  0.00     0.026 C 
ENDBRANCH  14  17
ENDBRANCH  10  13
ENDBRANCH   1   7
BRANCH   3  19
HETATM   19  C   UNL     1      41.131 -16.810   1.575  1.00  0.00     0.043 A 
HETATM   20  C   UNL     1      40.671 -16.212   2.769  1.00  0.00    -0.035 A 
HETATM   21  C   UNL     1      39.698 -15.062   2.775  1.00  0.00     0.050 C 
HETATM   22  C   UNL     1      41.154 -16.679   4.001  1.00  0.00     0.010 A 
HETATM   23  C   UNL     1      42.068 -17.731   4.056  1.00  0.00     0.016 A 
HETATM   24  C   UNL     1      42.513 -18.353   2.885  1.00  0.00     0.019 A 
HETATM   25  C   UNL     1      42.031 -17.883   1.652  1.00  0.00     0.046 A 
BRANCH  24  26
HETATM   26  C   UNL     1      43.463 -19.458   2.976  1.00  0.00     0.179 A 
HETATM   27  O   UNL     1      44.205 -19.550   4.127  1.00  0.00    -0.302 OA
HETATM   28  C   UNL     1      44.989 -20.646   3.935  1.00  0.00     0.163 A 
HETATM   29  C   UNL     1      44.697 -21.164   2.700  1.00  0.00     0.144 A 
HETATM   30  N   UNL     1      43.731 -20.403   2.091  1.00  0.00    -0.234 NA
ENDBRANCH  24  26
ENDBRANCH   3  19
TORSDOF 5
ENDMDL
