MODEL 1
REMARK VINA RESULT:      -8.6      0.000      0.000
REMARK  10 active torsions:
REMARK  status: ('A' for Active; 'I' for Inactive)
REMARK    1  A    between atoms: O_2  and  C_3 
REMARK    2  A    between atoms: C_6  and  N_7 
REMARK       I    between atoms: N_7  and  C_8 
REMARK    3  A    between atoms: C_8  and  C_9 
REMARK    4  A    between atoms: C_9  and  C_10 
REMARK    5  A    between atoms: N_11  and  C_12 
REMARK    6  A    between atoms: C_12  and  C_13 
REMARK    7  A    between atoms: C_13  and  C_14 
REMARK    8  A    between atoms: C_16  and  O_17 
REMARK    9  A    between atoms: C_19  and  O_20 
REMARK   10  A    between atoms: N_26  and  C_27 
ROOT
HETATM    1  C   UNL     1      42.853 -15.720   2.645  1.00  0.00     0.190 C 
HETATM    2  N   UNL     1      42.164 -16.175   3.839  1.00  0.00    -0.319 N 
HETATM    3  C   UNL     1      42.250 -17.558   3.978  1.00  0.00     0.332 C 
HETATM    4  O   UNL     1      41.539 -18.179   4.754  1.00  0.00    -0.246 OA
HETATM    5  N   UNL     1      43.189 -18.036   3.084  1.00  0.00    -0.232 N 
HETATM    6  C   UNL     1      43.590 -17.005   2.257  1.00  0.00     0.256 C 
HETATM    7  O   UNL     1      44.358 -17.044   1.302  1.00  0.00    -0.270 OA
ENDROOT
BRANCH   1   8
HETATM    8  C   UNL     1      41.899 -15.324   1.518  1.00  0.00     0.138 C 
BRANCH   8   9
HETATM    9  C   UNL     1      42.103 -13.890   1.097  1.00  0.00     0.224 C 
HETATM   10  N   UNL     1      41.607 -13.432  -0.089  1.00  0.00    -0.327 N 
HETATM   11  H   UNL     1      41.967 -12.503  -0.286  1.00  0.00     0.169 HD
HETATM   12  O   UNL     1      42.714 -13.092   1.813  1.00  0.00    -0.273 OA
BRANCH  10  13
HETATM   13  C   UNL     1      40.695 -13.946  -1.030  1.00  0.00     0.034 A 
HETATM   14  C   UNL     1      39.320 -13.725  -1.027  1.00  0.00     0.032 A 
HETATM   15  C   UNL     1      38.515 -14.233  -2.055  1.00  0.00     0.039 A 
HETATM   16  C   UNL     1      39.068 -14.959  -3.109  1.00  0.00     0.068 A 
HETATM   17  C   UNL     1      40.438 -15.196  -3.115  1.00  0.00     0.039 A 
HETATM   18  C   UNL     1      41.243 -14.685  -2.088  1.00  0.00     0.032 A 
BRANCH  16  19
HETATM   19  O   UNL     1      38.172 -15.373  -4.054  1.00  0.00    -0.356 OA
HETATM   20  C   UNL     1      36.961 -14.632  -4.151  1.00  0.00     0.210 C 
ENDBRANCH  16  19
ENDBRANCH  10  13
ENDBRANCH   8   9
ENDBRANCH   1   8
BRANCH   2  21
HETATM   21  C   UNL     1      41.133 -15.380   4.495  1.00  0.00     0.133 C 
BRANCH  21  22
HETATM   22  C   UNL     1      41.623 -14.031   5.034  1.00  0.00     0.058 C 
BRANCH  22  23
HETATM   23  C   UNL     1      40.542 -12.986   4.896  1.00  0.00    -0.054 A 
HETATM   24  C   UNL     1      40.293 -12.064   5.923  1.00  0.00     0.046 A 
HETATM   25  C   UNL     1      39.333 -11.055   5.760  1.00  0.00     0.102 A 
HETATM   26  C   UNL     1      38.618 -10.961   4.549  1.00  0.00     0.101 A 
HETATM   27  C   UNL     1      38.864 -11.886   3.530  1.00  0.00     0.040 A 
HETATM   28  C   UNL     1      39.820 -12.888   3.702  1.00  0.00     0.010 A 
BRANCH  25  29
HETATM   29  O   UNL     1      39.036 -10.107   6.708  1.00  0.00    -0.353 OA
HETATM   30  C   UNL     1      39.500 -10.328   8.032  1.00  0.00     0.210 C 
ENDBRANCH  25  29
BRANCH  26  31
HETATM   31  O   UNL     1      37.706  -9.938   4.462  1.00  0.00    -0.353 OA
HETATM   32  C   UNL     1      37.510  -9.338   3.190  1.00  0.00     0.210 C 
ENDBRANCH  26  31
ENDBRANCH  22  23
ENDBRANCH  21  22
ENDBRANCH   2  21
BRANCH   5  33
HETATM   33  C   UNL     1      43.619 -19.400   2.987  1.00  0.00     0.047 A 
HETATM   34  C   UNL     1      44.440 -19.984   3.968  1.00  0.00     0.030 A 
HETATM   35  C   UNL     1      44.867 -21.317   3.878  1.00  0.00     0.002 A 
HETATM   36  C   UNL     1      44.487 -22.102   2.799  1.00  0.00     0.000 A 
HETATM   37  C   UNL     1      43.684 -21.552   1.809  1.00  0.00     0.002 A 
HETATM   38  C   UNL     1      43.258 -20.220   1.904  1.00  0.00     0.030 A 
ENDBRANCH   5  33
TORSDOF 10
ENDMDL
MODEL 2
REMARK VINA RESULT:      -8.4      2.584      5.314
REMARK  10 active torsions:
REMARK  status: ('A' for Active; 'I' for Inactive)
REMARK    1  A    between atoms: O_2  and  C_3 
REMARK    2  A    between atoms: C_6  and  N_7 
REMARK       I    between atoms: N_7  and  C_8 
REMARK    3  A    between atoms: C_8  and  C_9 
REMARK    4  A    between atoms: C_9  and  C_10 
REMARK    5  A    between atoms: N_11  and  C_12 
REMARK    6  A    between atoms: C_12  and  C_13 
REMARK    7  A    between atoms: C_13  and  C_14 
REMARK    8  A    between atoms: C_16  and  O_17 
REMARK    9  A    between atoms: C_19  and  O_20 
REMARK   10  A    between atoms: N_26  and  C_27 
ROOT
HETATM    1  C   UNL     1      41.308 -16.452   2.791  1.00  0.00     0.190 C 
HETATM    2  N   UNL     1      41.949 -16.532   1.491  1.00  0.00    -0.319 N 
HETATM    3  C   UNL     1      42.885 -17.562   1.451  1.00  0.00     0.332 C 
HETATM    4  O   UNL     1      43.717 -17.651   0.558  1.00  0.00    -0.246 OA
HETATM    5  N   UNL     1      42.722 -18.355   2.571  1.00  0.00    -0.232 N 
HETATM    6  C   UNL     1      41.805 -17.759   3.414  1.00  0.00     0.256 C 
HETATM    7  O   UNL     1      41.442 -18.121   4.528  1.00  0.00    -0.270 OA
ENDROOT
BRANCH   1   8
HETATM    8  C   UNL     1      41.802 -15.272   3.630  1.00  0.00     0.138 C 
BRANCH   8   9
HETATM    9  C   UNL     1      40.693 -14.683   4.466  1.00  0.00     0.224 C 
HETATM   10  N   UNL     1      39.757 -13.862   3.907  1.00  0.00    -0.327 N 
HETATM   11  H   UNL     1      39.188 -13.434   4.630  1.00  0.00     0.169 HD
HETATM   12  O   UNL     1      40.597 -14.932   5.670  1.00  0.00    -0.273 OA
BRANCH  10  13
HETATM   13  C   UNL     1      39.403 -13.544   2.583  1.00  0.00     0.034 A 
HETATM   14  C   UNL     1      38.578 -14.308   1.759  1.00  0.00     0.032 A 
HETATM   15  C   UNL     1      38.239 -13.858   0.477  1.00  0.00     0.039 A 
HETATM   16  C   UNL     1      38.705 -12.635  -0.003  1.00  0.00     0.068 A 
HETATM   17  C   UNL     1      39.539 -11.870   0.806  1.00  0.00     0.039 A 
HETATM   18  C   UNL     1      39.876 -12.319   2.090  1.00  0.00     0.032 A 
BRANCH  16  19
HETATM   19  O   UNL     1      38.277 -12.309  -1.259  1.00  0.00    -0.356 OA
HETATM   20  C   UNL     1      38.644 -11.023  -1.743  1.00  0.00     0.210 C 
ENDBRANCH  16  19
ENDBRANCH  10  13
ENDBRANCH   8   9
ENDBRANCH   1   8
BRANCH   2  21
HETATM   21  C   UNL     1      41.973 -15.409   0.562  1.00  0.00     0.133 C 
BRANCH  21  22
HETATM   22  C   UNL     1      41.174 -15.638  -0.726  1.00  0.00     0.058 C 
BRANCH  22  23
HETATM   23  C   UNL     1      41.297 -14.441  -1.640  1.00  0.00    -0.054 A 
HETATM   24  C   UNL     1      42.111 -13.352  -1.297  1.00  0.00     0.046 A 
HETATM   25  C   UNL     1      42.274 -12.276  -2.181  1.00  0.00     0.102 A 
HETATM   26  C   UNL     1      41.619 -12.293  -3.430  1.00  0.00     0.101 A 
HETATM   27  C   UNL     1      40.803 -13.378  -3.764  1.00  0.00     0.040 A 
HETATM   28  C   UNL     1      40.646 -14.444  -2.877  1.00  0.00     0.010 A 
BRANCH  25  29
HETATM   29  O   UNL     1      43.060 -11.178  -1.930  1.00  0.00    -0.353 OA
HETATM   30  C   UNL     1      42.913 -10.534  -0.673  1.00  0.00     0.210 C 
ENDBRANCH  25  29
BRANCH  26  31
HETATM   31  O   UNL     1      41.840 -11.209  -4.243  1.00  0.00    -0.353 OA
HETATM   32  C   UNL     1      40.731 -10.695  -4.968  1.00  0.00     0.210 C 
ENDBRANCH  26  31
ENDBRANCH  22  23
ENDBRANCH  21  22
ENDBRANCH   2  21
BRANCH   5  33
HETATM   33  C   UNL     1      43.445 -19.564   2.842  1.00  0.00     0.047 A 
HETATM   34  C   UNL     1      43.409 -20.656   1.957  1.00  0.00     0.030 A 
HETATM   35  C   UNL     1      44.111 -21.842   2.218  1.00  0.00     0.002 A 
HETATM   36  C   UNL     1      44.865 -21.969   3.375  1.00  0.00     0.000 A 
HETATM   37  C   UNL     1      44.915 -20.910   4.272  1.00  0.00     0.002 A 
HETATM   38  C   UNL     1      44.212 -19.726   4.007  1.00  0.00     0.030 A 
ENDBRANCH   5  33
TORSDOF 10
ENDMDL
MODEL 3
REMARK VINA RESULT:      -8.4      1.823      5.886
REMARK  10 active torsions:
REMARK  status: ('A' for Active; 'I' for Inactive)
REMARK    1  A    between atoms: O_2  and  C_3 
REMARK    2  A    between atoms: C_6  and  N_7 
REMARK       I    between atoms: N_7  and  C_8 
REMARK    3  A    between atoms: C_8  and  C_9 
REMARK    4  A    between atoms: C_9  and  C_10 
REMARK    5  A    between atoms: N_11  and  C_12 
REMARK    6  A    between atoms: C_12  and  C_13 
REMARK    7  A    between atoms: C_13  and  C_14 
REMARK    8  A    between atoms: C_16  and  O_17 
REMARK    9  A    between atoms: C_19  and  O_20 
REMARK   10  A    between atoms: N_26  and  C_27 
ROOT
HETATM    1  C   UNL     1      42.391 -16.006   4.669  1.00  0.00     0.190 C 
HETATM    2  N   UNL     1      41.832 -16.040   3.330  1.00  0.00    -0.319 N 
HETATM    3  C   UNL     1      42.294 -17.144   2.617  1.00  0.00     0.332 C 
HETATM    4  O   UNL     1      42.163 -17.236   1.404  1.00  0.00    -0.246 OA
HETATM    5  N   UNL     1      42.927 -18.005   3.492  1.00  0.00    -0.232 N 
HETATM    6  C   UNL     1      43.025 -17.397   4.729  1.00  0.00     0.256 C 
HETATM    7  O   UNL     1      43.575 -17.812   5.743  1.00  0.00    -0.270 OA
ENDROOT
BRANCH   1   8
HETATM    8  C   UNL     1      43.481 -14.946   4.836  1.00  0.00     0.138 C 
BRANCH   8   9
HETATM    9  C   UNL     1      43.433 -14.312   6.204  1.00  0.00     0.224 C 
HETATM   10  N   UNL     1      42.613 -13.250   6.455  1.00  0.00    -0.327 N 
HETATM   11  H   UNL     1      42.821 -12.853   7.365  1.00  0.00     0.169 HD
HETATM   12  O   UNL     1      44.126 -14.738   7.132  1.00  0.00    -0.273 OA
BRANCH  10  13
HETATM   13  C   UNL     1      41.547 -12.654   5.757  1.00  0.00     0.034 A 
HETATM   14  C   UNL     1      41.673 -11.743   4.710  1.00  0.00     0.032 A 
HETATM   15  C   UNL     1      40.539 -11.265   4.042  1.00  0.00     0.039 A 
HETATM   16  C   UNL     1      39.262 -11.694   4.396  1.00  0.00     0.068 A 
HETATM   17  C   UNL     1      39.122 -12.593   5.447  1.00  0.00     0.039 A 
HETATM   18  C   UNL     1      40.257 -13.074   6.113  1.00  0.00     0.032 A 
BRANCH  16  19
HETATM   19  O   UNL     1      38.249 -11.166   3.645  1.00  0.00    -0.356 OA
HETATM   20  C   UNL     1      38.562 -10.837   2.297  1.00  0.00     0.210 C 
ENDBRANCH  16  19
ENDBRANCH  10  13
ENDBRANCH   8   9
ENDBRANCH   1   8
BRANCH   2  21
HETATM   21  C   UNL     1      41.290 -14.853   2.680  1.00  0.00     0.133 C 
BRANCH  21  22
HETATM   22  C   UNL     1      39.761 -14.834   2.575  1.00  0.00     0.058 C 
BRANCH  22  23
HETATM   23  C   UNL     1      39.335 -14.476   1.170  1.00  0.00    -0.054 A 
HETATM   24  C   UNL     1      40.251 -14.506   0.109  1.00  0.00     0.046 A 
HETATM   25  C   UNL     1      39.833 -14.238  -1.203  1.00  0.00     0.102 A 
HETATM   26  C   UNL     1      38.478 -13.943  -1.457  1.00  0.00     0.101 A 
HETATM   27  C   UNL     1      37.570 -13.907  -0.395  1.00  0.00     0.040 A 
HETATM   28  C   UNL     1      37.995 -14.174   0.907  1.00  0.00     0.010 A 
BRANCH  25  29
HETATM   29  O   UNL     1      40.660 -14.258  -2.299  1.00  0.00    -0.353 OA
HETATM   30  C   UNL     1      41.055 -15.524  -2.806  1.00  0.00     0.210 C 
ENDBRANCH  25  29
BRANCH  26  31
HETATM   31  O   UNL     1      38.147 -13.706  -2.769  1.00  0.00    -0.353 OA
HETATM   32  C   UNL     1      37.445 -14.726  -3.464  1.00  0.00     0.210 C 
ENDBRANCH  26  31
ENDBRANCH  22  23
ENDBRANCH  21  22
ENDBRANCH   2  21
BRANCH   5  33
HETATM   33  C   UNL     1      43.458 -19.291   3.148  1.00  0.00     0.047 A 
HETATM   34  C   UNL     1      43.016 -19.991   2.011  1.00  0.00     0.030 A 
HETATM   35  C   UNL     1      43.529 -21.250   1.671  1.00  0.00     0.002 A 
HETATM   36  C   UNL     1      44.498 -21.848   2.464  1.00  0.00     0.000 A 
HETATM   37  C   UNL     1      44.951 -21.187   3.597  1.00  0.00     0.002 A 
HETATM   38  C   UNL     1      44.435 -19.927   3.933  1.00  0.00     0.030 A 
ENDBRANCH   5  33
TORSDOF 10
ENDMDL
MODEL 4
REMARK VINA RESULT:      -8.3      2.393      8.862
REMARK  10 active torsions:
REMARK  status: ('A' for Active; 'I' for Inactive)
REMARK    1  A    between atoms: O_2  and  C_3 
REMARK    2  A    between atoms: C_6  and  N_7 
REMARK       I    between atoms: N_7  and  C_8 
REMARK    3  A    between atoms: C_8  and  C_9 
REMARK    4  A    between atoms: C_9  and  C_10 
REMARK    5  A    between atoms: N_11  and  C_12 
REMARK    6  A    between atoms: C_12  and  C_13 
REMARK    7  A    between atoms: C_13  and  C_14 
REMARK    8  A    between atoms: C_16  and  O_17 
REMARK    9  A    between atoms: C_19  and  O_20 
REMARK   10  A    between atoms: N_26  and  C_27 
ROOT
HETATM    1  C   UNL     1      41.116 -13.296   2.180  1.00  0.00     0.190 C 
HETATM    2  N   UNL     1      41.702 -14.495   1.611  1.00  0.00    -0.319 N 
HETATM    3  C   UNL     1      41.683 -14.457   0.218  1.00  0.00     0.332 C 
HETATM    4  O   UNL     1      41.884 -15.453  -0.463  1.00  0.00    -0.246 OA
HETATM    5  N   UNL     1      41.357 -13.176  -0.186  1.00  0.00    -0.232 N 
HETATM    6  C   UNL     1      41.006 -12.430   0.922  1.00  0.00     0.256 C 
HETATM    7  O   UNL     1      40.597 -11.275   0.968  1.00  0.00    -0.270 OA
ENDROOT
BRANCH   1   8
HETATM    8  C   UNL     1      39.720 -13.528   2.758  1.00  0.00     0.138 C 
BRANCH   8   9
HETATM    9  C   UNL     1      39.461 -12.647   3.955  1.00  0.00     0.224 C 
HETATM   10  N   UNL     1      40.010 -12.941   5.170  1.00  0.00    -0.327 N 
HETATM   11  H   UNL     1      39.610 -12.346   5.889  1.00  0.00     0.169 HD
HETATM   12  O   UNL     1      38.756 -11.639   3.869  1.00  0.00    -0.273 OA
BRANCH  10  13
HETATM   13  C   UNL     1      41.013 -13.829   5.599  1.00  0.00     0.034 A 
HETATM   14  C   UNL     1      42.351 -13.499   5.809  1.00  0.00     0.032 A 
HETATM   15  C   UNL     1      43.250 -14.452   6.303  1.00  0.00     0.039 A 
HETATM   16  C   UNL     1      42.831 -15.745   6.609  1.00  0.00     0.068 A 
HETATM   17  C   UNL     1      41.501 -16.089   6.392  1.00  0.00     0.039 A 
HETATM   18  C   UNL     1      40.601 -15.135   5.900  1.00  0.00     0.032 A 
BRANCH  16  19
HETATM   19  O   UNL     1      43.806 -16.563   7.106  1.00  0.00    -0.356 OA
HETATM   20  C   UNL     1      43.460 -17.351   8.238  1.00  0.00     0.210 C 
ENDBRANCH  16  19
ENDBRANCH  10  13
ENDBRANCH   8   9
ENDBRANCH   1   8
BRANCH   2  21
HETATM   21  C   UNL     1      41.820 -15.739   2.362  1.00  0.00     0.133 C 
BRANCH  21  22
HETATM   22  C   UNL     1      43.193 -15.957   3.009  1.00  0.00     0.058 C 
BRANCH  22  23
HETATM   23  C   UNL     1      43.569 -17.419   2.962  1.00  0.00    -0.054 A 
HETATM   24  C   UNL     1      44.070 -18.073   4.097  1.00  0.00     0.046 A 
HETATM   25  C   UNL     1      44.353 -19.446   4.064  1.00  0.00     0.102 A 
HETATM   26  C   UNL     1      44.123 -20.178   2.880  1.00  0.00     0.101 A 
HETATM   27  C   UNL     1      43.631 -19.520   1.749  1.00  0.00     0.040 A 
HETATM   28  C   UNL     1      43.354 -18.153   1.791  1.00  0.00     0.010 A 
BRANCH  25  29
HETATM   29  O   UNL     1      44.834 -20.164   5.131  1.00  0.00    -0.353 OA
HETATM   30  C   UNL     1      43.964 -20.373   6.233  1.00  0.00     0.210 C 
ENDBRANCH  25  29
BRANCH  26  31
HETATM   31  O   UNL     1      44.413 -21.519   2.933  1.00  0.00    -0.353 OA
HETATM   32  C   UNL     1      44.389 -22.244   1.712  1.00  0.00     0.210 C 
ENDBRANCH  26  31
ENDBRANCH  22  23
ENDBRANCH  21  22
ENDBRANCH   2  21
BRANCH   5  33
HETATM   33  C   UNL     1      41.322 -12.722  -1.546  1.00  0.00     0.047 A 
HETATM   34  C   UNL     1      40.129 -12.721  -2.291  1.00  0.00     0.030 A 
HETATM   35  C   UNL     1      40.088 -12.281  -3.621  1.00  0.00     0.002 A 
HETATM   36  C   UNL     1      41.244 -11.833  -4.246  1.00  0.00     0.000 A 
HETATM   37  C   UNL     1      42.439 -11.829  -3.539  1.00  0.00     0.002 A 
HETATM   38  C   UNL     1      42.475 -12.269  -2.209  1.00  0.00     0.030 A 
ENDBRANCH   5  33
TORSDOF 10
ENDMDL
MODEL 5
REMARK VINA RESULT:      -8.2      3.498      7.572
REMARK  10 active torsions:
REMARK  status: ('A' for Active; 'I' for Inactive)
REMARK    1  A    between atoms: O_2  and  C_3 
REMARK    2  A    between atoms: C_6  and  N_7 
REMARK       I    between atoms: N_7  and  C_8 
REMARK    3  A    between atoms: C_8  and  C_9 
REMARK    4  A    between atoms: C_9  and  C_10 
REMARK    5  A    between atoms: N_11  and  C_12 
REMARK    6  A    between atoms: C_12  and  C_13 
REMARK    7  A    between atoms: C_13  and  C_14 
REMARK    8  A    between atoms: C_16  and  O_17 
REMARK    9  A    between atoms: C_19  and  O_20 
REMARK   10  A    between atoms: N_26  and  C_27 
ROOT
HETATM    1  C   UNL     1      43.065 -15.375   6.698  1.00  0.00     0.190 C 
HETATM    2  N   UNL     1      43.526 -14.130   6.112  1.00  0.00    -0.319 N 
HETATM    3  C   UNL     1      43.022 -13.959   4.825  1.00  0.00     0.332 C 
HETATM    4  O   UNL     1      43.475 -13.124   4.055  1.00  0.00    -0.246 OA
HETATM    5  N   UNL     1      42.028 -14.894   4.609  1.00  0.00    -0.232 N 
HETATM    6  C   UNL     1      41.997 -15.771   5.676  1.00  0.00     0.256 C 
HETATM    7  O   UNL     1      41.300 -16.769   5.825  1.00  0.00    -0.270 OA
ENDROOT
BRANCH   1   8
HETATM    8  C   UNL     1      44.148 -16.454   6.741  1.00  0.00     0.138 C 
BRANCH   8   9
HETATM    9  C   UNL     1      43.774 -17.578   7.675  1.00  0.00     0.224 C 
HETATM   10  N   UNL     1      43.580 -18.844   7.202  1.00  0.00    -0.327 N 
HETATM   11  H   UNL     1      43.183 -19.433   7.927  1.00  0.00     0.169 HD
HETATM   12  O   UNL     1      43.640 -17.388   8.886  1.00  0.00    -0.273 OA
BRANCH  10  13
HETATM   13  C   UNL     1      43.856 -19.482   5.979  1.00  0.00     0.034 A 
HETATM   14  C   UNL     1      43.710 -18.911   4.717  1.00  0.00     0.032 A 
HETATM   15  C   UNL     1      44.080 -19.619   3.567  1.00  0.00     0.039 A 
HETATM   16  C   UNL     1      44.615 -20.904   3.655  1.00  0.00     0.068 A 
HETATM   17  C   UNL     1      44.754 -21.489   4.908  1.00  0.00     0.039 A 
HETATM   18  C   UNL     1      44.385 -20.778   6.059  1.00  0.00     0.032 A 
BRANCH  16  19
HETATM   19  O   UNL     1      44.955 -21.468   2.458  1.00  0.00    -0.356 OA
HETATM   20  C   UNL     1      43.885 -21.789   1.578  1.00  0.00     0.210 C 
ENDBRANCH  16  19
ENDBRANCH  10  13
ENDBRANCH   8   9
ENDBRANCH   1   8
BRANCH   2  21
HETATM   21  C   UNL     1      44.715 -13.435   6.591  1.00  0.00     0.133 C 
BRANCH  21  22
HETATM   22  C   UNL     1      45.046 -13.695   8.066  1.00  0.00     0.058 C 
BRANCH  22  23
HETATM   23  C   UNL     1      44.682 -12.492   8.905  1.00  0.00    -0.054 A 
HETATM   24  C   UNL     1      43.555 -11.715   8.602  1.00  0.00     0.046 A 
HETATM   25  C   UNL     1      43.186 -10.641   9.425  1.00  0.00     0.102 A 
HETATM   26  C   UNL     1      43.951 -10.345  10.572  1.00  0.00     0.101 A 
HETATM   27  C   UNL     1      45.078 -11.118  10.865  1.00  0.00     0.040 A 
HETATM   28  C   UNL     1      45.438 -12.184  10.040  1.00  0.00     0.010 A 
BRANCH  25  29
HETATM   29  O   UNL     1      42.092  -9.839   9.208  1.00  0.00    -0.353 OA
HETATM   30  C   UNL     1      41.501  -9.862   7.918  1.00  0.00     0.210 C 
ENDBRANCH  25  29
BRANCH  26  31
HETATM   31  O   UNL     1      43.516  -9.287  11.332  1.00  0.00    -0.353 OA
HETATM   32  C   UNL     1      43.121  -9.558  12.669  1.00  0.00     0.210 C 
ENDBRANCH  26  31
ENDBRANCH  22  23
ENDBRANCH  21  22
ENDBRANCH   2  21
BRANCH   5  33
HETATM   33  C   UNL     1      41.213 -14.979   3.433  1.00  0.00     0.047 A 
HETATM   34  C   UNL     1      39.998 -14.280   3.327  1.00  0.00     0.030 A 
HETATM   35  C   UNL     1      39.195 -14.361   2.181  1.00  0.00     0.002 A 
HETATM   36  C   UNL     1      39.584 -15.150   1.108  1.00  0.00     0.000 A 
HETATM   37  C   UNL     1      40.775 -15.859   1.184  1.00  0.00     0.002 A 
HETATM   38  C   UNL     1      41.576 -15.774   2.332  1.00  0.00     0.030 A 
ENDBRANCH   5  33
TORSDOF 10
ENDMDL
MODEL 6
REMARK VINA RESULT:      -8.0      2.352      5.615
REMARK  10 active torsions:
REMARK  status: ('A' for Active; 'I' for Inactive)
REMARK    1  A    between atoms: O_2  and  C_3 
REMARK    2  A    between atoms: C_6  and  N_7 
REMARK       I    between atoms: N_7  and  C_8 
REMARK    3  A    between atoms: C_8  and  C_9 
REMARK    4  A    between atoms: C_9  and  C_10 
REMARK    5  A    between atoms: N_11  and  C_12 
REMARK    6  A    between atoms: C_12  and  C_13 
REMARK    7  A    between atoms: C_13  and  C_14 
REMARK    8  A    between atoms: C_16  and  O_17 
REMARK    9  A    between atoms: C_19  and  O_20 
REMARK   10  A    between atoms: N_26  and  C_27 
ROOT
HETATM    1  C   UNL     1      41.363 -16.304   3.075  1.00  0.00     0.190 C 
HETATM    2  N   UNL     1      41.866 -16.357   1.715  1.00  0.00    -0.319 N 
HETATM    3  C   UNL     1      42.752 -17.419   1.544  1.00  0.00     0.332 C 
HETATM    4  O   UNL     1      43.485 -17.503   0.569  1.00  0.00    -0.246 OA
HETATM    5  N   UNL     1      42.669 -18.248   2.646  1.00  0.00    -0.232 N 
HETATM    6  C   UNL     1      41.866 -17.652   3.598  1.00  0.00     0.256 C 
HETATM    7  O   UNL     1      41.602 -18.043   4.730  1.00  0.00    -0.270 OA
ENDROOT
BRANCH   1   8
HETATM    8  C   UNL     1      41.985 -15.177   3.900  1.00  0.00     0.138 C 
BRANCH   8   9
HETATM    9  C   UNL     1      40.973 -14.539   4.820  1.00  0.00     0.224 C 
HETATM   10  N   UNL     1      40.296 -13.416   4.443  1.00  0.00    -0.327 N 
HETATM   11  H   UNL     1      39.783 -13.034   5.230  1.00  0.00     0.169 HD
HETATM   12  O   UNL     1      40.726 -15.016   5.930  1.00  0.00    -0.273 OA
BRANCH  10  13
HETATM   13  C   UNL     1      40.133 -12.739   3.220  1.00  0.00     0.034 A 
HETATM   14  C   UNL     1      38.937 -12.614   2.517  1.00  0.00     0.032 A 
HETATM   15  C   UNL     1      38.878 -11.857   1.340  1.00  0.00     0.039 A 
HETATM   16  C   UNL     1      40.006 -11.203   0.849  1.00  0.00     0.068 A 
HETATM   17  C   UNL     1      41.209 -11.330   1.535  1.00  0.00     0.039 A 
HETATM   18  C   UNL     1      41.266 -12.085   2.715  1.00  0.00     0.032 A 
BRANCH  16  19
HETATM   19  O   UNL     1      39.800 -10.481  -0.293  1.00  0.00    -0.356 OA
HETATM   20  C   UNL     1      40.866  -9.638  -0.714  1.00  0.00     0.210 C 
ENDBRANCH  16  19
ENDBRANCH  10  13
ENDBRANCH   8   9
ENDBRANCH   1   8
BRANCH   2  21
HETATM   21  C   UNL     1      41.843 -15.200   0.829  1.00  0.00     0.133 C 
BRANCH  21  22
HETATM   22  C   UNL     1      40.493 -14.956   0.145  1.00  0.00     0.058 C 
BRANCH  22  23
HETATM   23  C   UNL     1      40.673 -14.088  -1.079  1.00  0.00    -0.054 A 
HETATM   24  C   UNL     1      39.575 -13.713  -1.866  1.00  0.00     0.046 A 
HETATM   25  C   UNL     1      39.742 -12.853  -2.961  1.00  0.00     0.102 A 
HETATM   26  C   UNL     1      41.024 -12.352  -3.266  1.00  0.00     0.101 A 
HETATM   27  C   UNL     1      42.118 -12.734  -2.482  1.00  0.00     0.040 A 
HETATM   28  C   UNL     1      41.942 -13.593  -1.396  1.00  0.00     0.010 A 
BRANCH  25  29
HETATM   29  O   UNL     1      38.721 -12.427  -3.775  1.00  0.00    -0.353 OA
HETATM   30  C   UNL     1      37.799 -11.488  -3.244  1.00  0.00     0.210 C 
ENDBRANCH  25  29
BRANCH  26  31
HETATM   31  O   UNL     1      41.102 -11.505  -4.344  1.00  0.00    -0.353 OA
HETATM   32  C   UNL     1      42.387 -11.023  -4.709  1.00  0.00     0.210 C 
ENDBRANCH  26  31
ENDBRANCH  22  23
ENDBRANCH  21  22
ENDBRANCH   2  21
BRANCH   5  33
HETATM   33  C   UNL     1      43.366 -19.492   2.799  1.00  0.00     0.047 A 
HETATM   34  C   UNL     1      44.219 -19.728   3.892  1.00  0.00     0.030 A 
HETATM   35  C   UNL     1      44.905 -20.941   4.046  1.00  0.00     0.002 A 
HETATM   36  C   UNL     1      44.760 -21.951   3.106  1.00  0.00     0.000 A 
HETATM   37  C   UNL     1      43.931 -21.746   2.011  1.00  0.00     0.002 A 
HETATM   38  C   UNL     1      43.246 -20.532   1.862  1.00  0.00     0.030 A 
ENDBRANCH   5  33
TORSDOF 10
ENDMDL
MODEL 7
REMARK VINA RESULT:      -8.0      2.105      3.796
REMARK  10 active torsions:
REMARK  status: ('A' for Active; 'I' for Inactive)
REMARK    1  A    between atoms: O_2  and  C_3 
REMARK    2  A    between atoms: C_6  and  N_7 
REMARK       I    between atoms: N_7  and  C_8 
REMARK    3  A    between atoms: C_8  and  C_9 
REMARK    4  A    between atoms: C_9  and  C_10 
REMARK    5  A    between atoms: N_11  and  C_12 
REMARK    6  A    between atoms: C_12  and  C_13 
REMARK    7  A    between atoms: C_13  and  C_14 
REMARK    8  A    between atoms: C_16  and  O_17 
REMARK    9  A    between atoms: C_19  and  O_20 
REMARK   10  A    between atoms: N_26  and  C_27 
ROOT
HETATM    1  C   UNL     1      42.352 -16.195   2.030  1.00  0.00     0.190 C 
HETATM    2  N   UNL     1      42.267 -16.301   3.474  1.00  0.00    -0.319 N 
HETATM    3  C   UNL     1      42.575 -17.589   3.907  1.00  0.00     0.332 C 
HETATM    4  O   UNL     1      42.323 -17.973   5.040  1.00  0.00    -0.246 OA
HETATM    5  N   UNL     1      43.125 -18.291   2.852  1.00  0.00    -0.232 N 
HETATM    6  C   UNL     1      43.025 -17.530   1.703  1.00  0.00     0.256 C 
HETATM    7  O   UNL     1      43.340 -17.830   0.557  1.00  0.00    -0.270 OA
ENDROOT
BRANCH   1   8
HETATM    8  C   UNL     1      40.982 -16.140   1.352  1.00  0.00     0.138 C 
BRANCH   8   9
HETATM    9  C   UNL     1      41.023 -15.325   0.083  1.00  0.00     0.224 C 
HETATM   10  N   UNL     1      40.670 -14.006   0.087  1.00  0.00    -0.327 N 
HETATM   11  H   UNL     1      40.602 -13.657  -0.863  1.00  0.00     0.169 HD
HETATM   12  O   UNL     1      41.382 -15.822  -0.987  1.00  0.00    -0.273 OA
BRANCH  10  13
HETATM   13  C   UNL     1      40.441 -13.060   1.103  1.00  0.00     0.034 A 
HETATM   14  C   UNL     1      41.387 -12.170   1.608  1.00  0.00     0.032 A 
HETATM   15  C   UNL     1      41.028 -11.223   2.576  1.00  0.00     0.039 A 
HETATM   16  C   UNL     1      39.720 -11.139   3.049  1.00  0.00     0.068 A 
HETATM   17  C   UNL     1      38.771 -12.031   2.562  1.00  0.00     0.039 A 
HETATM   18  C   UNL     1      39.129 -12.976   1.592  1.00  0.00     0.032 A 
BRANCH  16  19
HETATM   19  O   UNL     1      39.505 -10.155   3.972  1.00  0.00    -0.356 OA
HETATM   20  C   UNL     1      40.514  -9.160   4.089  1.00  0.00     0.210 C 
ENDBRANCH  16  19
ENDBRANCH  10  13
ENDBRANCH   8   9
ENDBRANCH   1   8
BRANCH   2  21
HETATM   21  C   UNL     1      41.496 -15.363   4.282  1.00  0.00     0.133 C 
BRANCH  21  22
HETATM   22  C   UNL     1      42.290 -14.139   4.755  1.00  0.00     0.058 C 
BRANCH  22  23
HETATM   23  C   UNL     1      41.422 -13.253   5.618  1.00  0.00    -0.054 A 
HETATM   24  C   UNL     1      41.945 -12.104   6.228  1.00  0.00     0.046 A 
HETATM   25  C   UNL     1      41.118 -11.251   6.972  1.00  0.00     0.102 A 
HETATM   26  C   UNL     1      39.745 -11.546   7.101  1.00  0.00     0.101 A 
HETATM   27  C   UNL     1      39.229 -12.697   6.496  1.00  0.00     0.040 A 
HETATM   28  C   UNL     1      40.061 -13.541   5.759  1.00  0.00     0.010 A 
BRANCH  25  29
HETATM   29  O   UNL     1      41.546 -10.102   7.591  1.00  0.00    -0.353 OA
HETATM   30  C   UNL     1      42.377 -10.237   8.734  1.00  0.00     0.210 C 
ENDBRANCH  25  29
BRANCH  26  31
HETATM   31  O   UNL     1      39.000 -10.655   7.833  1.00  0.00    -0.353 OA
HETATM   32  C   UNL     1      38.834 -10.921   9.219  1.00  0.00     0.210 C 
ENDBRANCH  26  31
ENDBRANCH  22  23
ENDBRANCH  21  22
ENDBRANCH   2  21
BRANCH   5  33
HETATM   33  C   UNL     1      43.649 -19.624   2.928  1.00  0.00     0.047 A 
HETATM   34  C   UNL     1      43.402 -20.571   1.918  1.00  0.00     0.030 A 
HETATM   35  C   UNL     1      43.909 -21.876   1.989  1.00  0.00     0.002 A 
HETATM   36  C   UNL     1      44.674 -22.273   3.076  1.00  0.00     0.000 A 
HETATM   37  C   UNL     1      44.928 -21.363   4.094  1.00  0.00     0.002 A 
HETATM   38  C   UNL     1      44.421 -20.059   4.019  1.00  0.00     0.030 A 
ENDBRANCH   5  33
TORSDOF 10
ENDMDL
MODEL 8
REMARK VINA RESULT:      -7.7      2.779      7.786
REMARK  10 active torsions:
REMARK  status: ('A' for Active; 'I' for Inactive)
REMARK    1  A    between atoms: O_2  and  C_3 
REMARK    2  A    between atoms: C_6  and  N_7 
REMARK       I    between atoms: N_7  and  C_8 
REMARK    3  A    between atoms: C_8  and  C_9 
REMARK    4  A    between atoms: C_9  and  C_10 
REMARK    5  A    between atoms: N_11  and  C_12 
REMARK    6  A    between atoms: C_12  and  C_13 
REMARK    7  A    between atoms: C_13  and  C_14 
REMARK    8  A    between atoms: C_16  and  O_17 
REMARK    9  A    between atoms: C_19  and  O_20 
REMARK   10  A    between atoms: N_26  and  C_27 
ROOT
HETATM    1  C   UNL     1      40.535 -14.832   1.400  1.00  0.00     0.190 C 
HETATM    2  N   UNL     1      40.839 -15.858   2.381  1.00  0.00    -0.319 N 
HETATM    3  C   UNL     1      41.009 -15.310   3.650  1.00  0.00     0.332 C 
HETATM    4  O   UNL     1      41.516 -15.939   4.568  1.00  0.00    -0.246 OA
HETATM    5  N   UNL     1      40.572 -13.999   3.630  1.00  0.00    -0.232 N 
HETATM    6  C   UNL     1      40.277 -13.643   2.328  1.00  0.00     0.256 C 
HETATM    7  O   UNL     1      39.923 -12.552   1.895  1.00  0.00    -0.270 OA
ENDROOT
BRANCH   1   8
HETATM    8  C   UNL     1      41.717 -14.512   0.484  1.00  0.00     0.138 C 
BRANCH   8   9
HETATM    9  C   UNL     1      41.304 -14.491  -0.967  1.00  0.00     0.224 C 
HETATM   10  N   UNL     1      41.245 -13.317  -1.661  1.00  0.00    -0.327 N 
HETATM   11  H   UNL     1      40.802 -13.464  -2.562  1.00  0.00     0.169 HD
HETATM   12  O   UNL     1      41.017 -15.531  -1.567  1.00  0.00    -0.273 OA
BRANCH  10  13
HETATM   13  C   UNL     1      41.702 -12.011  -1.409  1.00  0.00     0.034 A 
HETATM   14  C   UNL     1      43.034 -11.603  -1.419  1.00  0.00     0.032 A 
HETATM   15  C   UNL     1      43.368 -10.258  -1.220  1.00  0.00     0.039 A 
HETATM   16  C   UNL     1      42.382  -9.294  -1.020  1.00  0.00     0.068 A 
HETATM   17  C   UNL     1      41.050  -9.691  -0.996  1.00  0.00     0.039 A 
HETATM   18  C   UNL     1      40.715 -11.037  -1.198  1.00  0.00     0.032 A 
BRANCH  16  19
HETATM   19  O   UNL     1      42.848  -8.019  -0.864  1.00  0.00    -0.356 OA
HETATM   20  C   UNL     1      44.256  -7.840  -0.950  1.00  0.00     0.210 C 
ENDBRANCH  16  19
ENDBRANCH  10  13
ENDBRANCH   8   9
ENDBRANCH   1   8
BRANCH   2  21
HETATM   21  C   UNL     1      41.376 -17.161   2.007  1.00  0.00     0.133 C 
BRANCH  21  22
HETATM   22  C   UNL     1      42.887 -17.169   1.745  1.00  0.00     0.058 C 
BRANCH  22  23
HETATM   23  C   UNL     1      43.547 -18.291   2.512  1.00  0.00    -0.054 A 
HETATM   24  C   UNL     1      43.901 -18.134   3.859  1.00  0.00     0.046 A 
HETATM   25  C   UNL     1      44.451 -19.202   4.582  1.00  0.00     0.102 A 
HETATM   26  C   UNL     1      44.642 -20.448   3.951  1.00  0.00     0.101 A 
HETATM   27  C   UNL     1      44.294 -20.598   2.604  1.00  0.00     0.040 A 
HETATM   28  C   UNL     1      43.749 -19.528   1.893  1.00  0.00     0.010 A 
BRANCH  25  29
HETATM   29  O   UNL     1      44.813 -19.137   5.905  1.00  0.00    -0.353 OA
HETATM   30  C   UNL     1      45.172 -17.869   6.432  1.00  0.00     0.210 C 
ENDBRANCH  25  29
BRANCH  26  31
HETATM   31  O   UNL     1      45.173 -21.446   4.729  1.00  0.00    -0.353 OA
HETATM   32  C   UNL     1      44.670 -22.762   4.544  1.00  0.00     0.210 C 
ENDBRANCH  26  31
ENDBRANCH  22  23
ENDBRANCH  21  22
ENDBRANCH   2  21
BRANCH   5  33
HETATM   33  C   UNL     1      40.507 -13.131   4.769  1.00  0.00     0.047 A 
HETATM   34  C   UNL     1      39.460 -13.220   5.703  1.00  0.00     0.030 A 
HETATM   35  C   UNL     1      39.389 -12.372   6.818  1.00  0.00     0.002 A 
HETATM   36  C   UNL     1      40.364 -11.406   7.026  1.00  0.00     0.000 A 
HETATM   37  C   UNL     1      41.406 -11.288   6.117  1.00  0.00     0.002 A 
HETATM   38  C   UNL     1      41.474 -12.139   5.005  1.00  0.00     0.030 A 
ENDBRANCH   5  33
TORSDOF 10
ENDMDL
MODEL 9
REMARK VINA RESULT:      -7.7      2.261      6.846
REMARK  10 active torsions:
REMARK  status: ('A' for Active; 'I' for Inactive)
REMARK    1  A    between atoms: O_2  and  C_3 
REMARK    2  A    between atoms: C_6  and  N_7 
REMARK       I    between atoms: N_7  and  C_8 
REMARK    3  A    between atoms: C_8  and  C_9 
REMARK    4  A    between atoms: C_9  and  C_10 
REMARK    5  A    between atoms: N_11  and  C_12 
REMARK    6  A    between atoms: C_12  and  C_13 
REMARK    7  A    between atoms: C_13  and  C_14 
REMARK    8  A    between atoms: C_16  and  O_17 
REMARK    9  A    between atoms: C_19  and  O_20 
REMARK   10  A    between atoms: N_26  and  C_27 
ROOT
HETATM    1  C   UNL     1      40.190 -14.810   3.456  1.00  0.00     0.190 C 
HETATM    2  N   UNL     1      40.180 -13.381   3.204  1.00  0.00    -0.319 N 
HETATM    3  C   UNL     1      40.271 -13.106   1.842  1.00  0.00     0.332 C 
HETATM    4  O   UNL     1      40.537 -11.989   1.420  1.00  0.00    -0.246 OA
HETATM    5  N   UNL     1      40.073 -14.278   1.138  1.00  0.00    -0.232 N 
HETATM    6  C   UNL     1      40.019 -15.333   2.027  1.00  0.00     0.256 C 
HETATM    7  O   UNL     1      39.918 -16.532   1.787  1.00  0.00    -0.270 OA
ENDROOT
BRANCH   1   8
HETATM    8  C   UNL     1      41.520 -15.310   4.021  1.00  0.00     0.138 C 
BRANCH   8   9
HETATM    9  C   UNL     1      41.331 -16.014   5.342  1.00  0.00     0.224 C 
HETATM   10  N   UNL     1      41.711 -17.315   5.501  1.00  0.00    -0.327 N 
HETATM   11  H   UNL     1      41.371 -17.675   6.387  1.00  0.00     0.169 HD
HETATM   12  O   UNL     1      40.838 -15.435   6.313  1.00  0.00    -0.273 OA
BRANCH  10  13
HETATM   13  C   UNL     1      42.490 -18.205   4.739  1.00  0.00     0.034 A 
HETATM   14  C   UNL     1      42.404 -18.379   3.359  1.00  0.00     0.032 A 
HETATM   15  C   UNL     1      43.279 -19.247   2.695  1.00  0.00     0.039 A 
HETATM   16  C   UNL     1      44.264 -19.946   3.390  1.00  0.00     0.068 A 
HETATM   17  C   UNL     1      44.352 -19.790   4.769  1.00  0.00     0.039 A 
HETATM   18  C   UNL     1      43.477 -18.919   5.433  1.00  0.00     0.032 A 
BRANCH  16  19
HETATM   19  O   UNL     1      45.064 -20.737   2.614  1.00  0.00    -0.356 OA
HETATM   20  C   UNL     1      44.421 -21.789   1.904  1.00  0.00     0.210 C 
ENDBRANCH  16  19
ENDBRANCH  10  13
ENDBRANCH   8   9
ENDBRANCH   1   8
BRANCH   2  21
HETATM   21  C   UNL     1      40.530 -12.406   4.230  1.00  0.00     0.133 C 
BRANCH  21  22
HETATM   22  C   UNL     1      39.548 -12.347   5.406  1.00  0.00     0.058 C 
BRANCH  22  23
HETATM   23  C   UNL     1      40.204 -11.705   6.606  1.00  0.00    -0.054 A 
HETATM   24  C   UNL     1      39.462 -11.394   7.754  1.00  0.00     0.046 A 
HETATM   25  C   UNL     1      40.090 -10.860   8.888  1.00  0.00     0.102 A 
HETATM   26  C   UNL     1      41.484 -10.643   8.877  1.00  0.00     0.101 A 
HETATM   27  C   UNL     1      42.219 -10.947   7.727  1.00  0.00     0.040 A 
HETATM   28  C   UNL     1      41.584 -11.476   6.602  1.00  0.00     0.010 A 
BRANCH  25  29
HETATM   29  O   UNL     1      39.442 -10.540  10.055  1.00  0.00    -0.353 OA
HETATM   30  C   UNL     1      38.409  -9.568   9.992  1.00  0.00     0.210 C 
ENDBRANCH  25  29
BRANCH  26  31
HETATM   31  O   UNL     1      42.025 -10.130  10.030  1.00  0.00    -0.353 OA
HETATM   32  C   UNL     1      42.900 -10.967  10.773  1.00  0.00     0.210 C 
ENDBRANCH  26  31
ENDBRANCH  22  23
ENDBRANCH  21  22
ENDBRANCH   2  21
BRANCH   5  33
HETATM   33  C   UNL     1      40.007 -14.384  -0.290  1.00  0.00     0.047 A 
HETATM   34  C   UNL     1      38.881 -13.947  -1.010  1.00  0.00     0.030 A 
HETATM   35  C   UNL     1      38.810 -14.051  -2.407  1.00  0.00     0.002 A 
HETATM   36  C   UNL     1      39.864 -14.601  -3.122  1.00  0.00     0.000 A 
HETATM   37  C   UNL     1      40.986 -15.049  -2.440  1.00  0.00     0.002 A 
HETATM   38  C   UNL     1      41.054 -14.943  -1.044  1.00  0.00     0.030 A 
ENDBRANCH   5  33
TORSDOF 10
ENDMDL
MODEL 10
REMARK VINA RESULT:      -7.5      2.469      5.155
REMARK  10 active torsions:
REMARK  status: ('A' for Active; 'I' for Inactive)
REMARK    1  A    between atoms: O_2  and  C_3 
REMARK    2  A    between atoms: C_6  and  N_7 
REMARK       I    between atoms: N_7  and  C_8 
REMARK    3  A    between atoms: C_8  and  C_9 
REMARK    4  A    between atoms: C_9  and  C_10 
REMARK    5  A    between atoms: N_11  and  C_12 
REMARK    6  A    between atoms: C_12  and  C_13 
REMARK    7  A    between atoms: C_13  and  C_14 
REMARK    8  A    between atoms: C_16  and  O_17 
REMARK    9  A    between atoms: C_19  and  O_20 
REMARK   10  A    between atoms: N_26  and  C_27 
ROOT
HETATM    1  C   UNL     1      42.070 -15.566   3.660  1.00  0.00     0.190 C 
HETATM    2  N   UNL     1      41.548 -16.380   2.578  1.00  0.00    -0.319 N 
HETATM    3  C   UNL     1      42.160 -17.630   2.545  1.00  0.00     0.332 C 
HETATM    4  O   UNL     1      42.068 -18.375   1.579  1.00  0.00    -0.246 OA
HETATM    5  N   UNL     1      42.879 -17.804   3.712  1.00  0.00    -0.232 N 
HETATM    6  C   UNL     1      42.874 -16.621   4.424  1.00  0.00     0.256 C 
HETATM    7  O   UNL     1      43.450 -16.357   5.474  1.00  0.00    -0.270 OA
ENDROOT
BRANCH   1   8
HETATM    8  C   UNL     1      43.012 -14.462   3.179  1.00  0.00     0.138 C 
BRANCH   8   9
HETATM    9  C   UNL     1      42.933 -13.241   4.061  1.00  0.00     0.224 C 
HETATM   10  N   UNL     1      42.079 -12.218   3.764  1.00  0.00    -0.327 N 
HETATM   11  H   UNL     1      42.267 -11.419   4.361  1.00  0.00     0.169 HD
HETATM   12  O   UNL     1      43.629 -13.135   5.074  1.00  0.00    -0.273 OA
BRANCH  10  13
HETATM   13  C   UNL     1      41.003 -12.074   2.870  1.00  0.00     0.034 A 
HETATM   14  C   UNL     1      39.713 -12.561   3.070  1.00  0.00     0.032 A 
HETATM   15  C   UNL     1      38.700 -12.299   2.139  1.00  0.00     0.039 A 
HETATM   16  C   UNL     1      38.951 -11.537   0.999  1.00  0.00     0.068 A 
HETATM   17  C   UNL     1      40.237 -11.056   0.783  1.00  0.00     0.039 A 
HETATM   18  C   UNL     1      41.250 -11.316   1.716  1.00  0.00     0.032 A 
BRANCH  16  19
HETATM   19  O   UNL     1      37.867 -11.339   0.191  1.00  0.00    -0.356 OA
HETATM   20  C   UNL     1      36.682 -12.050   0.529  1.00  0.00     0.210 C 
ENDBRANCH  16  19
ENDBRANCH  10  13
ENDBRANCH   8   9
ENDBRANCH   1   8
BRANCH   2  21
HETATM   21  C   UNL     1      40.874 -15.802   1.422  1.00  0.00     0.133 C 
BRANCH  21  22
HETATM   22  C   UNL     1      41.820 -15.320   0.316  1.00  0.00     0.058 C 
BRANCH  22  23
HETATM   23  C   UNL     1      41.076 -14.448  -0.668  1.00  0.00    -0.054 A 
HETATM   24  C   UNL     1      41.757 -13.521  -1.470  1.00  0.00     0.046 A 
HETATM   25  C   UNL     1      41.068 -12.764  -2.428  1.00  0.00     0.102 A 
HETATM   26  C   UNL     1      39.679 -12.942  -2.593  1.00  0.00     0.101 A 
HETATM   27  C   UNL     1      39.003 -13.862  -1.785  1.00  0.00     0.040 A 
HETATM   28  C   UNL     1      39.697 -14.610  -0.833  1.00  0.00     0.010 A 
BRANCH  25  29
HETATM   29  O   UNL     1      41.658 -11.845  -3.261  1.00  0.00    -0.353 OA
HETATM   30  C   UNL     1      42.633 -10.977  -2.703  1.00  0.00     0.210 C 
ENDBRANCH  25  29
BRANCH  26  31
HETATM   31  O   UNL     1      39.080 -12.173  -3.560  1.00  0.00    -0.353 OA
HETATM   32  C   UNL     1      37.661 -12.115  -3.568  1.00  0.00     0.210 C 
ENDBRANCH  26  31
ENDBRANCH  22  23
ENDBRANCH  21  22
ENDBRANCH   2  21
BRANCH   5  33
HETATM   33  C   UNL     1      43.576 -19.001   4.084  1.00  0.00     0.047 A 
HETATM   34  C   UNL     1      43.606 -19.451   5.416  1.00  0.00     0.030 A 
HETATM   35  C   UNL     1      44.288 -20.619   5.787  1.00  0.00     0.002 A 
HETATM   36  C   UNL     1      44.965 -21.366   4.834  1.00  0.00     0.000 A 
HETATM   37  C   UNL     1      44.962 -20.943   3.511  1.00  0.00     0.002 A 
HETATM   38  C   UNL     1      44.277 -19.776   3.145  1.00  0.00     0.030 A 
ENDBRANCH   5  33
TORSDOF 10
ENDMDL
