MODEL 1
REMARK VINA RESULT:      -9.9      0.000      0.000
REMARK  6 active torsions:
REMARK  status: ('A' for Active; 'I' for Inactive)
REMARK    1  A    between atoms: O_2  and  C_3 
REMARK    2  A    between atoms: C_6  and  C_7 
REMARK    3  A    between atoms: C_11  and  C_12 
REMARK       I    between atoms: C_12  and  N_13 
REMARK    4  A    between atoms: N_13  and  N_14 
REMARK       I    between atoms: N_14  and  C_15 
REMARK    5  A    between atoms: C_15  and  C_16 
REMARK    6  A    between atoms: C_17  and  C_18 
ROOT
HETATM    1  C   UNL     1      45.031 -13.187   7.750  1.00  0.00     0.288 C 
HETATM    2  N   UNL     1      43.993 -14.083   7.600  1.00  0.00    -0.262 N 
HETATM    3  O   UNL     1      46.062 -13.271   7.083  1.00  0.00    -0.264 OA
HETATM    4  H   UNL     1      43.220 -14.146   8.258  1.00  0.00     0.190 HD
ENDROOT
BRANCH   1   5
HETATM    5  C   UNL     1      44.832 -12.166   8.741  1.00  0.00     0.121 A 
HETATM    6  N   UNL     1      45.810 -11.261   9.042  1.00  0.00    -0.272 N 
HETATM    7  N   UNL     1      45.473 -10.382   9.996  1.00  0.00    -0.174 NA
HETATM    8  H   UNL     1      46.734 -11.202   8.626  1.00  0.00     0.189 HD
HETATM    9  C   UNL     1      44.211 -10.704  10.328  1.00  0.00     0.089 A 
HETATM   10  C   UNL     1      43.776 -11.824   9.562  1.00  0.00     0.071 A 
BRANCH   9  11
HETATM   11  C   UNL     1      43.472  -9.956  11.351  1.00  0.00    -0.005 A 
HETATM   12  C   UNL     1      43.879  -9.956  12.691  1.00  0.00     0.016 A 
HETATM   13  C   UNL     1      43.166  -9.229  13.652  1.00  0.00     0.037 A 
HETATM   14  C   UNL     1      42.038  -8.488  13.296  1.00  0.00     0.068 A 
HETATM   15  C   UNL     1      41.618  -8.487  11.968  1.00  0.00     0.037 A 
HETATM   16  C   UNL     1      42.330  -9.216  11.006  1.00  0.00     0.016 A 
BRANCH  14  17
HETATM   17  O   UNL     1      41.440  -7.822  14.330  1.00  0.00    -0.356 OA
HETATM   18  C   UNL     1      41.612  -8.371  15.630  1.00  0.00     0.210 C 
ENDBRANCH  14  17
ENDBRANCH   9  11
ENDBRANCH   1   5
BRANCH   2  19
HETATM   19  N   UNL     1      44.193 -15.205   6.782  1.00  0.00    -0.267 N 
HETATM   20  C   UNL     1      44.021 -16.450   7.342  1.00  0.00     0.240 C 
HETATM   21  O   UNL     1      43.580 -16.627   8.474  1.00  0.00    -0.271 OA
HETATM   22  H   UNL     1      44.696 -15.051   5.911  1.00  0.00     0.190 HD
BRANCH  20  23
HETATM   23  C   UNL     1      44.444 -17.583   6.476  1.00  0.00     0.089 A 
HETATM   24  C   UNL     1      43.391 -18.513   5.890  1.00  0.00     0.034 A 
HETATM   25  C   UNL     1      44.326 -18.998   6.976  1.00  0.00     0.025 A 
BRANCH  24  26
HETATM   26  C   UNL     1      43.534 -19.012   4.465  1.00  0.00    -0.031 A 
HETATM   27  C   UNL     1      42.768 -18.510   3.393  1.00  0.00     0.040 A 
HETATM   28 CL   UNL     1      41.598 -17.259   3.647  1.00  0.00    -0.084 Cl
HETATM   29  C   UNL     1      42.914 -19.003   2.091  1.00  0.00     0.024 A 
HETATM   30  C   UNL     1      43.827 -20.021   1.828  1.00  0.00     0.002 A 
HETATM   31  C   UNL     1      44.586 -20.549   2.867  1.00  0.00     0.001 A 
HETATM   32  C   UNL     1      44.436 -20.054   4.165  1.00  0.00     0.009 A 
ENDBRANCH  24  26
ENDBRANCH  20  23
ENDBRANCH   2  19
TORSDOF 6
ENDMDL
MODEL 2
REMARK VINA RESULT:      -9.4      3.216     11.339
REMARK  6 active torsions:
REMARK  status: ('A' for Active; 'I' for Inactive)
REMARK    1  A    between atoms: O_2  and  C_3 
REMARK    2  A    between atoms: C_6  and  C_7 
REMARK    3  A    between atoms: C_11  and  C_12 
REMARK       I    between atoms: C_12  and  N_13 
REMARK    4  A    between atoms: N_13  and  N_14 
REMARK       I    between atoms: N_14  and  C_15 
REMARK    5  A    between atoms: C_15  and  C_16 
REMARK    6  A    between atoms: C_17  and  C_18 
ROOT
HETATM    1  C   UNL     1      42.516 -13.322   5.780  1.00  0.00     0.288 C 
HETATM    2  N   UNL     1      43.284 -13.296   6.926  1.00  0.00    -0.262 N 
HETATM    3  O   UNL     1      41.890 -12.335   5.397  1.00  0.00    -0.264 OA
HETATM    4  H   UNL     1      43.656 -14.138   7.358  1.00  0.00     0.190 HD
ENDROOT
BRANCH   1   5
HETATM    5  C   UNL     1      42.489 -14.575   5.079  1.00  0.00     0.121 A 
HETATM    6  N   UNL     1      41.434 -14.929   4.287  1.00  0.00    -0.272 N 
HETATM    7  N   UNL     1      41.554 -16.134   3.713  1.00  0.00    -0.174 NA
HETATM    8  H   UNL     1      40.597 -14.382   4.106  1.00  0.00     0.189 HD
HETATM    9  C   UNL     1      42.748 -16.591   4.125  1.00  0.00     0.089 A 
HETATM   10  C   UNL     1      43.364 -15.639   4.989  1.00  0.00     0.071 A 
BRANCH   9  11
HETATM   11  C   UNL     1      43.258 -17.900   3.700  1.00  0.00    -0.005 A 
HETATM   12  C   UNL     1      44.009 -18.706   4.565  1.00  0.00     0.016 A 
HETATM   13  C   UNL     1      44.479 -19.956   4.144  1.00  0.00     0.037 A 
HETATM   14  C   UNL     1      44.209 -20.426   2.857  1.00  0.00     0.068 A 
HETATM   15  C   UNL     1      43.471 -19.629   1.986  1.00  0.00     0.037 A 
HETATM   16  C   UNL     1      43.001 -18.377   2.406  1.00  0.00     0.016 A 
BRANCH  14  17
HETATM   17  O   UNL     1      44.722 -21.663   2.580  1.00  0.00    -0.356 OA
HETATM   18  C   UNL     1      44.669 -22.627   3.623  1.00  0.00     0.210 C 
ENDBRANCH  14  17
ENDBRANCH   9  11
ENDBRANCH   1   5
BRANCH   2  19
HETATM   19  N   UNL     1      43.212 -12.164   7.751  1.00  0.00    -0.267 N 
HETATM   20  C   UNL     1      43.920 -12.180   8.932  1.00  0.00     0.240 C 
HETATM   21  O   UNL     1      44.705 -13.073   9.236  1.00  0.00    -0.271 OA
HETATM   22  H   UNL     1      42.455 -11.510   7.565  1.00  0.00     0.190 HD
BRANCH  20  23
HETATM   23  C   UNL     1      43.636 -11.037   9.840  1.00  0.00     0.089 A 
HETATM   24  C   UNL     1      42.391 -11.065  10.714  1.00  0.00     0.034 A 
HETATM   25  C   UNL     1      42.488 -10.109   9.547  1.00  0.00     0.025 A 
BRANCH  24  26
HETATM   26  C   UNL     1      42.460 -10.553  12.141  1.00  0.00    -0.031 A 
HETATM   27  C   UNL     1      41.497 -10.873  13.120  1.00  0.00     0.040 A 
HETATM   28 CL   UNL     1      40.154 -11.899  12.744  1.00  0.00    -0.084 Cl
HETATM   29  C   UNL     1      41.581 -10.373  14.424  1.00  0.00     0.024 A 
HETATM   30  C   UNL     1      42.629  -9.529  14.783  1.00  0.00     0.002 A 
HETATM   31  C   UNL     1      43.586  -9.181  13.835  1.00  0.00     0.001 A 
HETATM   32  C   UNL     1      43.497  -9.683  12.534  1.00  0.00     0.009 A 
ENDBRANCH  24  26
ENDBRANCH  20  23
ENDBRANCH   2  19
TORSDOF 6
ENDMDL
MODEL 3
REMARK VINA RESULT:      -9.3      2.930     11.172
REMARK  6 active torsions:
REMARK  status: ('A' for Active; 'I' for Inactive)
REMARK    1  A    between atoms: O_2  and  C_3 
REMARK    2  A    between atoms: C_6  and  C_7 
REMARK    3  A    between atoms: C_11  and  C_12 
REMARK       I    between atoms: C_12  and  N_13 
REMARK    4  A    between atoms: N_13  and  N_14 
REMARK       I    between atoms: N_14  and  C_15 
REMARK    5  A    between atoms: C_15  and  C_16 
REMARK    6  A    between atoms: C_17  and  C_18 
ROOT
HETATM    1  C   UNL     1      43.182 -13.667   6.339  1.00  0.00     0.288 C 
HETATM    2  N   UNL     1      44.100 -13.796   7.361  1.00  0.00    -0.262 N 
HETATM    3  O   UNL     1      42.372 -12.741   6.308  1.00  0.00    -0.264 OA
HETATM    4  H   UNL     1      44.647 -14.641   7.505  1.00  0.00     0.190 HD
ENDROOT
BRANCH   1   5
HETATM    5  C   UNL     1      43.228 -14.688   5.330  1.00  0.00     0.121 A 
HETATM    6  N   UNL     1      42.909 -14.422   4.029  1.00  0.00    -0.272 N 
HETATM    7  N   UNL     1      42.989 -15.483   3.213  1.00  0.00    -0.174 NA
HETATM    8  H   UNL     1      42.623 -13.527   3.642  1.00  0.00     0.189 HD
HETATM    9  C   UNL     1      43.399 -16.490   4.002  1.00  0.00     0.089 A 
HETATM   10  C   UNL     1      43.556 -16.029   5.341  1.00  0.00     0.071 A 
BRANCH   9  11
HETATM   11  C   UNL     1      43.618 -17.841   3.471  1.00  0.00    -0.005 A 
HETATM   12  C   UNL     1      44.273 -18.823   4.225  1.00  0.00     0.016 A 
HETATM   13  C   UNL     1      44.465 -20.109   3.705  1.00  0.00     0.037 A 
HETATM   14  C   UNL     1      44.007 -20.440   2.428  1.00  0.00     0.068 A 
HETATM   15  C   UNL     1      43.361 -19.469   1.667  1.00  0.00     0.037 A 
HETATM   16  C   UNL     1      43.171 -18.182   2.186  1.00  0.00     0.016 A 
BRANCH  14  17
HETATM   17  O   UNL     1      44.255 -21.730   2.047  1.00  0.00    -0.356 OA
HETATM   18  C   UNL     1      44.575 -22.653   3.081  1.00  0.00     0.210 C 
ENDBRANCH  14  17
ENDBRANCH   9  11
ENDBRANCH   1   5
BRANCH   2  19
HETATM   19  N   UNL     1      43.992 -12.940   8.467  1.00  0.00    -0.267 N 
HETATM   20  C   UNL     1      45.151 -12.422   8.998  1.00  0.00     0.240 C 
HETATM   21  O   UNL     1      46.255 -12.567   8.480  1.00  0.00    -0.271 OA
HETATM   22  H   UNL     1      43.106 -12.951   8.968  1.00  0.00     0.190 HD
BRANCH  20  23
HETATM   23  C   UNL     1      44.973 -11.691  10.281  1.00  0.00     0.089 A 
HETATM   24  C   UNL     1      44.001 -10.522  10.348  1.00  0.00     0.034 A 
HETATM   25  C   UNL     1      45.493 -10.285  10.424  1.00  0.00     0.025 A 
BRANCH  24  26
HETATM   26  C   UNL     1      43.125 -10.340  11.574  1.00  0.00    -0.031 A 
HETATM   27  C   UNL     1      41.727 -10.523  11.553  1.00  0.00     0.040 A 
HETATM   28 CL   UNL     1      40.912 -10.986  10.098  1.00  0.00    -0.084 Cl
HETATM   29  C   UNL     1      40.945 -10.332  12.698  1.00  0.00     0.024 A 
HETATM   30  C   UNL     1      41.541  -9.943  13.895  1.00  0.00     0.002 A 
HETATM   31  C   UNL     1      42.915  -9.738  13.943  1.00  0.00     0.001 A 
HETATM   32  C   UNL     1      43.692  -9.928  12.797  1.00  0.00     0.009 A 
ENDBRANCH  24  26
ENDBRANCH  20  23
ENDBRANCH   2  19
TORSDOF 6
ENDMDL
MODEL 4
REMARK VINA RESULT:      -8.8      3.605     11.486
REMARK  6 active torsions:
REMARK  status: ('A' for Active; 'I' for Inactive)
REMARK    1  A    between atoms: O_2  and  C_3 
REMARK    2  A    between atoms: C_6  and  C_7 
REMARK    3  A    between atoms: C_11  and  C_12 
REMARK       I    between atoms: C_12  and  N_13 
REMARK    4  A    between atoms: N_13  and  N_14 
REMARK       I    between atoms: N_14  and  C_15 
REMARK    5  A    between atoms: C_15  and  C_16 
REMARK    6  A    between atoms: C_17  and  C_18 
ROOT
HETATM    1  C   UNL     1      40.551 -13.307   5.897  1.00  0.00     0.288 C 
HETATM    2  N   UNL     1      41.558 -12.538   6.444  1.00  0.00    -0.262 N 
HETATM    3  O   UNL     1      39.364 -13.082   6.128  1.00  0.00    -0.264 OA
HETATM    4  H   UNL     1      42.537 -12.814   6.417  1.00  0.00     0.190 HD
ENDROOT
BRANCH   1   5
HETATM    5  C   UNL     1      40.983 -14.388   5.055  1.00  0.00     0.121 A 
HETATM    6  N   UNL     1      40.519 -14.530   3.778  1.00  0.00    -0.272 N 
HETATM    7  N   UNL     1      41.007 -15.596   3.129  1.00  0.00    -0.174 NA
HETATM    8  H   UNL     1      39.859 -13.924   3.299  1.00  0.00     0.189 HD
HETATM    9  C   UNL     1      41.846 -16.175   4.005  1.00  0.00     0.089 A 
HETATM   10  C   UNL     1      41.853 -15.446   5.229  1.00  0.00     0.071 A 
BRANCH   9  11
HETATM   11  C   UNL     1      42.597 -17.388   3.661  1.00  0.00    -0.005 A 
HETATM   12  C   UNL     1      43.491 -17.972   4.567  1.00  0.00     0.016 A 
HETATM   13  C   UNL     1      44.193 -19.135   4.224  1.00  0.00     0.037 A 
HETATM   14  C   UNL     1      44.014 -19.738   2.977  1.00  0.00     0.068 A 
HETATM   15  C   UNL     1      43.134 -19.160   2.066  1.00  0.00     0.037 A 
HETATM   16  C   UNL     1      42.433 -17.996   2.407  1.00  0.00     0.016 A 
BRANCH  14  17
HETATM   17  O   UNL     1      44.755 -20.869   2.776  1.00  0.00    -0.356 OA
HETATM   18  C   UNL     1      44.235 -21.821   1.857  1.00  0.00     0.210 C 
ENDBRANCH  14  17
ENDBRANCH   9  11
ENDBRANCH   1   5
BRANCH   2  19
HETATM   19  N   UNL     1      41.216 -11.583   7.412  1.00  0.00    -0.267 N 
HETATM   20  C   UNL     1      42.215 -11.110   8.232  1.00  0.00     0.240 C 
HETATM   21  O   UNL     1      43.402 -11.383   8.077  1.00  0.00    -0.271 OA
HETATM   22  H   UNL     1      40.226 -11.484   7.626  1.00  0.00     0.190 HD
BRANCH  20  23
HETATM   23  C   UNL     1      41.742 -10.258   9.356  1.00  0.00     0.089 A 
HETATM   24  C   UNL     1      41.428 -10.897  10.701  1.00  0.00     0.034 A 
HETATM   25  C   UNL     1      40.316 -10.357   9.828  1.00  0.00     0.025 A 
BRANCH  24  26
HETATM   26  C   UNL     1      41.819 -10.187  11.983  1.00  0.00    -0.031 A 
HETATM   27  C   UNL     1      43.156 -10.058  12.413  1.00  0.00     0.040 A 
HETATM   28 CL   UNL     1      44.458 -10.709  11.477  1.00  0.00    -0.084 Cl
HETATM   29  C   UNL     1      43.483  -9.410  13.610  1.00  0.00     0.024 A 
HETATM   30  C   UNL     1      42.477  -8.881  14.415  1.00  0.00     0.002 A 
HETATM   31  C   UNL     1      41.148  -9.007  14.027  1.00  0.00     0.001 A 
HETATM   32  C   UNL     1      40.827  -9.656  12.832  1.00  0.00     0.009 A 
ENDBRANCH  24  26
ENDBRANCH  20  23
ENDBRANCH   2  19
TORSDOF 6
ENDMDL
MODEL 5
REMARK VINA RESULT:      -8.7      1.626      2.061
REMARK  6 active torsions:
REMARK  status: ('A' for Active; 'I' for Inactive)
REMARK    1  A    between atoms: O_2  and  C_3 
REMARK    2  A    between atoms: C_6  and  C_7 
REMARK    3  A    between atoms: C_11  and  C_12 
REMARK       I    between atoms: C_12  and  N_13 
REMARK    4  A    between atoms: N_13  and  N_14 
REMARK       I    between atoms: N_14  and  C_15 
REMARK    5  A    between atoms: C_15  and  C_16 
REMARK    6  A    between atoms: C_17  and  C_18 
ROOT
HETATM    1  C   UNL     1      44.218 -13.528   6.906  1.00  0.00     0.288 C 
HETATM    2  N   UNL     1      42.990 -13.598   6.280  1.00  0.00    -0.262 N 
HETATM    3  O   UNL     1      45.195 -14.147   6.488  1.00  0.00    -0.264 OA
HETATM    4  H   UNL     1      42.134 -13.250   6.706  1.00  0.00     0.190 HD
ENDROOT
BRANCH   1   5
HETATM    5  C   UNL     1      44.271 -12.700   8.078  1.00  0.00     0.121 A 
HETATM    6  N   UNL     1      45.410 -12.586   8.823  1.00  0.00    -0.272 N 
HETATM    7  N   UNL     1      45.293 -11.787   9.892  1.00  0.00    -0.174 NA
HETATM    8  H   UNL     1      46.301 -13.041   8.647  1.00  0.00     0.189 HD
HETATM    9  C   UNL     1      44.029 -11.334   9.844  1.00  0.00     0.089 A 
HETATM   10  C   UNL     1      43.354 -11.890   8.719  1.00  0.00     0.071 A 
BRANCH   9  11
HETATM   11  C   UNL     1      43.506 -10.407  10.855  1.00  0.00    -0.005 A 
HETATM   12  C   UNL     1      43.988 -10.416  12.170  1.00  0.00     0.016 A 
HETATM   13  C   UNL     1      43.483  -9.519  13.119  1.00  0.00     0.037 A 
HETATM   14  C   UNL     1      42.493  -8.596  12.776  1.00  0.00     0.068 A 
HETATM   15  C   UNL     1      42.000  -8.585  11.473  1.00  0.00     0.037 A 
HETATM   16  C   UNL     1      42.503  -9.484  10.524  1.00  0.00     0.016 A 
BRANCH  14  17
HETATM   17  O   UNL     1      42.095  -7.777  13.795  1.00  0.00    -0.356 OA
HETATM   18  C   UNL     1      41.761  -8.404  15.028  1.00  0.00     0.210 C 
ENDBRANCH  14  17
ENDBRANCH   9  11
ENDBRANCH   1   5
BRANCH   2  19
HETATM   19  N   UNL     1      42.823 -14.525   5.241  1.00  0.00    -0.267 N 
HETATM   20  C   UNL     1      42.235 -15.732   5.541  1.00  0.00     0.240 C 
HETATM   21  O   UNL     1      41.737 -15.988   6.633  1.00  0.00    -0.271 OA
HETATM   22  H   UNL     1      43.367 -14.365   4.395  1.00  0.00     0.190 HD
BRANCH  20  23
HETATM   23  C   UNL     1      42.276 -16.732   4.440  1.00  0.00     0.089 A 
HETATM   24  C   UNL     1      43.617 -17.144   3.851  1.00  0.00     0.034 A 
HETATM   25  C   UNL     1      42.651 -16.303   3.047  1.00  0.00     0.025 A 
BRANCH  24  26
HETATM   26  C   UNL     1      43.866 -18.596   3.487  1.00  0.00    -0.031 A 
HETATM   27  C   UNL     1      44.491 -19.511   4.360  1.00  0.00     0.040 A 
HETATM   28 CL   UNL     1      45.013 -19.021   5.936  1.00  0.00    -0.084 Cl
HETATM   29  C   UNL     1      44.720 -20.841   3.988  1.00  0.00     0.024 A 
HETATM   30  C   UNL     1      44.337 -21.290   2.727  1.00  0.00     0.002 A 
HETATM   31  C   UNL     1      43.734 -20.407   1.837  1.00  0.00     0.001 A 
HETATM   32  C   UNL     1      43.509 -19.081   2.212  1.00  0.00     0.009 A 
ENDBRANCH  24  26
ENDBRANCH  20  23
ENDBRANCH   2  19
TORSDOF 6
ENDMDL
MODEL 6
REMARK VINA RESULT:      -8.6      4.004      4.584
REMARK  6 active torsions:
REMARK  status: ('A' for Active; 'I' for Inactive)
REMARK    1  A    between atoms: O_2  and  C_3 
REMARK    2  A    between atoms: C_6  and  C_7 
REMARK    3  A    between atoms: C_11  and  C_12 
REMARK       I    between atoms: C_12  and  N_13 
REMARK    4  A    between atoms: N_13  and  N_14 
REMARK       I    between atoms: N_14  and  C_15 
REMARK    5  A    between atoms: C_15  and  C_16 
REMARK    6  A    between atoms: C_17  and  C_18 
ROOT
HETATM    1  C   UNL     1      42.651 -13.432   3.729  1.00  0.00     0.288 C 
HETATM    2  N   UNL     1      41.723 -14.243   3.107  1.00  0.00    -0.262 N 
HETATM    3  O   UNL     1      43.861 -13.605   3.587  1.00  0.00    -0.264 OA
HETATM    4  H   UNL     1      40.736 -14.236   3.352  1.00  0.00     0.190 HD
ENDROOT
BRANCH   1   5
HETATM    5  C   UNL     1      42.111 -12.389   4.555  1.00  0.00     0.121 A 
HETATM    6  N   UNL     1      41.846 -11.145   4.057  1.00  0.00    -0.272 N 
HETATM    7  N   UNL     1      41.357 -10.282   4.958  1.00  0.00    -0.174 NA
HETATM    8  H   UNL     1      41.986 -10.830   3.101  1.00  0.00     0.189 HD
HETATM    9  C   UNL     1      41.275 -10.988   6.098  1.00  0.00     0.089 A 
HETATM   10  C   UNL     1      41.744 -12.317   5.885  1.00  0.00     0.071 A 
BRANCH   9  11
HETATM   11  C   UNL     1      40.769 -10.388   7.338  1.00  0.00    -0.005 A 
HETATM   12  C   UNL     1      39.664 -10.925   8.010  1.00  0.00     0.016 A 
HETATM   13  C   UNL     1      39.201 -10.344   9.197  1.00  0.00     0.037 A 
HETATM   14  C   UNL     1      39.830  -9.220   9.736  1.00  0.00     0.068 A 
HETATM   15  C   UNL     1      40.924  -8.672   9.072  1.00  0.00     0.037 A 
HETATM   16  C   UNL     1      41.387  -9.252   7.883  1.00  0.00     0.016 A 
BRANCH  14  17
HETATM   17  O   UNL     1      39.280  -8.759  10.899  1.00  0.00    -0.356 OA
HETATM   18  C   UNL     1      37.913  -9.077  11.132  1.00  0.00     0.210 C 
ENDBRANCH  14  17
ENDBRANCH   9  11
ENDBRANCH   1   5
BRANCH   2  19
HETATM   19  N   UNL     1      42.180 -15.384   2.433  1.00  0.00    -0.267 N 
HETATM   20  C   UNL     1      41.784 -16.615   2.906  1.00  0.00     0.240 C 
HETATM   21  O   UNL     1      40.956 -16.759   3.800  1.00  0.00    -0.271 OA
HETATM   22  H   UNL     1      42.971 -15.257   1.804  1.00  0.00     0.190 HD
BRANCH  20  23
HETATM   23  C   UNL     1      42.466 -17.773   2.268  1.00  0.00     0.089 A 
HETATM   24  C   UNL     1      43.798 -18.257   2.821  1.00  0.00     0.034 A 
HETATM   25  C   UNL     1      43.731 -17.561   1.480  1.00  0.00     0.025 A 
BRANCH  24  26
HETATM   26  C   UNL     1      44.082 -19.745   2.908  1.00  0.00    -0.031 A 
HETATM   27  C   UNL     1      44.531 -20.374   4.088  1.00  0.00     0.040 A 
HETATM   28 CL   UNL     1      44.780 -19.466   5.540  1.00  0.00    -0.084 Cl
HETATM   29  C   UNL     1      44.799 -21.747   4.130  1.00  0.00     0.024 A 
HETATM   30  C   UNL     1      44.633 -22.528   2.989  1.00  0.00     0.002 A 
HETATM   31  C   UNL     1      44.208 -21.933   1.806  1.00  0.00     0.001 A 
HETATM   32  C   UNL     1      43.943 -20.562   1.768  1.00  0.00     0.009 A 
ENDBRANCH  24  26
ENDBRANCH  20  23
ENDBRANCH   2  19
TORSDOF 6
ENDMDL
MODEL 7
REMARK VINA RESULT:      -8.3      2.642      3.237
REMARK  6 active torsions:
REMARK  status: ('A' for Active; 'I' for Inactive)
REMARK    1  A    between atoms: O_2  and  C_3 
REMARK    2  A    between atoms: C_6  and  C_7 
REMARK    3  A    between atoms: C_11  and  C_12 
REMARK       I    between atoms: C_12  and  N_13 
REMARK    4  A    between atoms: N_13  and  N_14 
REMARK       I    between atoms: N_14  and  C_15 
REMARK    5  A    between atoms: C_15  and  C_16 
REMARK    6  A    between atoms: C_17  and  C_18 
ROOT
HETATM    1  C   UNL     1      41.520 -12.529   5.428  1.00  0.00     0.288 C 
HETATM    2  N   UNL     1      41.286 -13.816   5.867  1.00  0.00    -0.262 N 
HETATM    3  O   UNL     1      41.592 -12.256   4.231  1.00  0.00    -0.264 OA
HETATM    4  H   UNL     1      41.405 -14.097   6.838  1.00  0.00     0.190 HD
ENDROOT
BRANCH   1   5
HETATM    5  C   UNL     1      41.685 -11.542   6.458  1.00  0.00     0.121 A 
HETATM    6  N   UNL     1      41.574 -10.206   6.194  1.00  0.00    -0.272 N 
HETATM    7  N   UNL     1      41.768  -9.415   7.257  1.00  0.00    -0.174 NA
HETATM    8  H   UNL     1      41.370  -9.778   5.295  1.00  0.00     0.189 HD
HETATM    9  C   UNL     1      41.997 -10.261   8.276  1.00  0.00     0.089 A 
HETATM   10  C   UNL     1      41.957 -11.607   7.810  1.00  0.00     0.071 A 
BRANCH   9  11
HETATM   11  C   UNL     1      42.251  -9.774   9.637  1.00  0.00    -0.005 A 
HETATM   12  C   UNL     1      41.442  -8.792  10.222  1.00  0.00     0.016 A 
HETATM   13  C   UNL     1      41.695  -8.346  11.525  1.00  0.00     0.037 A 
HETATM   14  C   UNL     1      42.754  -8.871  12.269  1.00  0.00     0.068 A 
HETATM   15  C   UNL     1      43.570  -9.842  11.693  1.00  0.00     0.037 A 
HETATM   16  C   UNL     1      43.319 -10.287  10.389  1.00  0.00     0.016 A 
BRANCH  14  17
HETATM   17  O   UNL     1      42.883  -8.351  13.526  1.00  0.00    -0.356 OA
HETATM   18  C   UNL     1      42.807  -9.269  14.610  1.00  0.00     0.210 C 
ENDBRANCH  14  17
ENDBRANCH   9  11
ENDBRANCH   1   5
BRANCH   2  19
HETATM   19  N   UNL     1      41.294 -14.854   4.924  1.00  0.00    -0.267 N 
HETATM   20  C   UNL     1      41.294 -16.149   5.390  1.00  0.00     0.240 C 
HETATM   21  O   UNL     1      41.158 -16.441   6.575  1.00  0.00    -0.271 OA
HETATM   22  H   UNL     1      41.556 -14.605   3.973  1.00  0.00     0.190 HD
BRANCH  20  23
HETATM   23  C   UNL     1      41.505 -17.185   4.343  1.00  0.00     0.089 A 
HETATM   24  C   UNL     1      42.862 -17.300   3.665  1.00  0.00     0.034 A 
HETATM   25  C   UNL     1      41.665 -16.777   2.903  1.00  0.00     0.025 A 
BRANCH  24  26
HETATM   26  C   UNL     1      43.438 -18.669   3.358  1.00  0.00    -0.031 A 
HETATM   27  C   UNL     1      44.363 -19.321   4.199  1.00  0.00     0.040 A 
HETATM   28 CL   UNL     1      44.900 -18.583   5.670  1.00  0.00    -0.084 Cl
HETATM   29  C   UNL     1      44.887 -20.579   3.879  1.00  0.00     0.024 A 
HETATM   30  C   UNL     1      44.506 -21.216   2.701  1.00  0.00     0.002 A 
HETATM   31  C   UNL     1      43.608 -20.591   1.842  1.00  0.00     0.001 A 
HETATM   32  C   UNL     1      43.089 -19.335   2.165  1.00  0.00     0.009 A 
ENDBRANCH  24  26
ENDBRANCH  20  23
ENDBRANCH   2  19
TORSDOF 6
ENDMDL
MODEL 8
REMARK VINA RESULT:      -8.1      9.364     10.793
REMARK  6 active torsions:
REMARK  status: ('A' for Active; 'I' for Inactive)
REMARK    1  A    between atoms: O_2  and  C_3 
REMARK    2  A    between atoms: C_6  and  C_7 
REMARK    3  A    between atoms: C_11  and  C_12 
REMARK       I    between atoms: C_12  and  N_13 
REMARK    4  A    between atoms: N_13  and  N_14 
REMARK       I    between atoms: N_14  and  C_15 
REMARK    5  A    between atoms: C_15  and  C_16 
REMARK    6  A    between atoms: C_17  and  C_18 
ROOT
HETATM    1  C   UNL     1      40.916 -14.028  -0.933  1.00  0.00     0.288 C 
HETATM    2  N   UNL     1      40.581 -15.303  -0.526  1.00  0.00    -0.262 N 
HETATM    3  O   UNL     1      42.065 -13.732  -1.257  1.00  0.00    -0.264 OA
HETATM    4  H   UNL     1      39.692 -15.523  -0.083  1.00  0.00     0.190 HD
ENDROOT
BRANCH   1   5
HETATM    5  C   UNL     1      39.841 -13.076  -0.942  1.00  0.00     0.121 A 
HETATM    6  N   UNL     1      40.064 -11.746  -1.155  1.00  0.00    -0.272 N 
HETATM    7  N   UNL     1      38.960 -10.987  -1.119  1.00  0.00    -0.174 NA
HETATM    8  H   UNL     1      40.960 -11.298  -1.328  1.00  0.00     0.189 HD
HETATM    9  C   UNL     1      37.958 -11.854  -0.892  1.00  0.00     0.089 A 
HETATM   10  C   UNL     1      38.474 -13.176  -0.770  1.00  0.00     0.071 A 
BRANCH   9  11
HETATM   11  C   UNL     1      36.564 -11.405  -0.791  1.00  0.00    -0.005 A 
HETATM   12  C   UNL     1      35.848 -10.992  -1.921  1.00  0.00     0.016 A 
HETATM   13  C   UNL     1      34.516 -10.576  -1.806  1.00  0.00     0.037 A 
HETATM   14  C   UNL     1      33.873 -10.567  -0.567  1.00  0.00     0.068 A 
HETATM   15  C   UNL     1      34.578 -10.969   0.565  1.00  0.00     0.037 A 
HETATM   16  C   UNL     1      35.912 -11.383   0.451  1.00  0.00     0.016 A 
BRANCH  14  17
HETATM   17  O   UNL     1      32.573 -10.145  -0.599  1.00  0.00    -0.356 OA
HETATM   18  C   UNL     1      31.692 -10.847  -1.466  1.00  0.00     0.210 C 
ENDBRANCH  14  17
ENDBRANCH   9  11
ENDBRANCH   1   5
BRANCH   2  19
HETATM   19  N   UNL     1      41.613 -16.231  -0.324  1.00  0.00    -0.267 N 
HETATM   20  C   UNL     1      41.546 -17.039   0.789  1.00  0.00     0.240 C 
HETATM   21  O   UNL     1      40.574 -17.077   1.537  1.00  0.00    -0.271 OA
HETATM   22  H   UNL     1      42.469 -16.086  -0.855  1.00  0.00     0.190 HD
BRANCH  20  23
HETATM   23  C   UNL     1      42.767 -17.850   1.041  1.00  0.00     0.089 A 
HETATM   24  C   UNL     1      43.168 -18.178   2.471  1.00  0.00     0.034 A 
HETATM   25  C   UNL     1      43.985 -17.208   1.648  1.00  0.00     0.025 A 
BRANCH  24  26
HETATM   26  C   UNL     1      43.708 -19.555   2.807  1.00  0.00    -0.031 A 
HETATM   27  C   UNL     1      44.405 -19.839   3.999  1.00  0.00     0.040 A 
HETATM   28 CL   UNL     1      44.685 -18.604   5.180  1.00  0.00    -0.084 Cl
HETATM   29  C   UNL     1      44.904 -21.118   4.272  1.00  0.00     0.024 A 
HETATM   30  C   UNL     1      44.725 -22.148   3.352  1.00  0.00     0.002 A 
HETATM   31  C   UNL     1      44.056 -21.896   2.160  1.00  0.00     0.001 A 
HETATM   32  C   UNL     1      43.561 -20.618   1.892  1.00  0.00     0.009 A 
ENDBRANCH  24  26
ENDBRANCH  20  23
ENDBRANCH   2  19
TORSDOF 6
ENDMDL
MODEL 9
REMARK VINA RESULT:      -7.9      9.191     12.629
REMARK  6 active torsions:
REMARK  status: ('A' for Active; 'I' for Inactive)
REMARK    1  A    between atoms: O_2  and  C_3 
REMARK    2  A    between atoms: C_6  and  C_7 
REMARK    3  A    between atoms: C_11  and  C_12 
REMARK       I    between atoms: C_12  and  N_13 
REMARK    4  A    between atoms: N_13  and  N_14 
REMARK       I    between atoms: N_14  and  C_15 
REMARK    5  A    between atoms: C_15  and  C_16 
REMARK    6  A    between atoms: C_17  and  C_18 
ROOT
HETATM    1  C   UNL     1      40.520 -15.270  -2.377  1.00  0.00     0.288 C 
HETATM    2  N   UNL     1      40.633 -15.549  -1.030  1.00  0.00    -0.262 N 
HETATM    3  O   UNL     1      41.173 -15.881  -3.222  1.00  0.00    -0.264 OA
HETATM    4  H   UNL     1      40.249 -14.942  -0.309  1.00  0.00     0.190 HD
ENDROOT
BRANCH   1   5
HETATM    5  C   UNL     1      39.605 -14.218  -2.719  1.00  0.00     0.121 A 
HETATM    6  N   UNL     1      39.948 -12.902  -2.594  1.00  0.00    -0.272 N 
HETATM    7  N   UNL     1      38.980 -12.043  -2.941  1.00  0.00    -0.174 NA
HETATM    8  H   UNL     1      40.837 -12.533  -2.270  1.00  0.00     0.189 HD
HETATM    9  C   UNL     1      37.957 -12.822  -3.333  1.00  0.00     0.089 A 
HETATM   10  C   UNL     1      38.311 -14.196  -3.203  1.00  0.00     0.071 A 
BRANCH   9  11
HETATM   11  C   UNL     1      36.690 -12.247  -3.803  1.00  0.00    -0.005 A 
HETATM   12  C   UNL     1      36.262 -10.983  -3.379  1.00  0.00     0.016 A 
HETATM   13  C   UNL     1      35.056 -10.447  -3.846  1.00  0.00     0.037 A 
HETATM   14  C   UNL     1      34.257 -11.158  -4.744  1.00  0.00     0.068 A 
HETATM   15  C   UNL     1      34.669 -12.420  -5.165  1.00  0.00     0.037 A 
HETATM   16  C   UNL     1      35.875 -12.957  -4.697  1.00  0.00     0.016 A 
BRANCH  14  17
HETATM   17  O   UNL     1      33.110 -10.517  -5.122  1.00  0.00    -0.356 OA
HETATM   18  C   UNL     1      31.901 -11.260  -5.031  1.00  0.00     0.210 C 
ENDBRANCH  14  17
ENDBRANCH   9  11
ENDBRANCH   1   5
BRANCH   2  19
HETATM   19  N   UNL     1      41.636 -16.437  -0.614  1.00  0.00    -0.267 N 
HETATM   20  C   UNL     1      41.709 -16.746   0.725  1.00  0.00     0.240 C 
HETATM   21  O   UNL     1      40.870 -16.390   1.547  1.00  0.00    -0.271 OA
HETATM   22  H   UNL     1      42.400 -16.600  -1.266  1.00  0.00     0.190 HD
BRANCH  20  23
HETATM   23  C   UNL     1      42.912 -17.529   1.115  1.00  0.00     0.089 A 
HETATM   24  C   UNL     1      43.024 -18.076   2.530  1.00  0.00     0.034 A 
HETATM   25  C   UNL     1      43.913 -16.942   2.074  1.00  0.00     0.025 A 
BRANCH  24  26
HETATM   26  C   UNL     1      43.594 -19.464   2.760  1.00  0.00    -0.031 A 
HETATM   27  C   UNL     1      44.358 -19.803   3.896  1.00  0.00     0.040 A 
HETATM   28 CL   UNL     1      44.689 -18.632   5.126  1.00  0.00    -0.084 Cl
HETATM   29  C   UNL     1      44.883 -21.089   4.070  1.00  0.00     0.024 A 
HETATM   30  C   UNL     1      44.665 -22.069   3.105  1.00  0.00     0.002 A 
HETATM   31  C   UNL     1      43.929 -21.761   1.966  1.00  0.00     0.001 A 
HETATM   32  C   UNL     1      43.408 -20.476   1.796  1.00  0.00     0.009 A 
ENDBRANCH  24  26
ENDBRANCH  20  23
ENDBRANCH   2  19
TORSDOF 6
ENDMDL
MODEL 10
REMARK VINA RESULT:      -7.9      4.511     11.232
REMARK  6 active torsions:
REMARK  status: ('A' for Active; 'I' for Inactive)
REMARK    1  A    between atoms: O_2  and  C_3 
REMARK    2  A    between atoms: C_6  and  C_7 
REMARK    3  A    between atoms: C_11  and  C_12 
REMARK       I    between atoms: C_12  and  N_13 
REMARK    4  A    between atoms: N_13  and  N_14 
REMARK       I    between atoms: N_14  and  C_15 
REMARK    5  A    between atoms: C_15  and  C_16 
REMARK    6  A    between atoms: C_17  and  C_18 
ROOT
HETATM    1  C   UNL     1      42.101 -12.410   6.155  1.00  0.00     0.288 C 
HETATM    2  N   UNL     1      43.243 -12.666   6.887  1.00  0.00    -0.262 N 
HETATM    3  O   UNL     1      41.237 -11.630   6.554  1.00  0.00    -0.264 OA
HETATM    4  H   UNL     1      43.874 -13.435   6.671  1.00  0.00     0.190 HD
ENDROOT
BRANCH   1   5
HETATM    5  C   UNL     1      41.986 -13.122   4.913  1.00  0.00     0.121 A 
HETATM    6  N   UNL     1      41.992 -14.488   4.868  1.00  0.00    -0.272 N 
HETATM    7  N   UNL     1      41.890 -14.999   3.634  1.00  0.00    -0.174 NA
HETATM    8  H   UNL     1      42.068 -15.123   5.657  1.00  0.00     0.189 HD
HETATM    9  C   UNL     1      41.792 -13.929   2.827  1.00  0.00     0.089 A 
HETATM   10  C   UNL     1      41.853 -12.731   3.596  1.00  0.00     0.071 A 
BRANCH   9  11
HETATM   11  C   UNL     1      41.653 -14.074   1.373  1.00  0.00    -0.005 A 
HETATM   12  C   UNL     1      41.216 -15.274   0.799  1.00  0.00     0.016 A 
HETATM   13  C   UNL     1      41.081 -15.390  -0.590  1.00  0.00     0.037 A 
HETATM   14  C   UNL     1      41.377 -14.315  -1.431  1.00  0.00     0.068 A 
HETATM   15  C   UNL     1      41.821 -13.120  -0.871  1.00  0.00     0.037 A 
HETATM   16  C   UNL     1      41.958 -13.003   0.519  1.00  0.00     0.016 A 
BRANCH  14  17
HETATM   17  O   UNL     1      41.197 -14.563  -2.763  1.00  0.00    -0.356 OA
HETATM   18  C   UNL     1      40.601 -15.807  -3.108  1.00  0.00     0.210 C 
ENDBRANCH  14  17
ENDBRANCH   9  11
ENDBRANCH   1   5
BRANCH   2  19
HETATM   19  N   UNL     1      43.334 -12.144   8.185  1.00  0.00    -0.267 N 
HETATM   20  C   UNL     1      44.466 -12.426   8.916  1.00  0.00     0.240 C 
HETATM   21  O   UNL     1      45.447 -12.997   8.448  1.00  0.00    -0.271 OA
HETATM   22  H   UNL     1      42.469 -11.811   8.605  1.00  0.00     0.190 HD
BRANCH  20  23
HETATM   23  C   UNL     1      44.402 -12.011  10.343  1.00  0.00     0.089 A 
HETATM   24  C   UNL     1      44.065 -10.568  10.689  1.00  0.00     0.034 A 
HETATM   25  C   UNL     1      45.461 -11.105  10.911  1.00  0.00     0.025 A 
BRANCH  24  26
HETATM   26  C   UNL     1      43.155 -10.268  11.866  1.00  0.00    -0.031 A 
HETATM   27  C   UNL     1      41.754 -10.423  11.813  1.00  0.00     0.040 A 
HETATM   28 CL   UNL     1      40.975 -10.986  10.373  1.00  0.00    -0.084 Cl
HETATM   29  C   UNL     1      40.940 -10.123  12.912  1.00  0.00     0.024 A 
HETATM   30  C   UNL     1      41.507  -9.650  14.093  1.00  0.00     0.002 A 
HETATM   31  C   UNL     1      42.884  -9.471  14.170  1.00  0.00     0.001 A 
HETATM   32  C   UNL     1      43.692  -9.771  13.070  1.00  0.00     0.009 A 
ENDBRANCH  24  26
ENDBRANCH  20  23
ENDBRANCH   2  19
TORSDOF 6
ENDMDL
