MODEL 1
REMARK VINA RESULT:      -8.5      0.000      0.000
REMARK  9 active torsions:
REMARK  status: ('A' for Active; 'I' for Inactive)
REMARK    1  A    between atoms: C_7  and  O_8 
REMARK    2  A    between atoms: O_8  and  C_9 
REMARK    3  A    between atoms: C_9  and  C_10 
REMARK    4  A    between atoms: C_10  and  O_11 
REMARK    5  A    between atoms: C_10  and  C_12 
REMARK    6  A    between atoms: C_12  and  N_13 
REMARK    7  A    between atoms: N_18  and  C_19 
REMARK    8  A    between atoms: C_19  and  C_20 
REMARK    9  A    between atoms: C_20  and  N_21 
ROOT
HETATM    1  N   UNL     1      40.600 -14.468   3.094  1.00  0.00    -0.179 N 
HETATM    2  C   UNL     1      39.806 -14.934   2.064  1.00  0.00     0.681 A 
HETATM    3  N   UNL     1      39.947 -16.137   1.506  1.00  0.00    -0.234 N 
HETATM    4  H   UNL     1      39.331 -16.542   0.823  1.00  0.00     0.174 HD
HETATM    5  H   UNL     1      40.798 -16.666   1.739  1.00  0.00     0.174 HD
HETATM    6  N   UNL     1      38.833 -14.021   1.664  1.00  0.00    -0.180 N 
HETATM    7  C   UNL     1      39.012 -12.906   2.541  1.00  0.00     0.079 A 
HETATM    8  C   UNL     1      40.091 -13.174   3.401  1.00  0.00     0.079 A 
HETATM    9  C   UNL     1      38.298 -11.728   2.614  1.00  0.00     0.032 A 
HETATM   10  C   UNL     1      38.700 -10.799   3.580  1.00  0.00     0.002 A 
HETATM   11  C   UNL     1      39.785 -11.064   4.438  1.00  0.00     0.002 A 
HETATM   12  C   UNL     1      40.496 -12.268   4.356  1.00  0.00     0.032 A 
ENDROOT
BRANCH   1  13
HETATM   13  C   UNL     1      41.665 -15.185   3.822  1.00  0.00     0.181 C 
BRANCH  13  14
HETATM   14  C   UNL     1      43.062 -14.952   3.235  1.00  0.00     0.161 C 
BRANCH  14  15
HETATM   15  C   UNL     1      43.504 -16.125   2.348  1.00  0.00     0.209 C 
BRANCH  15  16
HETATM   16  O   UNL     1      42.638 -17.217   2.668  1.00  0.00    -0.349 OA
BRANCH  16  17
HETATM   17  C   UNL     1      43.228 -18.389   3.058  1.00  0.00     0.069 A 
HETATM   18  C   UNL     1      43.602 -18.430   4.402  1.00  0.00     0.038 A 
HETATM   19  C   UNL     1      44.226 -19.563   4.927  1.00  0.00     0.027 A 
HETATM   20  C   UNL     1      44.478 -20.666   4.110  1.00  0.00     0.040 A 
HETATM   21  C   UNL     1      44.098 -20.649   2.759  1.00  0.00    -0.038 A 
HETATM   22 CL   UNL     1      45.266 -22.029   4.815  1.00  0.00    -0.084 Cl
HETATM   23  C   UNL     1      44.364 -21.818   1.851  1.00  0.00     0.050 C 
HETATM   24  C   UNL     1      43.475 -19.496   2.243  1.00  0.00     0.045 A 
ENDBRANCH  16  17
ENDBRANCH  15  16
ENDBRANCH  14  15
BRANCH  14  25
HETATM   25  O   UNL     1      43.042 -13.745   2.442  1.00  0.00    -0.392 OA
HETATM   26  H   UNL     1      42.191 -13.308   2.681  1.00  0.00     0.210 HD
ENDBRANCH  14  25
ENDBRANCH  13  14
ENDBRANCH   1  13
BRANCH   6  27
HETATM   27  C   UNL     1      37.776 -14.177   0.660  1.00  0.00     0.175 C 
BRANCH  27  28
HETATM   28  C   UNL     1      38.169 -13.607  -0.719  1.00  0.00     0.256 C 
BRANCH  28  29
HETATM   29  N   UNL     1      38.787 -14.646  -1.636  1.00  0.00    -0.066 N 
HETATM   30  H   UNL     1      38.585 -15.589  -1.275  1.00  0.00     0.280 HD
HETATM   31  C   UNL     1      38.142 -14.591  -3.038  1.00  0.00     0.261 C 
HETATM   32  C   UNL     1      38.778 -15.648  -3.947  1.00  0.00     0.195 C 
HETATM   33  O   UNL     1      40.191 -15.447  -4.035  1.00  0.00    -0.388 OA
HETATM   34  C   UNL     1      40.828 -15.582  -2.764  1.00  0.00     0.195 C 
HETATM   35  C   UNL     1      40.309 -14.525  -1.783  1.00  0.00     0.261 C 
ENDBRANCH  28  29
ENDBRANCH  27  28
ENDBRANCH   6  27
TORSDOF 9
ENDMDL
MODEL 2
REMARK VINA RESULT:      -8.4      1.185      1.709
REMARK  9 active torsions:
REMARK  status: ('A' for Active; 'I' for Inactive)
REMARK    1  A    between atoms: C_7  and  O_8 
REMARK    2  A    between atoms: O_8  and  C_9 
REMARK    3  A    between atoms: C_9  and  C_10 
REMARK    4  A    between atoms: C_10  and  O_11 
REMARK    5  A    between atoms: C_10  and  C_12 
REMARK    6  A    between atoms: C_12  and  N_13 
REMARK    7  A    between atoms: N_18  and  C_19 
REMARK    8  A    between atoms: C_19  and  C_20 
REMARK    9  A    between atoms: C_20  and  N_21 
ROOT
HETATM    1  N   UNL     1      40.405 -14.253   3.026  1.00  0.00    -0.179 N 
HETATM    2  C   UNL     1      39.640 -14.750   1.989  1.00  0.00     0.681 A 
HETATM    3  N   UNL     1      39.808 -15.962   1.459  1.00  0.00    -0.234 N 
HETATM    4  H   UNL     1      39.212 -16.388   0.772  1.00  0.00     0.174 HD
HETATM    5  H   UNL     1      40.660 -16.475   1.722  1.00  0.00     0.174 HD
HETATM    6  N   UNL     1      38.665 -13.857   1.549  1.00  0.00    -0.180 N 
HETATM    7  C   UNL     1      38.811 -12.722   2.406  1.00  0.00     0.079 A 
HETATM    8  C   UNL     1      39.874 -12.959   3.295  1.00  0.00     0.079 A 
HETATM    9  C   UNL     1      38.082 -11.552   2.440  1.00  0.00     0.032 A 
HETATM   10  C   UNL     1      38.450 -10.598   3.394  1.00  0.00     0.002 A 
HETATM   11  C   UNL     1      39.519 -10.833   4.282  1.00  0.00     0.002 A 
HETATM   12  C   UNL     1      40.246 -12.028   4.240  1.00  0.00     0.032 A 
ENDROOT
BRANCH   1  13
HETATM   13  C   UNL     1      41.462 -14.941   3.792  1.00  0.00     0.181 C 
BRANCH  13  14
HETATM   14  C   UNL     1      40.933 -16.091   4.657  1.00  0.00     0.161 C 
BRANCH  14  15
HETATM   15  C   UNL     1      42.076 -16.847   5.351  1.00  0.00     0.209 C 
BRANCH  15  16
HETATM   16  O   UNL     1      43.164 -16.865   4.424  1.00  0.00    -0.349 OA
BRANCH  16  17
HETATM   17  C   UNL     1      43.522 -18.079   3.904  1.00  0.00     0.069 A 
HETATM   18  C   UNL     1      43.235 -18.236   2.547  1.00  0.00     0.038 A 
HETATM   19  C   UNL     1      43.536 -19.432   1.895  1.00  0.00     0.027 A 
HETATM   20  C   UNL     1      44.131 -20.482   2.596  1.00  0.00     0.040 A 
HETATM   21  C   UNL     1      44.439 -20.340   3.958  1.00  0.00    -0.038 A 
HETATM   22 CL   UNL     1      44.465 -21.941   1.738  1.00  0.00    -0.084 Cl
HETATM   23  C   UNL     1      45.072 -21.456   4.743  1.00  0.00     0.050 C 
HETATM   24  C   UNL     1      44.123 -19.129   4.603  1.00  0.00     0.045 A 
ENDBRANCH  16  17
ENDBRANCH  15  16
ENDBRANCH  14  15
BRANCH  14  25
HETATM   25  O   UNL     1      40.049 -15.551   5.664  1.00  0.00    -0.392 OA
HETATM   26  H   UNL     1      40.434 -14.670   5.883  1.00  0.00     0.210 HD
ENDBRANCH  14  25
ENDBRANCH  13  14
ENDBRANCH   1  13
BRANCH   6  27
HETATM   27  C   UNL     1      37.632 -14.047   0.525  1.00  0.00     0.175 C 
BRANCH  27  28
HETATM   28  C   UNL     1      38.068 -13.543  -0.867  1.00  0.00     0.256 C 
BRANCH  28  29
HETATM   29  N   UNL     1      38.646 -14.641  -1.741  1.00  0.00    -0.066 N 
HETATM   30  H   UNL     1      38.419 -15.560  -1.336  1.00  0.00     0.280 HD
HETATM   31  C   UNL     1      37.990 -14.629  -3.138  1.00  0.00     0.261 C 
HETATM   32  C   UNL     1      38.585 -15.745  -4.004  1.00  0.00     0.195 C 
HETATM   33  O   UNL     1      40.002 -15.591  -4.112  1.00  0.00    -0.388 OA
HETATM   34  C   UNL     1      40.648 -15.688  -2.841  1.00  0.00     0.195 C 
HETATM   35  C   UNL     1      40.170 -14.572  -1.906  1.00  0.00     0.261 C 
ENDBRANCH  28  29
ENDBRANCH  27  28
ENDBRANCH   6  27
TORSDOF 9
ENDMDL
MODEL 3
REMARK VINA RESULT:      -8.1      2.016      3.519
REMARK  9 active torsions:
REMARK  status: ('A' for Active; 'I' for Inactive)
REMARK    1  A    between atoms: C_7  and  O_8 
REMARK    2  A    between atoms: O_8  and  C_9 
REMARK    3  A    between atoms: C_9  and  C_10 
REMARK    4  A    between atoms: C_10  and  O_11 
REMARK    5  A    between atoms: C_10  and  C_12 
REMARK    6  A    between atoms: C_12  and  N_13 
REMARK    7  A    between atoms: N_18  and  C_19 
REMARK    8  A    between atoms: C_19  and  C_20 
REMARK    9  A    between atoms: C_20  and  N_21 
ROOT
HETATM    1  N   UNL     1      42.263 -14.845   3.789  1.00  0.00    -0.179 N 
HETATM    2  C   UNL     1      40.920 -14.600   3.574  1.00  0.00     0.681 A 
HETATM    3  N   UNL     1      40.192 -13.763   4.313  1.00  0.00    -0.234 N 
HETATM    4  H   UNL     1      39.242 -13.492   4.128  1.00  0.00     0.174 HD
HETATM    5  H   UNL     1      40.611 -13.423   5.189  1.00  0.00     0.174 HD
HETATM    6  N   UNL     1      40.398 -15.314   2.498  1.00  0.00    -0.180 N 
HETATM    7  C   UNL     1      41.515 -16.038   1.977  1.00  0.00     0.079 A 
HETATM    8  C   UNL     1      42.643 -15.761   2.768  1.00  0.00     0.079 A 
HETATM    9  C   UNL     1      41.579 -16.883   0.888  1.00  0.00     0.032 A 
HETATM   10  C   UNL     1      42.819 -17.466   0.606  1.00  0.00     0.002 A 
HETATM   11  C   UNL     1      43.949 -17.193   1.402  1.00  0.00     0.002 A 
HETATM   12  C   UNL     1      43.870 -16.328   2.499  1.00  0.00     0.032 A 
ENDROOT
BRANCH   1  13
HETATM   13  C   UNL     1      43.159 -14.211   4.775  1.00  0.00     0.181 C 
BRANCH  13  14
HETATM   14  C   UNL     1      43.066 -14.838   6.171  1.00  0.00     0.161 C 
BRANCH  14  15
HETATM   15  C   UNL     1      43.928 -16.104   6.280  1.00  0.00     0.209 C 
BRANCH  15  16
HETATM   16  O   UNL     1      43.018 -17.206   6.313  1.00  0.00    -0.349 OA
BRANCH  16  17
HETATM   17  C   UNL     1      43.504 -18.430   5.940  1.00  0.00     0.069 A 
HETATM   18  C   UNL     1      43.553 -19.372   6.968  1.00  0.00     0.038 A 
HETATM   19  C   UNL     1      44.040 -20.657   6.726  1.00  0.00     0.027 A 
HETATM   20  C   UNL     1      44.480 -21.010   5.450  1.00  0.00     0.040 A 
HETATM   21  C   UNL     1      44.428 -20.081   4.400  1.00  0.00    -0.038 A 
HETATM   22 CL   UNL     1      45.087 -22.609   5.218  1.00  0.00    -0.084 Cl
HETATM   23  C   UNL     1      44.903 -20.429   3.015  1.00  0.00     0.050 C 
HETATM   24  C   UNL     1      43.939 -18.786   4.661  1.00  0.00     0.045 A 
ENDBRANCH  16  17
ENDBRANCH  15  16
ENDBRANCH  14  15
BRANCH  14  25
HETATM   25  O   UNL     1      43.521 -13.875   7.148  1.00  0.00    -0.392 OA
HETATM   26  H   UNL     1      44.491 -14.040   7.223  1.00  0.00     0.210 HD
ENDBRANCH  14  25
ENDBRANCH  13  14
ENDBRANCH   1  13
BRANCH   6  27
HETATM   27  C   UNL     1      39.047 -15.270   1.927  1.00  0.00     0.175 C 
BRANCH  27  28
HETATM   28  C   UNL     1      38.843 -14.087   0.959  1.00  0.00     0.256 C 
BRANCH  28  29
HETATM   29  N   UNL     1      39.143 -14.444  -0.485  1.00  0.00    -0.066 N 
HETATM   30  H   UNL     1      39.108 -15.466  -0.603  1.00  0.00     0.280 HD
HETATM   31  C   UNL     1      38.055 -13.880  -1.424  1.00  0.00     0.261 C 
HETATM   32  C   UNL     1      38.375 -14.252  -2.876  1.00  0.00     0.195 C 
HETATM   33  O   UNL     1      39.664 -13.759  -3.247  1.00  0.00    -0.388 OA
HETATM   34  C   UNL     1      40.703 -14.333  -2.452  1.00  0.00     0.195 C 
HETATM   35  C   UNL     1      40.518 -13.970  -0.975  1.00  0.00     0.261 C 
ENDBRANCH  28  29
ENDBRANCH  27  28
ENDBRANCH   6  27
TORSDOF 9
ENDMDL
MODEL 4
REMARK VINA RESULT:      -8.0      1.520      2.102
REMARK  9 active torsions:
REMARK  status: ('A' for Active; 'I' for Inactive)
REMARK    1  A    between atoms: C_7  and  O_8 
REMARK    2  A    between atoms: O_8  and  C_9 
REMARK    3  A    between atoms: C_9  and  C_10 
REMARK    4  A    between atoms: C_10  and  O_11 
REMARK    5  A    between atoms: C_10  and  C_12 
REMARK    6  A    between atoms: C_12  and  N_13 
REMARK    7  A    between atoms: N_18  and  C_19 
REMARK    8  A    between atoms: C_19  and  C_20 
REMARK    9  A    between atoms: C_20  and  N_21 
ROOT
HETATM    1  N   UNL     1      40.643 -15.547   1.495  1.00  0.00    -0.179 N 
HETATM    2  C   UNL     1      41.191 -15.332   0.245  1.00  0.00     0.681 A 
HETATM    3  N   UNL     1      41.655 -16.307  -0.538  1.00  0.00    -0.234 N 
HETATM    4  H   UNL     1      41.973 -16.197  -1.484  1.00  0.00     0.174 HD
HETATM    5  H   UNL     1      41.767 -17.237  -0.113  1.00  0.00     0.174 HD
HETATM    6  N   UNL     1      41.210 -13.989  -0.123  1.00  0.00    -0.180 N 
HETATM    7  C   UNL     1      40.589 -13.313   0.973  1.00  0.00     0.079 A 
HETATM    8  C   UNL     1      40.255 -14.258   1.958  1.00  0.00     0.079 A 
HETATM    9  C   UNL     1      40.314 -11.970   1.130  1.00  0.00     0.032 A 
HETATM   10  C   UNL     1      39.694 -11.581   2.321  1.00  0.00     0.002 A 
HETATM   11  C   UNL     1      39.364 -12.527   3.312  1.00  0.00     0.002 A 
HETATM   12  C   UNL     1      39.643 -13.887   3.136  1.00  0.00     0.032 A 
ENDROOT
BRANCH   1  13
HETATM   13  C   UNL     1      40.385 -16.833   2.170  1.00  0.00     0.181 C 
BRANCH  13  14
HETATM   14  C   UNL     1      41.356 -17.120   3.320  1.00  0.00     0.161 C 
BRANCH  14  15
HETATM   15  C   UNL     1      42.620 -16.253   3.222  1.00  0.00     0.209 C 
BRANCH  15  16
HETATM   16  O   UNL     1      43.567 -17.012   2.465  1.00  0.00    -0.349 OA
BRANCH  16  17
HETATM   17  C   UNL     1      43.891 -18.255   2.935  1.00  0.00     0.069 A 
HETATM   18  C   UNL     1      44.216 -18.296   4.291  1.00  0.00     0.038 A 
HETATM   19  C   UNL     1      44.578 -19.500   4.896  1.00  0.00     0.027 A 
HETATM   20  C   UNL     1      44.616 -20.676   4.146  1.00  0.00     0.040 A 
HETATM   21  C   UNL     1      44.281 -20.659   2.783  1.00  0.00    -0.038 A 
HETATM   22 CL   UNL     1      45.087 -22.131   4.946  1.00  0.00    -0.084 Cl
HETATM   23  C   UNL     1      44.321 -21.908   1.945  1.00  0.00     0.050 C 
HETATM   24  C   UNL     1      43.923 -19.434   2.186  1.00  0.00     0.045 A 
ENDBRANCH  16  17
ENDBRANCH  15  16
ENDBRANCH  14  15
BRANCH  14  25
HETATM   25  O   UNL     1      40.693 -16.842   4.573  1.00  0.00    -0.392 OA
HETATM   26  H   UNL     1      39.862 -16.377   4.314  1.00  0.00     0.210 HD
ENDBRANCH  14  25
ENDBRANCH  13  14
ENDBRANCH   1  13
BRANCH   6  27
HETATM   27  C   UNL     1      41.649 -13.382  -1.384  1.00  0.00     0.175 C 
BRANCH  27  28
HETATM   28  C   UNL     1      40.472 -12.973  -2.295  1.00  0.00     0.256 C 
BRANCH  28  29
HETATM   29  N   UNL     1      39.575 -14.139  -2.665  1.00  0.00    -0.066 N 
HETATM   30  H   UNL     1      39.328 -14.668  -1.817  1.00  0.00     0.280 HD
HETATM   31  C   UNL     1      38.235 -13.635  -3.244  1.00  0.00     0.261 C 
HETATM   32  C   UNL     1      37.344 -14.826  -3.610  1.00  0.00     0.195 C 
HETATM   33  O   UNL     1      38.007 -15.679  -4.545  1.00  0.00    -0.388 OA
HETATM   34  C   UNL     1      39.208 -16.233  -4.004  1.00  0.00     0.195 C 
HETATM   35  C   UNL     1      40.207 -15.124  -3.657  1.00  0.00     0.261 C 
ENDBRANCH  28  29
ENDBRANCH  27  28
ENDBRANCH   6  27
TORSDOF 9
ENDMDL
MODEL 5
REMARK VINA RESULT:      -7.9      2.595      5.991
REMARK  9 active torsions:
REMARK  status: ('A' for Active; 'I' for Inactive)
REMARK    1  A    between atoms: C_7  and  O_8 
REMARK    2  A    between atoms: O_8  and  C_9 
REMARK    3  A    between atoms: C_9  and  C_10 
REMARK    4  A    between atoms: C_10  and  O_11 
REMARK    5  A    between atoms: C_10  and  C_12 
REMARK    6  A    between atoms: C_12  and  N_13 
REMARK    7  A    between atoms: N_18  and  C_19 
REMARK    8  A    between atoms: C_19  and  C_20 
REMARK    9  A    between atoms: C_20  and  N_21 
ROOT
HETATM    1  N   UNL     1      39.884 -14.872   2.392  1.00  0.00    -0.179 N 
HETATM    2  C   UNL     1      40.420 -14.338   3.548  1.00  0.00     0.681 A 
HETATM    3  N   UNL     1      41.336 -14.956   4.294  1.00  0.00    -0.234 N 
HETATM    4  H   UNL     1      41.812 -14.560   5.085  1.00  0.00     0.174 HD
HETATM    5  H   UNL     1      41.517 -15.948   4.090  1.00  0.00     0.174 HD
HETATM    6  N   UNL     1      39.910 -13.080   3.859  1.00  0.00    -0.180 N 
HETATM    7  C   UNL     1      39.007 -12.788   2.790  1.00  0.00     0.079 A 
HETATM    8  C   UNL     1      38.984 -13.882   1.906  1.00  0.00     0.079 A 
HETATM    9  C   UNL     1      38.247 -11.658   2.569  1.00  0.00     0.032 A 
HETATM   10  C   UNL     1      37.440 -11.646   1.428  1.00  0.00     0.002 A 
HETATM   11  C   UNL     1      37.412 -12.743   0.544  1.00  0.00     0.002 A 
HETATM   12  C   UNL     1      38.194 -13.881   0.777  1.00  0.00     0.032 A 
ENDROOT
BRANCH   1  13
HETATM   13  C   UNL     1      40.244 -16.134   1.717  1.00  0.00     0.181 C 
BRANCH  13  14
HETATM   14  C   UNL     1      41.362 -15.970   0.681  1.00  0.00     0.161 C 
BRANCH  14  15
HETATM   15  C   UNL     1      42.632 -16.726   1.097  1.00  0.00     0.209 C 
BRANCH  15  16
HETATM   16  O   UNL     1      42.442 -17.107   2.462  1.00  0.00    -0.349 OA
BRANCH  16  17
HETATM   17  C   UNL     1      43.074 -18.244   2.887  1.00  0.00     0.069 A 
HETATM   18  C   UNL     1      43.544 -18.189   4.200  1.00  0.00     0.038 A 
HETATM   19  C   UNL     1      44.219 -19.277   4.755  1.00  0.00     0.027 A 
HETATM   20  C   UNL     1      44.428 -20.432   3.999  1.00  0.00     0.040 A 
HETATM   21  C   UNL     1      43.952 -20.511   2.681  1.00  0.00    -0.038 A 
HETATM   22 CL   UNL     1      45.283 -21.737   4.735  1.00  0.00    -0.084 Cl
HETATM   23  C   UNL     1      44.168 -21.738   1.837  1.00  0.00     0.050 C 
HETATM   24  C   UNL     1      43.278 -19.403   2.133  1.00  0.00     0.045 A 
ENDBRANCH  16  17
ENDBRANCH  15  16
ENDBRANCH  14  15
BRANCH  14  25
HETATM   25  O   UNL     1      40.903 -16.486  -0.588  1.00  0.00    -0.392 OA
HETATM   26  H   UNL     1      41.730 -16.634  -1.107  1.00  0.00     0.210 HD
ENDBRANCH  14  25
ENDBRANCH  13  14
ENDBRANCH   1  13
BRANCH   6  27
HETATM   27  C   UNL     1      40.277 -12.179   4.958  1.00  0.00     0.175 C 
BRANCH  27  28
HETATM   28  C   UNL     1      39.553 -12.517   6.278  1.00  0.00     0.256 C 
BRANCH  28  29
HETATM   29  N   UNL     1      40.282 -11.998   7.504  1.00  0.00    -0.066 N 
HETATM   30  H   UNL     1      40.747 -12.779   7.986  1.00  0.00     0.280 HD
HETATM   31  C   UNL     1      41.412 -11.028   7.097  1.00  0.00     0.261 C 
HETATM   32  C   UNL     1      42.136 -10.517   8.347  1.00  0.00     0.195 C 
HETATM   33  O   UNL     1      41.215  -9.873   9.230  1.00  0.00    -0.388 OA
HETATM   34  C   UNL     1      40.206 -10.771   9.695  1.00  0.00     0.195 C 
HETATM   35  C   UNL     1      39.372 -11.302   8.524  1.00  0.00     0.261 C 
ENDBRANCH  28  29
ENDBRANCH  27  28
ENDBRANCH   6  27
TORSDOF 9
ENDMDL
MODEL 6
REMARK VINA RESULT:      -7.8      1.773      2.209
REMARK  9 active torsions:
REMARK  status: ('A' for Active; 'I' for Inactive)
REMARK    1  A    between atoms: C_7  and  O_8 
REMARK    2  A    between atoms: O_8  and  C_9 
REMARK    3  A    between atoms: C_9  and  C_10 
REMARK    4  A    between atoms: C_10  and  O_11 
REMARK    5  A    between atoms: C_10  and  C_12 
REMARK    6  A    between atoms: C_12  and  N_13 
REMARK    7  A    between atoms: N_18  and  C_19 
REMARK    8  A    between atoms: C_19  and  C_20 
REMARK    9  A    between atoms: C_20  and  N_21 
ROOT
HETATM    1  N   UNL     1      40.812 -15.218   4.522  1.00  0.00    -0.179 N 
HETATM    2  C   UNL     1      41.051 -15.282   3.163  1.00  0.00     0.681 A 
HETATM    3  N   UNL     1      41.635 -16.318   2.561  1.00  0.00    -0.234 N 
HETATM    4  H   UNL     1      41.740 -16.437   1.569  1.00  0.00     0.174 HD
HETATM    5  H   UNL     1      42.083 -17.021   3.165  1.00  0.00     0.174 HD
HETATM    6  N   UNL     1      40.616 -14.151   2.476  1.00  0.00    -0.180 N 
HETATM    7  C   UNL     1      40.024 -13.329   3.484  1.00  0.00     0.079 A 
HETATM    8  C   UNL     1      40.153 -13.973   4.727  1.00  0.00     0.079 A 
HETATM    9  C   UNL     1      39.403 -12.103   3.361  1.00  0.00     0.032 A 
HETATM   10  C   UNL     1      38.911 -11.517   4.531  1.00  0.00     0.002 A 
HETATM   11  C   UNL     1      39.045 -12.159   5.779  1.00  0.00     0.002 A 
HETATM   12  C   UNL     1      39.672 -13.406   5.887  1.00  0.00     0.032 A 
ENDROOT
BRANCH   1  13
HETATM   13  C   UNL     1      41.058 -16.256   5.541  1.00  0.00     0.181 C 
BRANCH  13  14
HETATM   14  C   UNL     1      42.398 -16.089   6.266  1.00  0.00     0.161 C 
BRANCH  14  15
HETATM   15  C   UNL     1      43.570 -16.589   5.408  1.00  0.00     0.209 C 
BRANCH  15  16
HETATM   16  O   UNL     1      43.984 -17.832   5.982  1.00  0.00    -0.349 OA
BRANCH  16  17
HETATM   17  C   UNL     1      44.181 -18.881   5.126  1.00  0.00     0.069 A 
HETATM   18  C   UNL     1      43.992 -18.573   3.778  1.00  0.00     0.038 A 
HETATM   19  C   UNL     1      44.149 -19.556   2.800  1.00  0.00     0.027 A 
HETATM   20  C   UNL     1      44.500 -20.856   3.164  1.00  0.00     0.040 A 
HETATM   21  C   UNL     1      44.707 -21.184   4.513  1.00  0.00    -0.038 A 
HETATM   22 CL   UNL     1      44.664 -22.030   1.910  1.00  0.00    -0.084 Cl
HETATM   23  C   UNL     1      45.077 -22.578   4.938  1.00  0.00     0.050 C 
HETATM   24  C   UNL     1      44.539 -20.182   5.489  1.00  0.00     0.045 A 
ENDBRANCH  16  17
ENDBRANCH  15  16
ENDBRANCH  14  15
BRANCH  14  25
HETATM   25  O   UNL     1      42.599 -14.689   6.563  1.00  0.00    -0.392 OA
HETATM   26  H   UNL     1      42.425 -14.616   7.531  1.00  0.00     0.210 HD
ENDBRANCH  14  25
ENDBRANCH  13  14
ENDBRANCH   1  13
BRANCH   6  27
HETATM   27  C   UNL     1      40.636 -13.881   1.034  1.00  0.00     0.175 C 
BRANCH  27  28
HETATM   28  C   UNL     1      39.309 -14.245   0.336  1.00  0.00     0.256 C 
BRANCH  28  29
HETATM   29  N   UNL     1      39.502 -14.743  -1.084  1.00  0.00    -0.066 N 
HETATM   30  H   UNL     1      38.891 -15.556  -1.251  1.00  0.00     0.280 HD
HETATM   31  C   UNL     1      39.057 -13.672  -2.103  1.00  0.00     0.261 C 
HETATM   32  C   UNL     1      39.259 -14.195  -3.530  1.00  0.00     0.195 C 
HETATM   33  O   UNL     1      40.625 -14.555  -3.743  1.00  0.00    -0.388 OA
HETATM   34  C   UNL     1      41.041 -15.609  -2.872  1.00  0.00     0.195 C 
HETATM   35  C   UNL     1      40.939 -15.172  -1.407  1.00  0.00     0.261 C 
ENDBRANCH  28  29
ENDBRANCH  27  28
ENDBRANCH   6  27
TORSDOF 9
ENDMDL
MODEL 7
REMARK VINA RESULT:      -7.6      2.103      5.056
REMARK  9 active torsions:
REMARK  status: ('A' for Active; 'I' for Inactive)
REMARK    1  A    between atoms: C_7  and  O_8 
REMARK    2  A    between atoms: O_8  and  C_9 
REMARK    3  A    between atoms: C_9  and  C_10 
REMARK    4  A    between atoms: C_10  and  O_11 
REMARK    5  A    between atoms: C_10  and  C_12 
REMARK    6  A    between atoms: C_12  and  N_13 
REMARK    7  A    between atoms: N_18  and  C_19 
REMARK    8  A    between atoms: C_19  and  C_20 
REMARK    9  A    between atoms: C_20  and  N_21 
ROOT
HETATM    1  N   UNL     1      41.567 -15.095   0.096  1.00  0.00    -0.179 N 
HETATM    2  C   UNL     1      41.600 -13.875   0.743  1.00  0.00     0.681 A 
HETATM    3  N   UNL     1      42.038 -13.711   1.992  1.00  0.00    -0.234 N 
HETATM    4  H   UNL     1      42.163 -12.829   2.458  1.00  0.00     0.174 HD
HETATM    5  H   UNL     1      42.192 -14.560   2.552  1.00  0.00     0.174 HD
HETATM    6  N   UNL     1      41.132 -12.824  -0.042  1.00  0.00    -0.180 N 
HETATM    7  C   UNL     1      40.813 -13.433  -1.295  1.00  0.00     0.079 A 
HETATM    8  C   UNL     1      41.067 -14.813  -1.207  1.00  0.00     0.079 A 
HETATM    9  C   UNL     1      40.338 -12.854  -2.454  1.00  0.00     0.032 A 
HETATM   10  C   UNL     1      40.108 -13.701  -3.543  1.00  0.00     0.002 A 
HETATM   11  C   UNL     1      40.358 -15.085  -3.453  1.00  0.00     0.002 A 
HETATM   12  C   UNL     1      40.846 -15.658  -2.273  1.00  0.00     0.032 A 
ENDROOT
BRANCH   1  13
HETATM   13  C   UNL     1      42.058 -16.400   0.581  1.00  0.00     0.181 C 
BRANCH  13  14
HETATM   14  C   UNL     1      41.094 -17.086   1.556  1.00  0.00     0.161 C 
BRANCH  14  15
HETATM   15  C   UNL     1      41.664 -17.122   2.982  1.00  0.00     0.209 C 
BRANCH  15  16
HETATM   16  O   UNL     1      43.074 -17.315   2.844  1.00  0.00    -0.349 OA
BRANCH  16  17
HETATM   17  C   UNL     1      43.578 -18.530   3.223  1.00  0.00     0.069 A 
HETATM   18  C   UNL     1      43.924 -18.618   4.572  1.00  0.00     0.038 A 
HETATM   19  C   UNL     1      44.463 -19.798   5.088  1.00  0.00     0.027 A 
HETATM   20  C   UNL     1      44.657 -20.901   4.255  1.00  0.00     0.040 A 
HETATM   21  C   UNL     1      44.304 -20.837   2.899  1.00  0.00    -0.038 A 
HETATM   22 CL   UNL     1      45.342 -22.325   4.948  1.00  0.00    -0.084 Cl
HETATM   23  C   UNL     1      44.510 -22.005   1.974  1.00  0.00     0.050 C 
HETATM   24  C   UNL     1      43.767 -19.637   2.392  1.00  0.00     0.045 A 
ENDBRANCH  16  17
ENDBRANCH  15  16
ENDBRANCH  14  15
BRANCH  14  25
HETATM   25  O   UNL     1      39.845 -16.360   1.568  1.00  0.00    -0.392 OA
HETATM   26  H   UNL     1      39.807 -15.920   0.686  1.00  0.00     0.210 HD
ENDBRANCH  14  25
ENDBRANCH  13  14
ENDBRANCH   1  13
BRANCH   6  27
HETATM   27  C   UNL     1      41.074 -11.392   0.269  1.00  0.00     0.175 C 
BRANCH  27  28
HETATM   28  C   UNL     1      39.710 -10.956   0.843  1.00  0.00     0.256 C 
BRANCH  28  29
HETATM   29  N   UNL     1      39.699 -10.885   2.358  1.00  0.00    -0.066 N 
HETATM   30  H   UNL     1      40.666 -10.901   2.712  1.00  0.00     0.280 HD
HETATM   31  C   UNL     1      39.104  -9.543   2.837  1.00  0.00     0.261 C 
HETATM   32  C   UNL     1      39.104  -9.489   4.369  1.00  0.00     0.195 C 
HETATM   33  O   UNL     1      38.365 -10.588   4.908  1.00  0.00    -0.388 OA
HETATM   34  C   UNL     1      38.945 -11.845   4.555  1.00  0.00     0.195 C 
HETATM   35  C   UNL     1      38.941 -12.035   3.034  1.00  0.00     0.261 C 
ENDBRANCH  28  29
ENDBRANCH  27  28
ENDBRANCH   6  27
TORSDOF 9
ENDMDL
MODEL 8
REMARK VINA RESULT:      -7.6      3.287      5.985
REMARK  9 active torsions:
REMARK  status: ('A' for Active; 'I' for Inactive)
REMARK    1  A    between atoms: C_7  and  O_8 
REMARK    2  A    between atoms: O_8  and  C_9 
REMARK    3  A    between atoms: C_9  and  C_10 
REMARK    4  A    between atoms: C_10  and  O_11 
REMARK    5  A    between atoms: C_10  and  C_12 
REMARK    6  A    between atoms: C_12  and  N_13 
REMARK    7  A    between atoms: N_18  and  C_19 
REMARK    8  A    between atoms: C_19  and  C_20 
REMARK    9  A    between atoms: C_20  and  N_21 
ROOT
HETATM    1  N   UNL     1      40.640 -15.754   4.983  1.00  0.00    -0.179 N 
HETATM    2  C   UNL     1      40.275 -14.469   5.336  1.00  0.00     0.681 A 
HETATM    3  N   UNL     1      40.168 -14.049   6.596  1.00  0.00    -0.234 N 
HETATM    4  H   UNL     1      39.997 -13.102   6.886  1.00  0.00     0.174 HD
HETATM    5  H   UNL     1      40.189 -14.765   7.334  1.00  0.00     0.174 HD
HETATM    6  N   UNL     1      40.031 -13.647   4.238  1.00  0.00    -0.180 N 
HETATM    7  C   UNL     1      40.301 -14.478   3.106  1.00  0.00     0.079 A 
HETATM    8  C   UNL     1      40.659 -15.759   3.560  1.00  0.00     0.079 A 
HETATM    9  C   UNL     1      40.251 -14.169   1.762  1.00  0.00     0.032 A 
HETATM   10  C   UNL     1      40.566 -15.191   0.861  1.00  0.00     0.002 A 
HETATM   11  C   UNL     1      40.920 -16.478   1.315  1.00  0.00     0.002 A 
HETATM   12  C   UNL     1      40.972 -16.774   2.682  1.00  0.00     0.032 A 
ENDROOT
BRANCH   1  13
HETATM   13  C   UNL     1      41.050 -16.861   5.868  1.00  0.00     0.181 C 
BRANCH  13  14
HETATM   14  C   UNL     1      42.255 -16.517   6.751  1.00  0.00     0.161 C 
BRANCH  14  15
HETATM   15  C   UNL     1      43.080 -17.766   7.094  1.00  0.00     0.209 C 
BRANCH  15  16
HETATM   16  O   UNL     1      44.237 -17.724   6.255  1.00  0.00    -0.349 OA
BRANCH  16  17
HETATM   17  C   UNL     1      44.271 -18.587   5.194  1.00  0.00     0.069 A 
HETATM   18  C   UNL     1      44.666 -19.886   5.515  1.00  0.00     0.038 A 
HETATM   19  C   UNL     1      44.757 -20.864   4.523  1.00  0.00     0.027 A 
HETATM   20  C   UNL     1      44.449 -20.548   3.199  1.00  0.00     0.040 A 
HETATM   21  C   UNL     1      44.038 -19.251   2.857  1.00  0.00    -0.038 A 
HETATM   22 CL   UNL     1      44.596 -21.796   2.016  1.00  0.00    -0.084 Cl
HETATM   23  C   UNL     1      43.708 -18.878   1.438  1.00  0.00     0.050 C 
HETATM   24  C   UNL     1      43.957 -18.274   3.868  1.00  0.00     0.045 A 
ENDBRANCH  16  17
ENDBRANCH  15  16
ENDBRANCH  14  15
BRANCH  14  25
HETATM   25  O   UNL     1      43.097 -15.577   6.049  1.00  0.00    -0.392 OA
HETATM   26  H   UNL     1      42.487 -15.120   5.423  1.00  0.00     0.210 HD
ENDBRANCH  14  25
ENDBRANCH  13  14
ENDBRANCH   1  13
BRANCH   6  27
HETATM   27  C   UNL     1      39.690 -12.221   4.208  1.00  0.00     0.175 C 
BRANCH  27  28
HETATM   28  C   UNL     1      40.929 -11.305   4.291  1.00  0.00     0.256 C 
BRANCH  28  29
HETATM   29  N   UNL     1      40.986 -10.498   5.574  1.00  0.00    -0.066 N 
HETATM   30  H   UNL     1      41.698 -10.896   6.202  1.00  0.00     0.280 HD
HETATM   31  C   UNL     1      41.446  -9.052   5.289  1.00  0.00     0.261 C 
HETATM   32  C   UNL     1      41.498  -8.254   6.597  1.00  0.00     0.195 C 
HETATM   33  O   UNL     1      40.220  -8.258   7.237  1.00  0.00    -0.388 OA
HETATM   34  C   UNL     1      39.807  -9.578   7.594  1.00  0.00     0.195 C 
HETATM   35  C   UNL     1      39.661 -10.456   6.346  1.00  0.00     0.261 C 
ENDBRANCH  28  29
ENDBRANCH  27  28
ENDBRANCH   6  27
TORSDOF 9
ENDMDL
MODEL 9
REMARK VINA RESULT:      -7.5      1.690      2.128
REMARK  9 active torsions:
REMARK  status: ('A' for Active; 'I' for Inactive)
REMARK    1  A    between atoms: C_7  and  O_8 
REMARK    2  A    between atoms: O_8  and  C_9 
REMARK    3  A    between atoms: C_9  and  C_10 
REMARK    4  A    between atoms: C_10  and  O_11 
REMARK    5  A    between atoms: C_10  and  C_12 
REMARK    6  A    between atoms: C_12  and  N_13 
REMARK    7  A    between atoms: N_18  and  C_19 
REMARK    8  A    between atoms: C_19  and  C_20 
REMARK    9  A    between atoms: C_20  and  N_21 
ROOT
HETATM    1  N   UNL     1      42.116 -12.988   3.586  1.00  0.00    -0.179 N 
HETATM    2  C   UNL     1      41.913 -13.397   2.282  1.00  0.00     0.681 A 
HETATM    3  N   UNL     1      42.514 -14.454   1.735  1.00  0.00    -0.234 N 
HETATM    4  H   UNL     1      42.320 -14.832   0.824  1.00  0.00     0.174 HD
HETATM    5  H   UNL     1      43.294 -14.874   2.258  1.00  0.00     0.174 HD
HETATM    6  N   UNL     1      41.010 -12.594   1.590  1.00  0.00    -0.180 N 
HETATM    7  C   UNL     1      40.586 -11.625   2.552  1.00  0.00     0.079 A 
HETATM    8  C   UNL     1      41.267 -11.859   3.759  1.00  0.00     0.079 A 
HETATM    9  C   UNL     1      39.671 -10.602   2.418  1.00  0.00     0.032 A 
HETATM   10  C   UNL     1      39.451  -9.793   3.538  1.00  0.00     0.002 A 
HETATM   11  C   UNL     1      40.137 -10.023   4.748  1.00  0.00     0.002 A 
HETATM   12  C   UNL     1      41.058 -11.070   4.870  1.00  0.00     0.032 A 
ENDROOT
BRANCH   1  13
HETATM   13  C   UNL     1      42.931 -13.639   4.630  1.00  0.00     0.181 C 
BRANCH  13  14
HETATM   14  C   UNL     1      42.303 -14.927   5.174  1.00  0.00     0.161 C 
BRANCH  14  15
HETATM   15  C   UNL     1      43.199 -16.147   4.912  1.00  0.00     0.209 C 
BRANCH  15  16
HETATM   16  O   UNL     1      42.698 -16.763   3.723  1.00  0.00    -0.349 OA
BRANCH  16  17
HETATM   17  C   UNL     1      43.195 -17.997   3.401  1.00  0.00     0.069 A 
HETATM   18  C   UNL     1      42.961 -18.391   2.084  1.00  0.00     0.038 A 
HETATM   19  C   UNL     1      43.403 -19.633   1.628  1.00  0.00     0.027 A 
HETATM   20  C   UNL     1      44.087 -20.492   2.490  1.00  0.00     0.040 A 
HETATM   21  C   UNL     1      44.343 -20.110   3.815  1.00  0.00    -0.038 A 
HETATM   22 CL   UNL     1      44.595 -22.021   1.872  1.00  0.00    -0.084 Cl
HETATM   23  C   UNL     1      45.070 -21.016   4.771  1.00  0.00     0.050 C 
HETATM   24  C   UNL     1      43.885 -18.855   4.262  1.00  0.00     0.045 A 
ENDBRANCH  16  17
ENDBRANCH  15  16
ENDBRANCH  14  15
BRANCH  14  25
HETATM   25  O   UNL     1      42.106 -14.787   6.598  1.00  0.00    -0.392 OA
HETATM   26  H   UNL     1      43.018 -14.800   6.975  1.00  0.00     0.210 HD
ENDBRANCH  14  25
ENDBRANCH  13  14
ENDBRANCH   1  13
BRANCH   6  27
HETATM   27  C   UNL     1      40.495 -12.746   0.224  1.00  0.00     0.175 C 
BRANCH  27  28
HETATM   28  C   UNL     1      39.413 -13.840   0.108  1.00  0.00     0.256 C 
BRANCH  28  29
HETATM   29  N   UNL     1      39.544 -14.673  -1.153  1.00  0.00    -0.066 N 
HETATM   30  H   UNL     1      39.128 -15.603  -0.997  1.00  0.00     0.280 HD
HETATM   31  C   UNL     1      38.736 -14.045  -2.309  1.00  0.00     0.261 C 
HETATM   32  C   UNL     1      38.880 -14.901  -3.571  1.00  0.00     0.195 C 
HETATM   33  O   UNL     1      40.256 -15.033  -3.933  1.00  0.00    -0.388 OA
HETATM   34  C   UNL     1      41.013 -15.694  -2.917  1.00  0.00     0.195 C 
HETATM   35  C   UNL     1      40.991 -14.887  -1.615  1.00  0.00     0.261 C 
ENDBRANCH  28  29
ENDBRANCH  27  28
ENDBRANCH   6  27
TORSDOF 9
ENDMDL
MODEL 10
REMARK VINA RESULT:      -7.4      2.680      3.718
REMARK  9 active torsions:
REMARK  status: ('A' for Active; 'I' for Inactive)
REMARK    1  A    between atoms: C_7  and  O_8 
REMARK    2  A    between atoms: O_8  and  C_9 
REMARK    3  A    between atoms: C_9  and  C_10 
REMARK    4  A    between atoms: C_10  and  O_11 
REMARK    5  A    between atoms: C_10  and  C_12 
REMARK    6  A    between atoms: C_12  and  N_13 
REMARK    7  A    between atoms: N_18  and  C_19 
REMARK    8  A    between atoms: C_19  and  C_20 
REMARK    9  A    between atoms: C_20  and  N_21 
ROOT
HETATM    1  N   UNL     1      40.063 -15.046   0.694  1.00  0.00    -0.179 N 
HETATM    2  C   UNL     1      40.889 -15.021  -0.413  1.00  0.00     0.681 A 
HETATM    3  N   UNL     1      41.967 -15.793  -0.551  1.00  0.00    -0.234 N 
HETATM    4  H   UNL     1      42.534 -15.867  -1.377  1.00  0.00     0.174 HD
HETATM    5  H   UNL     1      42.291 -16.302   0.283  1.00  0.00     0.174 HD
HETATM    6  N   UNL     1      40.482 -14.105  -1.381  1.00  0.00    -0.180 N 
HETATM    7  C   UNL     1      39.282 -13.538  -0.850  1.00  0.00     0.079 A 
HETATM    8  C   UNL     1      39.035 -14.102   0.414  1.00  0.00     0.079 A 
HETATM    9  C   UNL     1      38.439 -12.598  -1.404  1.00  0.00     0.032 A 
HETATM   10  C   UNL     1      37.323 -12.218  -0.651  1.00  0.00     0.002 A 
HETATM   11  C   UNL     1      37.078 -12.779   0.618  1.00  0.00     0.002 A 
HETATM   12  C   UNL     1      37.939 -13.737   1.166  1.00  0.00     0.032 A 
ENDROOT
BRANCH   1  13
HETATM   13  C   UNL     1      40.135 -15.940   1.866  1.00  0.00     0.181 C 
BRANCH  13  14
HETATM   14  C   UNL     1      41.014 -15.391   2.995  1.00  0.00     0.161 C 
BRANCH  14  15
HETATM   15  C   UNL     1      41.468 -16.504   3.949  1.00  0.00     0.209 C 
BRANCH  15  16
HETATM   16  O   UNL     1      42.874 -16.661   3.740  1.00  0.00    -0.349 OA
BRANCH  16  17
HETATM   17  C   UNL     1      43.323 -17.914   3.424  1.00  0.00     0.069 A 
HETATM   18  C   UNL     1      43.080 -18.302   2.106  1.00  0.00     0.038 A 
HETATM   19  C   UNL     1      43.475 -19.563   1.656  1.00  0.00     0.027 A 
HETATM   20  C   UNL     1      44.120 -20.445   2.523  1.00  0.00     0.040 A 
HETATM   21  C   UNL     1      44.385 -20.070   3.849  1.00  0.00    -0.038 A 
HETATM   22 CL   UNL     1      44.569 -21.995   1.911  1.00  0.00    -0.084 Cl
HETATM   23  C   UNL     1      45.070 -21.002   4.810  1.00  0.00     0.050 C 
HETATM   24  C   UNL     1      43.974 -18.797   4.290  1.00  0.00     0.045 A 
ENDBRANCH  16  17
ENDBRANCH  15  16
ENDBRANCH  14  15
BRANCH  14  25
HETATM   25  O   UNL     1      42.180 -14.763   2.417  1.00  0.00    -0.392 OA
HETATM   26  H   UNL     1      42.109 -14.953   1.452  1.00  0.00     0.210 HD
ENDBRANCH  14  25
ENDBRANCH  13  14
ENDBRANCH   1  13
BRANCH   6  27
HETATM   27  C   UNL     1      41.058 -13.840  -2.704  1.00  0.00     0.175 C 
BRANCH  27  28
HETATM   28  C   UNL     1      42.208 -12.812  -2.663  1.00  0.00     0.256 C 
BRANCH  28  29
HETATM   29  N   UNL     1      42.079 -11.735  -3.724  1.00  0.00    -0.066 N 
HETATM   30  H   UNL     1      42.609 -12.012  -4.563  1.00  0.00     0.280 HD
HETATM   31  C   UNL     1      40.613 -11.597  -4.186  1.00  0.00     0.261 C 
HETATM   32  C   UNL     1      40.504 -10.507  -5.258  1.00  0.00     0.195 C 
HETATM   33  O   UNL     1      40.993  -9.261  -4.756  1.00  0.00    -0.388 OA
HETATM   34  C   UNL     1      42.376  -9.334  -4.403  1.00  0.00     0.195 C 
HETATM   35  C   UNL     1      42.595 -10.359  -3.285  1.00  0.00     0.261 C 
ENDBRANCH  28  29
ENDBRANCH  27  28
ENDBRANCH   6  27
TORSDOF 9
ENDMDL
