MODEL 1
REMARK VINA RESULT:      -9.5      0.000      0.000
REMARK  7 active torsions:
REMARK  status: ('A' for Active; 'I' for Inactive)
REMARK    1  A    between atoms: O_2  and  C_3 
REMARK    2  A    between atoms: C_3  and  C_4 
REMARK    3  A    between atoms: C_6  and  N_7 
REMARK       I    between atoms: N_7  and  C_8 
REMARK    4  A    between atoms: C_8  and  C_9 
REMARK    5  A    between atoms: C_17  and  C_18 
REMARK    6  A    between atoms: C_18  and  N_19 
REMARK       I    between atoms: N_19  and  C_20 
REMARK    7  A    between atoms: C_20  and  C_21 
ROOT
HETATM    1  C   UNL     1      41.569 -14.853   5.113  1.00  0.00     0.042 A 
HETATM    2  C   UNL     1      41.868 -16.138   4.637  1.00  0.00     0.047 A 
HETATM    3  C   UNL     1      43.097 -16.734   4.930  1.00  0.00     0.036 A 
HETATM    4  C   UNL     1      44.025 -16.029   5.711  1.00  0.00     0.038 A 
HETATM    5  C   UNL     1      43.732 -14.754   6.221  1.00  0.00    -0.037 A 
HETATM    6  C   UNL     1      42.506 -14.164   5.897  1.00  0.00     0.026 A 
ENDROOT
BRANCH   5   7
HETATM    7  C   UNL     1      44.707 -14.049   7.125  1.00  0.00     0.161 C 
BRANCH   7   8
HETATM    8  N   UNL     1      44.049 -13.256   8.132  1.00  0.00    -0.351 N 
HETATM    9  C   UNL     1      44.742 -12.641   9.145  1.00  0.00     0.270 C 
HETATM   10  O   UNL     1      45.969 -12.605   9.170  1.00  0.00    -0.266 OA
HETATM   11  H   UNL     1      43.056 -13.114   8.053  1.00  0.00     0.163 HD
BRANCH   9  12
HETATM   12  C   UNL     1      43.942 -12.039  10.182  1.00  0.00     0.126 A 
HETATM   13  N   UNL     1      44.020 -12.511  11.472  1.00  0.00    -0.272 N 
HETATM   14  H   UNL     1      44.610 -13.268  11.803  1.00  0.00     0.189 HD
HETATM   15  N   UNL     1      43.210 -11.891  12.345  1.00  0.00    -0.178 NA
HETATM   16  C   UNL     1      42.570 -11.000  11.591  1.00  0.00     0.063 A 
HETATM   17  C   UNL     1      42.978 -11.044  10.232  1.00  0.00     0.002 A 
HETATM   18  C   UNL     1      41.500 -10.110  12.120  1.00  0.00     0.062 C 
HETATM   19  C   UNL     1      42.384 -10.154   9.196  1.00  0.00     0.043 C 
HETATM   20  C   UNL     1      41.071  -9.512   9.682  1.00  0.00     0.005 C 
HETATM   21  C   UNL     1      41.178  -8.986  11.124  1.00  0.00     0.006 C 
ENDBRANCH   9  12
ENDBRANCH   7   8
ENDBRANCH   5   7
BRANCH   3  22
HETATM   22  N   UNL     1      43.462 -18.036   4.521  1.00  0.00    -0.323 N 
HETATM   23  C   UNL     1      43.874 -18.434   3.259  1.00  0.00     0.256 C 
HETATM   24  O   UNL     1      44.104 -17.699   2.306  1.00  0.00    -0.267 OA
HETATM   25  H   UNL     1      43.435 -18.740   5.247  1.00  0.00     0.169 HD
BRANCH  23  26
HETATM   26  C   UNL     1      44.065 -19.902   3.069  1.00  0.00     0.035 A 
HETATM   27  C   UNL     1      43.771 -20.549   1.867  1.00  0.00     0.036 A 
HETATM   28  C   UNL     1      44.012 -21.910   1.789  1.00  0.00     0.117 A 
HETATM   29  N   UNL     1      44.520 -22.644   2.801  1.00  0.00    -0.273 NA
HETATM   30  C   UNL     1      44.820 -21.990   3.943  1.00  0.00     0.117 A 
HETATM   31  C   UNL     1      44.614 -20.635   4.124  1.00  0.00     0.036 A 
ENDBRANCH  23  26
ENDBRANCH   3  22
BRANCH   1  32
HETATM   32  C   UNL     1      40.269 -14.183   4.836  1.00  0.00     0.293 C 
HETATM   33  O   UNL     1      39.685 -14.275   3.768  1.00  0.00    -0.259 OA
BRANCH  32  34
HETATM   34  O   UNL     1      39.868 -13.449   5.902  1.00  0.00    -0.323 OA
HETATM   35  C   UNL     1      39.149 -12.264   5.561  1.00  0.00     0.213 C 
ENDBRANCH  32  34
ENDBRANCH   1  32
TORSDOF 7
ENDMDL
MODEL 2
REMARK VINA RESULT:      -9.3      4.399      7.173
REMARK  7 active torsions:
REMARK  status: ('A' for Active; 'I' for Inactive)
REMARK    1  A    between atoms: O_2  and  C_3 
REMARK    2  A    between atoms: C_3  and  C_4 
REMARK    3  A    between atoms: C_6  and  N_7 
REMARK       I    between atoms: N_7  and  C_8 
REMARK    4  A    between atoms: C_8  and  C_9 
REMARK    5  A    between atoms: C_17  and  C_18 
REMARK    6  A    between atoms: C_18  and  N_19 
REMARK       I    between atoms: N_19  and  C_20 
REMARK    7  A    between atoms: C_20  and  C_21 
ROOT
HETATM    1  C   UNL     1      43.793 -19.269   2.795  1.00  0.00     0.042 A 
HETATM    2  C   UNL     1      43.466 -18.515   1.658  1.00  0.00     0.047 A 
HETATM    3  C   UNL     1      43.005 -17.203   1.787  1.00  0.00     0.036 A 
HETATM    4  C   UNL     1      42.877 -16.650   3.069  1.00  0.00     0.038 A 
HETATM    5  C   UNL     1      43.227 -17.378   4.217  1.00  0.00    -0.037 A 
HETATM    6  C   UNL     1      43.665 -18.699   4.070  1.00  0.00     0.026 A 
ENDROOT
BRANCH   5   7
HETATM    7  C   UNL     1      43.161 -16.739   5.579  1.00  0.00     0.161 C 
BRANCH   7   8
HETATM    8  N   UNL     1      42.366 -15.537   5.584  1.00  0.00    -0.351 N 
HETATM    9  C   UNL     1      41.036 -15.543   5.921  1.00  0.00     0.270 C 
HETATM   10  O   UNL     1      40.482 -16.538   6.378  1.00  0.00    -0.266 OA
HETATM   11  H   UNL     1      42.823 -14.663   5.381  1.00  0.00     0.163 HD
BRANCH   9  12
HETATM   12  C   UNL     1      40.324 -14.309   5.703  1.00  0.00     0.126 A 
HETATM   13  N   UNL     1      39.685 -13.689   6.752  1.00  0.00    -0.272 N 
HETATM   14  H   UNL     1      39.659 -14.008   7.715  1.00  0.00     0.189 HD
HETATM   15  N   UNL     1      39.034 -12.561   6.423  1.00  0.00    -0.178 NA
HETATM   16  C   UNL     1      39.242 -12.458   5.113  1.00  0.00     0.063 A 
HETATM   17  C   UNL     1      40.035 -13.518   4.601  1.00  0.00     0.002 A 
HETATM   18  C   UNL     1      38.643 -11.378   4.281  1.00  0.00     0.062 C 
HETATM   19  C   UNL     1      40.381 -13.625   3.157  1.00  0.00     0.043 C 
HETATM   20  C   UNL     1      39.483 -12.724   2.289  1.00  0.00     0.005 C 
HETATM   21  C   UNL     1      39.304 -11.321   2.895  1.00  0.00     0.006 C 
ENDBRANCH   9  12
ENDBRANCH   7   8
ENDBRANCH   5   7
BRANCH   3  22
HETATM   22  N   UNL     1      42.689 -16.365   0.693  1.00  0.00    -0.323 N 
HETATM   23  C   UNL     1      41.432 -15.927   0.308  1.00  0.00     0.256 C 
HETATM   24  O   UNL     1      40.385 -16.098   0.922  1.00  0.00    -0.267 OA
HETATM   25  H   UNL     1      43.482 -16.042   0.155  1.00  0.00     0.169 HD
BRANCH  23  26
HETATM   26  C   UNL     1      41.373 -15.161  -0.971  1.00  0.00     0.035 A 
HETATM   27  C   UNL     1      40.946 -15.733  -2.171  1.00  0.00     0.036 A 
HETATM   28  C   UNL     1      40.903 -14.926  -3.295  1.00  0.00     0.117 A 
HETATM   29  N   UNL     1      41.241 -13.619  -3.295  1.00  0.00    -0.273 NA
HETATM   30  C   UNL     1      41.625 -13.084  -2.118  1.00  0.00     0.117 A 
HETATM   31  C   UNL     1      41.706 -13.805  -0.941  1.00  0.00     0.036 A 
ENDBRANCH  23  26
ENDBRANCH   3  22
BRANCH   1  32
HETATM   32  C   UNL     1      44.300 -20.665   2.708  1.00  0.00     0.293 C 
HETATM   33  O   UNL     1      44.079 -21.397   1.755  1.00  0.00    -0.259 OA
BRANCH  32  34
HETATM   34  O   UNL     1      44.987 -21.001   3.826  1.00  0.00    -0.323 OA
HETATM   35  C   UNL     1      44.679 -22.297   4.338  1.00  0.00     0.213 C 
ENDBRANCH  32  34
ENDBRANCH   1  32
TORSDOF 7
ENDMDL
MODEL 3
REMARK VINA RESULT:      -9.0      3.439      7.239
REMARK  7 active torsions:
REMARK  status: ('A' for Active; 'I' for Inactive)
REMARK    1  A    between atoms: O_2  and  C_3 
REMARK    2  A    between atoms: C_3  and  C_4 
REMARK    3  A    between atoms: C_6  and  N_7 
REMARK       I    between atoms: N_7  and  C_8 
REMARK    4  A    between atoms: C_8  and  C_9 
REMARK    5  A    between atoms: C_17  and  C_18 
REMARK    6  A    between atoms: C_18  and  N_19 
REMARK       I    between atoms: N_19  and  C_20 
REMARK    7  A    between atoms: C_20  and  C_21 
ROOT
HETATM    1  C   UNL     1      43.934 -14.875   6.409  1.00  0.00     0.042 A 
HETATM    2  C   UNL     1      44.319 -16.137   5.933  1.00  0.00     0.047 A 
HETATM    3  C   UNL     1      43.387 -16.978   5.322  1.00  0.00     0.036 A 
HETATM    4  C   UNL     1      42.061 -16.541   5.190  1.00  0.00     0.038 A 
HETATM    5  C   UNL     1      41.663 -15.269   5.633  1.00  0.00    -0.037 A 
HETATM    6  C   UNL     1      42.605 -14.450   6.263  1.00  0.00     0.026 A 
ENDROOT
BRANCH   5   7
HETATM    7  C   UNL     1      40.256 -14.786   5.407  1.00  0.00     0.161 C 
BRANCH   7   8
HETATM    8  N   UNL     1      39.913 -14.723   4.009  1.00  0.00    -0.351 N 
HETATM    9  C   UNL     1      40.112 -13.591   3.259  1.00  0.00     0.270 C 
HETATM   10  O   UNL     1      40.725 -12.619   3.692  1.00  0.00    -0.266 OA
HETATM   11  H   UNL     1      39.565 -15.557   3.565  1.00  0.00     0.163 HD
BRANCH   9  12
HETATM   12  C   UNL     1      39.554 -13.608   1.930  1.00  0.00     0.126 A 
HETATM   13  N   UNL     1      38.276 -13.150   1.714  1.00  0.00    -0.272 N 
HETATM   14  H   UNL     1      37.644 -12.773   2.414  1.00  0.00     0.189 HD
HETATM   15  N   UNL     1      37.855 -13.240   0.442  1.00  0.00    -0.178 NA
HETATM   16  C   UNL     1      38.891 -13.794  -0.185  1.00  0.00     0.063 A 
HETATM   17  C   UNL     1      39.980 -14.053   0.687  1.00  0.00     0.002 A 
HETATM   18  C   UNL     1      38.863 -14.158  -1.628  1.00  0.00     0.062 C 
HETATM   19  C   UNL     1      41.241 -14.690   0.215  1.00  0.00     0.043 C 
HETATM   20  C   UNL     1      41.059 -15.360  -1.160  1.00  0.00     0.005 C 
HETATM   21  C   UNL     1      40.276 -14.471  -2.142  1.00  0.00     0.006 C 
ENDBRANCH   9  12
ENDBRANCH   7   8
ENDBRANCH   5   7
BRANCH   3  22
HETATM   22  N   UNL     1      43.700 -18.247   4.785  1.00  0.00    -0.323 N 
HETATM   23  C   UNL     1      43.960 -18.556   3.460  1.00  0.00     0.256 C 
HETATM   24  O   UNL     1      44.077 -17.756   2.538  1.00  0.00    -0.267 OA
HETATM   25  H   UNL     1      43.757 -18.999   5.459  1.00  0.00     0.169 HD
BRANCH  23  26
HETATM   26  C   UNL     1      44.126 -20.006   3.149  1.00  0.00     0.035 A 
HETATM   27  C   UNL     1      43.849 -20.542   1.889  1.00  0.00     0.036 A 
HETATM   28  C   UNL     1      44.064 -21.896   1.700  1.00  0.00     0.117 A 
HETATM   29  N   UNL     1      44.531 -22.725   2.658  1.00  0.00    -0.273 NA
HETATM   30  C   UNL     1      44.814 -22.178   3.858  1.00  0.00     0.117 A 
HETATM   31  C   UNL     1      44.631 -20.839   4.150  1.00  0.00     0.036 A 
ENDBRANCH  23  26
ENDBRANCH   3  22
BRANCH   1  32
HETATM   32  C   UNL     1      44.894 -13.939   7.055  1.00  0.00     0.293 C 
HETATM   33  O   UNL     1      45.841 -13.441   6.465  1.00  0.00    -0.259 OA
BRANCH  32  34
HETATM   34  O   UNL     1      44.590 -13.761   8.363  1.00  0.00    -0.323 OA
HETATM   35  C   UNL     1      44.870 -12.452   8.859  1.00  0.00     0.213 C 
ENDBRANCH  32  34
ENDBRANCH   1  32
TORSDOF 7
ENDMDL
MODEL 4
REMARK VINA RESULT:      -8.9      2.295      4.040
REMARK  7 active torsions:
REMARK  status: ('A' for Active; 'I' for Inactive)
REMARK    1  A    between atoms: O_2  and  C_3 
REMARK    2  A    between atoms: C_3  and  C_4 
REMARK    3  A    between atoms: C_6  and  N_7 
REMARK       I    between atoms: N_7  and  C_8 
REMARK    4  A    between atoms: C_8  and  C_9 
REMARK    5  A    between atoms: C_17  and  C_18 
REMARK    6  A    between atoms: C_18  and  N_19 
REMARK       I    between atoms: N_19  and  C_20 
REMARK    7  A    between atoms: C_20  and  C_21 
ROOT
HETATM    1  C   UNL     1      44.111 -14.808   6.536  1.00  0.00     0.042 A 
HETATM    2  C   UNL     1      44.501 -16.091   6.123  1.00  0.00     0.047 A 
HETATM    3  C   UNL     1      43.563 -16.979   5.592  1.00  0.00     0.036 A 
HETATM    4  C   UNL     1      42.227 -16.568   5.476  1.00  0.00     0.038 A 
HETATM    5  C   UNL     1      41.824 -15.277   5.856  1.00  0.00    -0.037 A 
HETATM    6  C   UNL     1      42.773 -14.410   6.407  1.00  0.00     0.026 A 
ENDROOT
BRANCH   5   7
HETATM    7  C   UNL     1      40.403 -14.827   5.647  1.00  0.00     0.161 C 
BRANCH   7   8
HETATM    8  N   UNL     1      40.012 -13.794   6.572  1.00  0.00    -0.351 N 
HETATM    9  C   UNL     1      39.696 -12.524   6.158  1.00  0.00     0.270 C 
HETATM   10  O   UNL     1      39.584 -12.233   4.971  1.00  0.00    -0.266 OA
HETATM   11  H   UNL     1      39.922 -14.034   7.545  1.00  0.00     0.163 HD
BRANCH   9  12
HETATM   12  C   UNL     1      39.505 -11.548   7.202  1.00  0.00     0.126 A 
HETATM   13  N   UNL     1      39.466 -11.947   8.517  1.00  0.00    -0.272 N 
HETATM   14  H   UNL     1      39.568 -12.896   8.863  1.00  0.00     0.189 HD
HETATM   15  N   UNL     1      39.257 -10.955   9.398  1.00  0.00    -0.178 NA
HETATM   16  C   UNL     1      39.137  -9.878   8.623  1.00  0.00     0.063 A 
HETATM   17  C   UNL     1      39.277 -10.181   7.244  1.00  0.00     0.002 A 
HETATM   18  C   UNL     1      38.822  -8.526   9.161  1.00  0.00     0.062 C 
HETATM   19  C   UNL     1      39.159  -9.139   6.187  1.00  0.00     0.043 C 
HETATM   20  C   UNL     1      38.501  -7.854   6.725  1.00  0.00     0.005 C 
HETATM   21  C   UNL     1      39.062  -7.443   8.097  1.00  0.00     0.006 C 
ENDBRANCH   9  12
ENDBRANCH   7   8
ENDBRANCH   5   7
BRANCH   3  22
HETATM   22  N   UNL     1      43.878 -18.274   5.121  1.00  0.00    -0.323 N 
HETATM   23  C   UNL     1      44.061 -18.665   3.805  1.00  0.00     0.256 C 
HETATM   24  O   UNL     1      44.095 -17.928   2.827  1.00  0.00    -0.267 OA
HETATM   25  H   UNL     1      44.000 -18.975   5.839  1.00  0.00     0.169 HD
BRANCH  23  26
HETATM   26  C   UNL     1      44.249 -20.129   3.581  1.00  0.00     0.035 A 
HETATM   27  C   UNL     1      44.093 -20.724   2.328  1.00  0.00     0.036 A 
HETATM   28  C   UNL     1      44.319 -22.086   2.225  1.00  0.00     0.117 A 
HETATM   29  N   UNL     1      44.687 -22.868   3.261  1.00  0.00    -0.273 NA
HETATM   30  C   UNL     1      44.856 -22.264   4.456  1.00  0.00     0.117 A 
HETATM   31  C   UNL     1      44.652 -20.913   4.665  1.00  0.00     0.036 A 
ENDBRANCH  23  26
ENDBRANCH   3  22
BRANCH   1  32
HETATM   32  C   UNL     1      45.077 -13.823   7.095  1.00  0.00     0.293 C 
HETATM   33  O   UNL     1      46.038 -13.401   6.469  1.00  0.00    -0.259 OA
BRANCH  32  34
HETATM   34  O   UNL     1      44.759 -13.507   8.373  1.00  0.00    -0.323 OA
HETATM   35  C   UNL     1      45.434 -12.355   8.879  1.00  0.00     0.213 C 
ENDBRANCH  32  34
ENDBRANCH   1  32
TORSDOF 7
ENDMDL
MODEL 5
REMARK VINA RESULT:      -8.9      3.782      7.561
REMARK  7 active torsions:
REMARK  status: ('A' for Active; 'I' for Inactive)
REMARK    1  A    between atoms: O_2  and  C_3 
REMARK    2  A    between atoms: C_3  and  C_4 
REMARK    3  A    between atoms: C_6  and  N_7 
REMARK       I    between atoms: N_7  and  C_8 
REMARK    4  A    between atoms: C_8  and  C_9 
REMARK    5  A    between atoms: C_17  and  C_18 
REMARK    6  A    between atoms: C_18  and  N_19 
REMARK       I    between atoms: N_19  and  C_20 
REMARK    7  A    between atoms: C_20  and  C_21 
ROOT
HETATM    1  C   UNL     1      44.005 -14.648   6.510  1.00  0.00     0.042 A 
HETATM    2  C   UNL     1      44.329 -15.966   6.154  1.00  0.00     0.047 A 
HETATM    3  C   UNL     1      43.549 -16.661   5.226  1.00  0.00     0.036 A 
HETATM    4  C   UNL     1      42.440 -16.020   4.655  1.00  0.00     0.038 A 
HETATM    5  C   UNL     1      42.118 -14.692   4.976  1.00  0.00    -0.037 A 
HETATM    6  C   UNL     1      42.897 -14.020   5.925  1.00  0.00     0.026 A 
ENDROOT
BRANCH   5   7
HETATM    7  C   UNL     1      40.974 -13.995   4.291  1.00  0.00     0.161 C 
BRANCH   7   8
HETATM    8  N   UNL     1      41.194 -13.838   2.876  1.00  0.00    -0.351 N 
HETATM    9  C   UNL     1      40.330 -14.353   1.941  1.00  0.00     0.270 C 
HETATM   10  O   UNL     1      39.250 -14.846   2.251  1.00  0.00    -0.266 OA
HETATM   11  H   UNL     1      41.981 -13.289   2.573  1.00  0.00     0.163 HD
BRANCH   9  12
HETATM   12  C   UNL     1      40.770 -14.284   0.570  1.00  0.00     0.126 A 
HETATM   13  N   UNL     1      40.609 -15.369  -0.260  1.00  0.00    -0.272 N 
HETATM   14  H   UNL     1      40.188 -16.259  -0.013  1.00  0.00     0.189 HD
HETATM   15  N   UNL     1      41.079 -15.196  -1.506  1.00  0.00    -0.178 NA
HETATM   16  C   UNL     1      41.581 -13.963  -1.476  1.00  0.00     0.063 A 
HETATM   17  C   UNL     1      41.424 -13.341  -0.210  1.00  0.00     0.002 A 
HETATM   18  C   UNL     1      42.285 -13.348  -2.634  1.00  0.00     0.062 C 
HETATM   19  C   UNL     1      41.927 -11.968   0.068  1.00  0.00     0.043 C 
HETATM   20  C   UNL     1      42.934 -11.504  -1.001  1.00  0.00     0.005 C 
HETATM   21  C   UNL     1      42.464 -11.836  -2.428  1.00  0.00     0.006 C 
ENDBRANCH   9  12
ENDBRANCH   7   8
ENDBRANCH   5   7
BRANCH   3  22
HETATM   22  N   UNL     1      43.826 -17.975   4.787  1.00  0.00    -0.323 N 
HETATM   23  C   UNL     1      43.992 -18.406   3.481  1.00  0.00     0.256 C 
HETATM   24  O   UNL     1      44.042 -17.695   2.484  1.00  0.00    -0.267 OA
HETATM   25  H   UNL     1      43.933 -18.661   5.523  1.00  0.00     0.169 HD
BRANCH  23  26
HETATM   26  C   UNL     1      44.139 -19.879   3.294  1.00  0.00     0.035 A 
HETATM   27  C   UNL     1      43.860 -20.515   2.083  1.00  0.00     0.036 A 
HETATM   28  C   UNL     1      44.057 -21.884   2.010  1.00  0.00     0.117 A 
HETATM   29  N   UNL     1      44.509 -22.635   3.036  1.00  0.00    -0.273 NA
HETATM   30  C   UNL     1      44.795 -21.992   4.187  1.00  0.00     0.117 A 
HETATM   31  C   UNL     1      44.630 -20.631   4.364  1.00  0.00     0.036 A 
ENDBRANCH  23  26
ENDBRANCH   3  22
BRANCH   1  32
HETATM   32  C   UNL     1      44.814 -13.864   7.483  1.00  0.00     0.293 C 
HETATM   33  O   UNL     1      44.488 -13.710   8.650  1.00  0.00    -0.259 OA
BRANCH  32  34
HETATM   34  O   UNL     1      45.907 -13.334   6.885  1.00  0.00    -0.323 OA
HETATM   35  C   UNL     1      46.679 -12.477   7.727  1.00  0.00     0.213 C 
ENDBRANCH  32  34
ENDBRANCH   1  32
TORSDOF 7
ENDMDL
MODEL 6
REMARK VINA RESULT:      -8.7      3.916      8.002
REMARK  7 active torsions:
REMARK  status: ('A' for Active; 'I' for Inactive)
REMARK    1  A    between atoms: O_2  and  C_3 
REMARK    2  A    between atoms: C_3  and  C_4 
REMARK    3  A    between atoms: C_6  and  N_7 
REMARK       I    between atoms: N_7  and  C_8 
REMARK    4  A    between atoms: C_8  and  C_9 
REMARK    5  A    between atoms: C_17  and  C_18 
REMARK    6  A    between atoms: C_18  and  N_19 
REMARK       I    between atoms: N_19  and  C_20 
REMARK    7  A    between atoms: C_20  and  C_21 
ROOT
HETATM    1  C   UNL     1      40.060 -12.466   4.688  1.00  0.00     0.042 A 
HETATM    2  C   UNL     1      40.080 -12.714   3.307  1.00  0.00     0.047 A 
HETATM    3  C   UNL     1      41.014 -13.597   2.760  1.00  0.00     0.036 A 
HETATM    4  C   UNL     1      41.928 -14.235   3.612  1.00  0.00     0.038 A 
HETATM    5  C   UNL     1      41.903 -14.022   5.000  1.00  0.00    -0.037 A 
HETATM    6  C   UNL     1      40.976 -13.116   5.527  1.00  0.00     0.026 A 
ENDROOT
BRANCH   5   7
HETATM    7  C   UNL     1      42.837 -14.778   5.906  1.00  0.00     0.161 C 
BRANCH   7   8
HETATM    8  N   UNL     1      43.210 -16.060   5.366  1.00  0.00    -0.351 N 
HETATM    9  C   UNL     1      42.841 -17.240   5.962  1.00  0.00     0.270 C 
HETATM   10  O   UNL     1      42.052 -17.278   6.901  1.00  0.00    -0.266 OA
HETATM   11  H   UNL     1      43.716 -16.082   4.495  1.00  0.00     0.163 HD
BRANCH   9  12
HETATM   12  C   UNL     1      43.438 -18.435   5.420  1.00  0.00     0.126 A 
HETATM   13  N   UNL     1      44.195 -19.252   6.227  1.00  0.00    -0.272 N 
HETATM   14  H   UNL     1      44.389 -19.113   7.214  1.00  0.00     0.189 HD
HETATM   15  N   UNL     1      44.722 -20.321   5.607  1.00  0.00    -0.178 NA
HETATM   16  C   UNL     1      44.308 -20.180   4.350  1.00  0.00     0.063 A 
HETATM   17  C   UNL     1      43.507 -19.022   4.166  1.00  0.00     0.002 A 
HETATM   18  C   UNL     1      44.708 -21.109   3.257  1.00  0.00     0.062 C 
HETATM   19  C   UNL     1      42.949 -18.646   2.838  1.00  0.00     0.043 C 
HETATM   20  C   UNL     1      43.648 -19.401   1.692  1.00  0.00     0.005 C 
HETATM   21  C   UNL     1      43.838 -20.895   2.009  1.00  0.00     0.006 C 
ENDBRANCH   9  12
ENDBRANCH   7   8
ENDBRANCH   5   7
BRANCH   3  22
HETATM   22  N   UNL     1      41.079 -13.929   1.388  1.00  0.00    -0.323 N 
HETATM   23  C   UNL     1      41.739 -13.235   0.388  1.00  0.00     0.256 C 
HETATM   24  O   UNL     1      42.480 -12.271   0.541  1.00  0.00    -0.267 OA
HETATM   25  H   UNL     1      40.603 -14.783   1.128  1.00  0.00     0.169 HD
BRANCH  23  26
HETATM   26  C   UNL     1      41.526 -13.735  -1.002  1.00  0.00     0.035 A 
HETATM   27  C   UNL     1      41.834 -12.973  -2.131  1.00  0.00     0.036 A 
HETATM   28  C   UNL     1      41.623 -13.543  -3.375  1.00  0.00     0.117 A 
HETATM   29  N   UNL     1      41.147 -14.792  -3.558  1.00  0.00    -0.273 NA
HETATM   30  C   UNL     1      40.881 -15.517  -2.452  1.00  0.00     0.117 A 
HETATM   31  C   UNL     1      41.053 -15.039  -1.166  1.00  0.00     0.036 A 
ENDBRANCH  23  26
ENDBRANCH   3  22
BRANCH   1  32
HETATM   32  C   UNL     1      39.077 -11.543   5.317  1.00  0.00     0.293 C 
HETATM   33  O   UNL     1      38.262 -10.897   4.676  1.00  0.00    -0.259 OA
BRANCH  32  34
HETATM   34  O   UNL     1      39.244 -11.502   6.661  1.00  0.00    -0.323 OA
HETATM   35  C   UNL     1      39.570 -10.210   7.173  1.00  0.00     0.213 C 
ENDBRANCH  32  34
ENDBRANCH   1  32
TORSDOF 7
ENDMDL
MODEL 7
REMARK VINA RESULT:      -8.6      4.633      8.208
REMARK  7 active torsions:
REMARK  status: ('A' for Active; 'I' for Inactive)
REMARK    1  A    between atoms: O_2  and  C_3 
REMARK    2  A    between atoms: C_3  and  C_4 
REMARK    3  A    between atoms: C_6  and  N_7 
REMARK       I    between atoms: N_7  and  C_8 
REMARK    4  A    between atoms: C_8  and  C_9 
REMARK    5  A    between atoms: C_17  and  C_18 
REMARK    6  A    between atoms: C_18  and  N_19 
REMARK       I    between atoms: N_19  and  C_20 
REMARK    7  A    between atoms: C_20  and  C_21 
ROOT
HETATM    1  C   UNL     1      41.952 -14.426   4.293  1.00  0.00     0.042 A 
HETATM    2  C   UNL     1      42.620 -15.643   4.495  1.00  0.00     0.047 A 
HETATM    3  C   UNL     1      42.194 -16.801   3.839  1.00  0.00     0.036 A 
HETATM    4  C   UNL     1      41.092 -16.727   2.975  1.00  0.00     0.038 A 
HETATM    5  C   UNL     1      40.430 -15.512   2.737  1.00  0.00    -0.037 A 
HETATM    6  C   UNL     1      40.856 -14.368   3.421  1.00  0.00     0.026 A 
ENDROOT
BRANCH   5   7
HETATM    7  C   UNL     1      39.303 -15.436   1.744  1.00  0.00     0.161 C 
BRANCH   7   8
HETATM    8  N   UNL     1      39.697 -14.801   0.512  1.00  0.00    -0.351 N 
HETATM    9  C   UNL     1      40.629 -15.355  -0.330  1.00  0.00     0.270 C 
HETATM   10  O   UNL     1      41.072 -16.488  -0.160  1.00  0.00    -0.266 OA
HETATM   11  H   UNL     1      39.231 -13.950   0.244  1.00  0.00     0.163 HD
BRANCH   9  12
HETATM   12  C   UNL     1      41.062 -14.526  -1.426  1.00  0.00     0.126 A 
HETATM   13  N   UNL     1      40.953 -14.983  -2.719  1.00  0.00    -0.272 N 
HETATM   14  H   UNL     1      40.576 -15.879  -3.012  1.00  0.00     0.189 HD
HETATM   15  N   UNL     1      41.412 -14.135  -3.653  1.00  0.00    -0.178 NA
HETATM   16  C   UNL     1      41.853 -13.101  -2.939  1.00  0.00     0.063 A 
HETATM   17  C   UNL     1      41.668 -13.284  -1.544  1.00  0.00     0.002 A 
HETATM   18  C   UNL     1      42.525 -11.922  -3.552  1.00  0.00     0.062 C 
HETATM   19  C   UNL     1      42.105 -12.270  -0.545  1.00  0.00     0.043 C 
HETATM   20  C   UNL     1      43.087 -11.254  -1.159  1.00  0.00     0.005 C 
HETATM   21  C   UNL     1      42.630 -10.766  -2.545  1.00  0.00     0.006 C 
ENDBRANCH   9  12
ENDBRANCH   7   8
ENDBRANCH   5   7
BRANCH   3  22
HETATM   22  N   UNL     1      42.831 -18.057   3.959  1.00  0.00    -0.323 N 
HETATM   23  C   UNL     1      43.781 -18.600   3.110  1.00  0.00     0.256 C 
HETATM   24  O   UNL     1      44.320 -18.032   2.166  1.00  0.00    -0.267 OA
HETATM   25  H   UNL     1      42.569 -18.597   4.773  1.00  0.00     0.169 HD
BRANCH  23  26
HETATM   26  C   UNL     1      44.185 -20.007   3.398  1.00  0.00     0.035 A 
HETATM   27  C   UNL     1      44.612 -20.424   4.661  1.00  0.00     0.036 A 
HETATM   28  C   UNL     1      44.938 -21.759   4.827  1.00  0.00     0.117 A 
HETATM   29  N   UNL     1      44.860 -22.680   3.844  1.00  0.00    -0.273 NA
HETATM   30  C   UNL     1      44.420 -22.257   2.640  1.00  0.00     0.117 A 
HETATM   31  C   UNL     1      44.074 -20.947   2.370  1.00  0.00     0.036 A 
ENDBRANCH  23  26
ENDBRANCH   3  22
BRANCH   1  32
HETATM   32  C   UNL     1      42.377 -13.164   4.959  1.00  0.00     0.293 C 
HETATM   33  O   UNL     1      42.908 -13.136   6.059  1.00  0.00    -0.259 OA
BRANCH  32  34
HETATM   34  O   UNL     1      42.058 -12.088   4.202  1.00  0.00    -0.323 OA
HETATM   35  C   UNL     1      41.378 -11.051   4.911  1.00  0.00     0.213 C 
ENDBRANCH  32  34
ENDBRANCH   1  32
TORSDOF 7
ENDMDL
MODEL 8
REMARK VINA RESULT:      -8.6      6.097      9.794
REMARK  7 active torsions:
REMARK  status: ('A' for Active; 'I' for Inactive)
REMARK    1  A    between atoms: O_2  and  C_3 
REMARK    2  A    between atoms: C_3  and  C_4 
REMARK    3  A    between atoms: C_6  and  N_7 
REMARK       I    between atoms: N_7  and  C_8 
REMARK    4  A    between atoms: C_8  and  C_9 
REMARK    5  A    between atoms: C_17  and  C_18 
REMARK    6  A    between atoms: C_18  and  N_19 
REMARK       I    between atoms: N_19  and  C_20 
REMARK    7  A    between atoms: C_20  and  C_21 
ROOT
HETATM    1  C   UNL     1      40.443 -15.025   2.589  1.00  0.00     0.042 A 
HETATM    2  C   UNL     1      40.997 -16.260   2.957  1.00  0.00     0.047 A 
HETATM    3  C   UNL     1      41.585 -17.087   1.997  1.00  0.00     0.036 A 
HETATM    4  C   UNL     1      41.616 -16.661   0.661  1.00  0.00     0.038 A 
HETATM    5  C   UNL     1      41.093 -15.415   0.278  1.00  0.00    -0.037 A 
HETATM    6  C   UNL     1      40.487 -14.611   1.250  1.00  0.00     0.026 A 
ENDROOT
BRANCH   5   7
HETATM    7  C   UNL     1      41.210 -14.941  -1.145  1.00  0.00     0.161 C 
BRANCH   7   8
HETATM    8  N   UNL     1      39.926 -14.803  -1.786  1.00  0.00    -0.351 N 
HETATM    9  C   UNL     1      39.804 -14.545  -3.128  1.00  0.00     0.270 C 
HETATM   10  O   UNL     1      40.769 -14.562  -3.887  1.00  0.00    -0.266 OA
HETATM   11  H   UNL     1      39.099 -14.953  -1.232  1.00  0.00     0.163 HD
BRANCH   9  12
HETATM   12  C   UNL     1      38.473 -14.248  -3.596  1.00  0.00     0.126 A 
HETATM   13  N   UNL     1      37.791 -15.167  -4.358  1.00  0.00    -0.272 N 
HETATM   14  H   UNL     1      38.126 -16.083  -4.641  1.00  0.00     0.189 HD
HETATM   15  N   UNL     1      36.572 -14.770  -4.757  1.00  0.00    -0.178 NA
HETATM   16  C   UNL     1      36.470 -13.542  -4.253  1.00  0.00     0.063 A 
HETATM   17  C   UNL     1      37.623 -13.155  -3.521  1.00  0.00     0.002 A 
HETATM   18  C   UNL     1      35.294 -12.662  -4.497  1.00  0.00     0.062 C 
HETATM   19  C   UNL     1      37.746 -11.815  -2.883  1.00  0.00     0.043 C 
HETATM   20  C   UNL     1      36.701 -10.826  -3.433  1.00  0.00     0.005 C 
HETATM   21  C   UNL     1      35.303 -11.457  -3.545  1.00  0.00     0.006 C 
ENDBRANCH   9  12
ENDBRANCH   7   8
ENDBRANCH   5   7
BRANCH   3  22
HETATM   22  N   UNL     1      42.196 -18.327   2.288  1.00  0.00    -0.323 N 
HETATM   23  C   UNL     1      43.422 -18.535   2.897  1.00  0.00     0.256 C 
HETATM   24  O   UNL     1      44.140 -17.676   3.395  1.00  0.00    -0.267 OA
HETATM   25  H   UNL     1      41.654 -19.144   2.037  1.00  0.00     0.169 HD
BRANCH  23  26
HETATM   26  C   UNL     1      43.888 -19.952   2.957  1.00  0.00     0.035 A 
HETATM   27  C   UNL     1      44.475 -20.503   4.098  1.00  0.00     0.036 A 
HETATM   28  C   UNL     1      44.847 -21.836   4.055  1.00  0.00     0.117 A 
HETATM   29  N   UNL     1      44.668 -22.633   2.981  1.00  0.00    -0.273 NA
HETATM   30  C   UNL     1      44.075 -22.083   1.900  1.00  0.00     0.117 A 
HETATM   31  C   UNL     1      43.671 -20.763   1.840  1.00  0.00     0.036 A 
ENDBRANCH  23  26
ENDBRANCH   3  22
BRANCH   1  32
HETATM   32  C   UNL     1      39.818 -14.105   3.579  1.00  0.00     0.293 C 
HETATM   33  O   UNL     1      39.678 -14.390   4.759  1.00  0.00    -0.259 OA
BRANCH  32  34
HETATM   34  O   UNL     1      39.407 -12.961   2.982  1.00  0.00    -0.323 OA
HETATM   35  C   UNL     1      39.006 -11.936   3.891  1.00  0.00     0.213 C 
ENDBRANCH  32  34
ENDBRANCH   1  32
TORSDOF 7
ENDMDL
MODEL 9
REMARK VINA RESULT:      -8.4      4.560      9.799
REMARK  7 active torsions:
REMARK  status: ('A' for Active; 'I' for Inactive)
REMARK    1  A    between atoms: O_2  and  C_3 
REMARK    2  A    between atoms: C_3  and  C_4 
REMARK    3  A    between atoms: C_6  and  N_7 
REMARK       I    between atoms: N_7  and  C_8 
REMARK    4  A    between atoms: C_8  and  C_9 
REMARK    5  A    between atoms: C_17  and  C_18 
REMARK    6  A    between atoms: C_18  and  N_19 
REMARK       I    between atoms: N_19  and  C_20 
REMARK    7  A    between atoms: C_20  and  C_21 
ROOT
HETATM    1  C   UNL     1      43.719 -18.990   3.479  1.00  0.00     0.042 A 
HETATM    2  C   UNL     1      43.868 -17.984   4.445  1.00  0.00     0.047 A 
HETATM    3  C   UNL     1      43.111 -16.812   4.370  1.00  0.00     0.036 A 
HETATM    4  C   UNL     1      42.199 -16.658   3.315  1.00  0.00     0.038 A 
HETATM    5  C   UNL     1      42.015 -17.667   2.355  1.00  0.00    -0.037 A 
HETATM    6  C   UNL     1      42.799 -18.823   2.434  1.00  0.00     0.026 A 
ENDROOT
BRANCH   5   7
HETATM    7  C   UNL     1      40.973 -17.519   1.280  1.00  0.00     0.161 C 
BRANCH   7   8
HETATM    8  N   UNL     1      41.396 -16.634   0.224  1.00  0.00    -0.351 N 
HETATM    9  C   UNL     1      40.873 -15.373   0.074  1.00  0.00     0.270 C 
HETATM   10  O   UNL     1      40.130 -14.871   0.911  1.00  0.00    -0.266 OA
HETATM   11  H   UNL     1      42.133 -16.941  -0.389  1.00  0.00     0.163 HD
BRANCH   9  12
HETATM   12  C   UNL     1      41.248 -14.673  -1.128  1.00  0.00     0.126 A 
HETATM   13  N   UNL     1      41.181 -15.311  -2.345  1.00  0.00    -0.272 N 
HETATM   14  H   UNL     1      40.876 -16.265  -2.510  1.00  0.00     0.189 HD
HETATM   15  N   UNL     1      41.580 -14.567  -3.390  1.00  0.00    -0.178 NA
HETATM   16  C   UNL     1      41.937 -13.415  -2.828  1.00  0.00     0.063 A 
HETATM   17  C   UNL     1      41.758 -13.417  -1.420  1.00  0.00     0.002 A 
HETATM   18  C   UNL     1      42.521 -12.284  -3.600  1.00  0.00     0.062 C 
HETATM   19  C   UNL     1      42.111 -12.243  -0.573  1.00  0.00     0.043 C 
HETATM   20  C   UNL     1      43.015 -11.250  -1.326  1.00  0.00     0.005 C 
HETATM   21  C   UNL     1      42.532 -10.995  -2.764  1.00  0.00     0.006 C 
ENDBRANCH   9  12
ENDBRANCH   7   8
ENDBRANCH   5   7
BRANCH   3  22
HETATM   22  N   UNL     1      43.173 -15.767   5.320  1.00  0.00    -0.323 N 
HETATM   23  C   UNL     1      43.614 -14.471   5.113  1.00  0.00     0.256 C 
HETATM   24  O   UNL     1      43.919 -13.972   4.036  1.00  0.00    -0.267 OA
HETATM   25  H   UNL     1      42.835 -16.004   6.243  1.00  0.00     0.169 HD
BRANCH  23  26
HETATM   26  C   UNL     1      43.704 -13.611   6.329  1.00  0.00     0.035 A 
HETATM   27  C   UNL     1      44.723 -13.747   7.274  1.00  0.00     0.036 A 
HETATM   28  C   UNL     1      44.727 -12.879   8.352  1.00  0.00     0.117 A 
HETATM   29  N   UNL     1      43.811 -11.906   8.538  1.00  0.00    -0.273 NA
HETATM   30  C   UNL     1      42.851 -11.779   7.598  1.00  0.00     0.117 A 
HETATM   31  C   UNL     1      42.756 -12.597   6.488  1.00  0.00     0.036 A 
ENDBRANCH  23  26
ENDBRANCH   3  22
BRANCH   1  32
HETATM   32  C   UNL     1      44.494 -20.260   3.525  1.00  0.00     0.293 C 
HETATM   33  O   UNL     1      45.050 -20.738   2.549  1.00  0.00    -0.259 OA
BRANCH  32  34
HETATM   34  O   UNL     1      44.455 -20.804   4.765  1.00  0.00    -0.323 OA
HETATM   35  C   UNL     1      45.154 -22.043   4.885  1.00  0.00     0.213 C 
ENDBRANCH  32  34
ENDBRANCH   1  32
TORSDOF 7
ENDMDL
MODEL 10
REMARK VINA RESULT:      -8.3      2.282      3.608
REMARK  7 active torsions:
REMARK  status: ('A' for Active; 'I' for Inactive)
REMARK    1  A    between atoms: O_2  and  C_3 
REMARK    2  A    between atoms: C_3  and  C_4 
REMARK    3  A    between atoms: C_6  and  N_7 
REMARK       I    between atoms: N_7  and  C_8 
REMARK    4  A    between atoms: C_8  and  C_9 
REMARK    5  A    between atoms: C_17  and  C_18 
REMARK    6  A    between atoms: C_18  and  N_19 
REMARK       I    between atoms: N_19  and  C_20 
REMARK    7  A    between atoms: C_20  and  C_21 
ROOT
HETATM    1  C   UNL     1      39.547 -14.508   2.197  1.00  0.00     0.042 A 
HETATM    2  C   UNL     1      40.397 -15.606   2.399  1.00  0.00     0.047 A 
HETATM    3  C   UNL     1      41.181 -15.693   3.552  1.00  0.00     0.036 A 
HETATM    4  C   UNL     1      41.103 -14.668   4.506  1.00  0.00     0.038 A 
HETATM    5  C   UNL     1      40.236 -13.576   4.336  1.00  0.00    -0.037 A 
HETATM    6  C   UNL     1      39.477 -13.494   3.164  1.00  0.00     0.026 A 
ENDROOT
BRANCH   5   7
HETATM    7  C   UNL     1      40.105 -12.529   5.409  1.00  0.00     0.161 C 
BRANCH   7   8
HETATM    8  N   UNL     1      41.115 -12.657   6.429  1.00  0.00    -0.351 N 
HETATM    9  C   UNL     1      41.832 -11.580   6.887  1.00  0.00     0.270 C 
HETATM   10  O   UNL     1      41.557 -10.428   6.565  1.00  0.00    -0.266 OA
HETATM   11  H   UNL     1      41.257 -13.561   6.848  1.00  0.00     0.163 HD
BRANCH   9  12
HETATM   12  C   UNL     1      42.932 -11.882   7.767  1.00  0.00     0.126 A 
HETATM   13  N   UNL     1      43.759 -12.947   7.495  1.00  0.00    -0.272 N 
HETATM   14  H   UNL     1      43.691 -13.576   6.701  1.00  0.00     0.189 HD
HETATM   15  N   UNL     1      44.732 -13.146   8.399  1.00  0.00    -0.178 NA
HETATM   16  C   UNL     1      44.515 -12.190   9.299  1.00  0.00     0.063 A 
HETATM   17  C   UNL     1      43.405 -11.370   8.966  1.00  0.00     0.002 A 
HETATM   18  C   UNL     1      45.318 -12.054  10.545  1.00  0.00     0.062 C 
HETATM   19  C   UNL     1      42.958 -10.247   9.837  1.00  0.00     0.043 C 
HETATM   20  C   UNL     1      43.564 -10.347  11.249  1.00  0.00     0.005 C 
HETATM   21  C   UNL     1      45.062 -10.697  11.218  1.00  0.00     0.006 C 
ENDBRANCH   9  12
ENDBRANCH   7   8
ENDBRANCH   5   7
BRANCH   3  22
HETATM   22  N   UNL     1      42.034 -16.780   3.848  1.00  0.00    -0.323 N 
HETATM   23  C   UNL     1      43.183 -17.152   3.170  1.00  0.00     0.256 C 
HETATM   24  O   UNL     1      43.724 -16.531   2.263  1.00  0.00    -0.267 OA
HETATM   25  H   UNL     1      41.773 -17.323   4.660  1.00  0.00     0.169 HD
BRANCH  23  26
HETATM   26  C   UNL     1      43.817 -18.428   3.615  1.00  0.00     0.035 A 
HETATM   27  C   UNL     1      43.944 -18.776   4.961  1.00  0.00     0.036 A 
HETATM   28  C   UNL     1      44.524 -19.996   5.263  1.00  0.00     0.117 A 
HETATM   29  N   UNL     1      44.966 -20.870   4.334  1.00  0.00    -0.273 NA
HETATM   30  C   UNL     1      44.809 -20.521   3.040  1.00  0.00     0.117 A 
HETATM   31  C   UNL     1      44.246 -19.325   2.634  1.00  0.00     0.036 A 
ENDBRANCH  23  26
ENDBRANCH   3  22
BRANCH   1  32
HETATM   32  C   UNL     1      38.685 -14.378   0.992  1.00  0.00     0.293 C 
HETATM   33  O   UNL     1      37.464 -14.392   1.039  1.00  0.00    -0.259 OA
BRANCH  32  34
HETATM   34  O   UNL     1      39.437 -14.284  -0.131  1.00  0.00    -0.323 OA
HETATM   35  C   UNL     1      39.826 -12.952  -0.468  1.00  0.00     0.213 C 
ENDBRANCH  32  34
ENDBRANCH   1  32
TORSDOF 7
ENDMDL
