MODEL 1
REMARK VINA RESULT:      -8.2      0.000      0.000
REMARK  8 active torsions:
REMARK  status: ('A' for Active; 'I' for Inactive)
REMARK    1  A    between atoms: C_3  and  C_4 
REMARK    2  A    between atoms: C_4  and  C_5 
REMARK       I    between atoms: C_5  and  N_6 
REMARK    3  A    between atoms: N_6  and  C_7 
REMARK    4  A    between atoms: C_14  and  N_15 
REMARK       I    between atoms: N_15  and  C_16 
REMARK    5  A    between atoms: C_16  and  C_17 
REMARK    6  A    between atoms: C_26  and  C_27 
REMARK    7  A    between atoms: C_27  and  O_28 
REMARK    8  A    between atoms: C_30  and  O_31 
ROOT
HETATM    1  C   UNL     1      44.124 -15.152   7.318  1.00  0.00     0.216 C 
HETATM    2  C   UNL     1      44.439 -16.563   6.846  1.00  0.00    -0.098 C 
HETATM    3  C   UNL     1      44.707 -17.772   6.440  1.00  0.00     0.014 C 
ENDROOT
BRANCH   1   4
HETATM    4  N   UNL     1      43.042 -14.546   6.582  1.00  0.00    -0.351 N 
HETATM    5  C   UNL     1      43.320 -13.614   5.597  1.00  0.00     0.219 C 
HETATM    6  O   UNL     1      44.455 -13.437   5.169  1.00  0.00    -0.274 OA
HETATM    7  H   UNL     1      42.105 -14.623   6.954  1.00  0.00     0.163 HD
BRANCH   5   8
HETATM    8  C   UNL     1      42.104 -12.881   5.060  1.00  0.00     0.114 C 
BRANCH   8   9
HETATM    9  C   UNL     1      41.725 -13.221   3.587  1.00  0.00     0.056 C 
HETATM   10  C   UNL     1      40.446 -12.450   2.985  1.00  0.00    -0.030 C 
HETATM   11  C   UNL     1      39.324 -12.391   4.067  1.00  0.00     0.016 C 
HETATM   12  C   UNL     1      39.857 -13.197   1.703  1.00  0.00     0.012 C 
HETATM   13  C   UNL     1      40.755 -10.963   2.616  1.00  0.00     0.013 C 
HETATM   14  C   UNL     1      39.399 -14.635   2.053  1.00  0.00     0.055 C 
HETATM   15  C   UNL     1      40.717 -13.064   0.359  1.00  0.00     0.008 C 
HETATM   16  C   UNL     1      40.473 -15.328   2.804  1.00  0.00     0.012 C 
HETATM   17  C   UNL     1      41.532 -14.729   3.459  1.00  0.00     0.056 C 
HETATM   18  S   UNL     1      40.606 -17.022   2.869  1.00  0.00    -0.055 SA
HETATM   19  N   UNL     1      42.529 -15.614   3.845  1.00  0.00    -0.227 NA
HETATM   20  C   UNL     1      42.181 -16.830   3.502  1.00  0.00     0.174 C 
HETATM   21  C   UNL     1      39.707 -13.110  -0.827  1.00  0.00     0.020 C 
HETATM   22  C   UNL     1      41.432 -11.679   0.300  1.00  0.00     0.128 C 
HETATM   23  C   UNL     1      40.701 -10.630   1.126  1.00  0.00     0.033 C 
BRANCH  20  24
HETATM   24  N   UNL     1      42.902 -17.983   3.447  1.00  0.00    -0.300 N 
HETATM   25  C   UNL     1      43.668 -18.327   2.359  1.00  0.00     0.281 C 
HETATM   26  O   UNL     1      44.116 -17.564   1.512  1.00  0.00    -0.265 OA
HETATM   27  H   UNL     1      42.599 -18.727   4.060  1.00  0.00     0.171 HD
BRANCH  25  28
HETATM   28  C   UNL     1      43.861 -19.768   2.286  1.00  0.00     0.142 A 
HETATM   29  O   UNL     1      42.915 -20.537   1.649  1.00  0.00    -0.317 OA
HETATM   30  C   UNL     1      43.362 -21.819   1.664  1.00  0.00     0.143 A 
HETATM   31  C   UNL     1      44.580 -21.896   2.298  1.00  0.00     0.027 A 
HETATM   32  C   UNL     1      44.899 -20.578   2.704  1.00  0.00     0.045 A 
ENDBRANCH  25  28
ENDBRANCH  20  24
BRANCH  15  33
HETATM   33  C   UNL     1      41.776 -14.169   0.098  1.00  0.00     0.176 C 
BRANCH  33  34
HETATM   34  O   UNL     1      42.229 -14.188  -1.252  1.00  0.00    -0.400 OA
HETATM   35  H   UNL     1      41.452 -13.979  -1.799  1.00  0.00     0.209 HD
ENDBRANCH  33  34
ENDBRANCH  15  33
BRANCH  22  36
HETATM   36  O   UNL     1      42.778 -11.786   0.760  1.00  0.00    -0.395 OA
HETATM   37  H   UNL     1      43.061 -12.716   0.704  1.00  0.00     0.210 HD
ENDBRANCH  22  36
ENDBRANCH   8   9
ENDBRANCH   5   8
ENDBRANCH   1   4
TORSDOF 8
ENDMDL
MODEL 2
REMARK VINA RESULT:      -8.1      2.196      6.199
REMARK  8 active torsions:
REMARK  status: ('A' for Active; 'I' for Inactive)
REMARK    1  A    between atoms: C_3  and  C_4 
REMARK    2  A    between atoms: C_4  and  C_5 
REMARK       I    between atoms: C_5  and  N_6 
REMARK    3  A    between atoms: N_6  and  C_7 
REMARK    4  A    between atoms: C_14  and  N_15 
REMARK       I    between atoms: N_15  and  C_16 
REMARK    5  A    between atoms: C_16  and  C_17 
REMARK    6  A    between atoms: C_26  and  C_27 
REMARK    7  A    between atoms: C_27  and  O_28 
REMARK    8  A    between atoms: C_30  and  O_31 
ROOT
HETATM    1  C   UNL     1      44.741 -20.456   2.817  1.00  0.00     0.216 C 
HETATM    2  C   UNL     1      44.775 -21.608   3.809  1.00  0.00    -0.098 C 
HETATM    3  C   UNL     1      44.803 -22.595   4.659  1.00  0.00     0.014 C 
ENDROOT
BRANCH   1   4
HETATM    4  N   UNL     1      43.540 -19.665   2.923  1.00  0.00    -0.351 N 
HETATM    5  C   UNL     1      43.451 -18.681   3.892  1.00  0.00     0.219 C 
HETATM    6  O   UNL     1      44.429 -18.300   4.527  1.00  0.00    -0.274 OA
HETATM    7  H   UNL     1      42.703 -19.997   2.464  1.00  0.00     0.163 HD
BRANCH   5   8
HETATM    8  C   UNL     1      42.067 -18.081   4.059  1.00  0.00     0.114 C 
BRANCH   8   9
HETATM    9  C   UNL     1      42.036 -16.535   4.257  1.00  0.00     0.056 C 
HETATM   10  C   UNL     1      41.726 -16.016   5.749  1.00  0.00    -0.030 C 
HETATM   11  C   UNL     1      40.593 -16.888   6.373  1.00  0.00     0.016 C 
HETATM   12  C   UNL     1      41.239 -14.495   5.755  1.00  0.00     0.012 C 
HETATM   13  C   UNL     1      42.951 -16.166   6.708  1.00  0.00     0.013 C 
HETATM   14  C   UNL     1      39.938 -14.321   4.932  1.00  0.00     0.055 C 
HETATM   15  C   UNL     1      42.371 -13.397   5.481  1.00  0.00     0.008 C 
HETATM   16  C   UNL     1      40.095 -14.974   3.611  1.00  0.00     0.012 C 
HETATM   17  C   UNL     1      41.037 -15.928   3.276  1.00  0.00     0.056 C 
HETATM   18  S   UNL     1      39.170 -14.540   2.251  1.00  0.00    -0.055 SA
HETATM   19  N   UNL     1      41.136 -16.169   1.913  1.00  0.00    -0.227 NA
HETATM   20  C   UNL     1      40.262 -15.425   1.281  1.00  0.00     0.174 C 
HETATM   21  C   UNL     1      41.956 -12.118   6.269  1.00  0.00     0.020 C 
HETATM   22  C   UNL     1      43.742 -13.867   6.056  1.00  0.00     0.128 C 
HETATM   23  C   UNL     1      43.566 -14.856   7.199  1.00  0.00     0.033 C 
BRANCH  20  24
HETATM   24  N   UNL     1      40.132 -15.129  -0.041  1.00  0.00    -0.300 N 
HETATM   25  C   UNL     1      40.817 -14.100  -0.641  1.00  0.00     0.281 C 
HETATM   26  O   UNL     1      41.852 -13.582  -0.241  1.00  0.00    -0.265 OA
HETATM   27  H   UNL     1      39.285 -15.450  -0.488  1.00  0.00     0.171 HD
BRANCH  25  28
HETATM   28  C   UNL     1      40.125 -13.631  -1.833  1.00  0.00     0.142 A 
HETATM   29  O   UNL     1      39.224 -14.464  -2.454  1.00  0.00    -0.317 OA
HETATM   30  C   UNL     1      38.679 -13.770  -3.485  1.00  0.00     0.143 A 
HETATM   31  C   UNL     1      39.209 -12.503  -3.545  1.00  0.00     0.027 A 
HETATM   32  C   UNL     1      40.144 -12.413  -2.487  1.00  0.00     0.045 A 
ENDBRANCH  25  28
ENDBRANCH  20  24
BRANCH  15  33
HETATM   33  C   UNL     1      42.584 -12.970   4.003  1.00  0.00     0.176 C 
BRANCH  33  34
HETATM   34  O   UNL     1      41.946 -11.736   3.690  1.00  0.00    -0.400 OA
HETATM   35  H   UNL     1      42.527 -11.038   4.037  1.00  0.00     0.209 HD
ENDBRANCH  33  34
ENDBRANCH  15  33
BRANCH  22  36
HETATM   36  O   UNL     1      44.539 -14.465   5.035  1.00  0.00    -0.395 OA
HETATM   37  H   UNL     1      45.453 -14.559   5.358  1.00  0.00     0.210 HD
ENDBRANCH  22  36
ENDBRANCH   8   9
ENDBRANCH   5   8
ENDBRANCH   1   4
TORSDOF 8
ENDMDL
MODEL 3
REMARK VINA RESULT:      -7.9      2.878      7.007
REMARK  8 active torsions:
REMARK  status: ('A' for Active; 'I' for Inactive)
REMARK    1  A    between atoms: C_3  and  C_4 
REMARK    2  A    between atoms: C_4  and  C_5 
REMARK       I    between atoms: C_5  and  N_6 
REMARK    3  A    between atoms: N_6  and  C_7 
REMARK    4  A    between atoms: C_14  and  N_15 
REMARK       I    between atoms: N_15  and  C_16 
REMARK    5  A    between atoms: C_16  and  C_17 
REMARK    6  A    between atoms: C_26  and  C_27 
REMARK    7  A    between atoms: C_27  and  O_28 
REMARK    8  A    between atoms: C_30  and  O_31 
ROOT
HETATM    1  C   UNL     1      44.300 -19.580   2.588  1.00  0.00     0.216 C 
HETATM    2  C   UNL     1      44.145 -19.313   4.077  1.00  0.00    -0.098 C 
HETATM    3  C   UNL     1      44.012 -19.083   5.353  1.00  0.00     0.014 C 
ENDROOT
BRANCH   1   4
HETATM    4  N   UNL     1      43.314 -18.888   1.793  1.00  0.00    -0.351 N 
HETATM    5  C   UNL     1      43.593 -17.625   1.303  1.00  0.00     0.219 C 
HETATM    6  O   UNL     1      44.723 -17.150   1.328  1.00  0.00    -0.274 OA
HETATM    7  H   UNL     1      42.361 -19.223   1.811  1.00  0.00     0.163 HD
BRANCH   5   8
HETATM    8  C   UNL     1      42.404 -16.910   0.686  1.00  0.00     0.114 C 
BRANCH   8   9
HETATM    9  C   UNL     1      41.883 -15.680   1.489  1.00  0.00     0.056 C 
HETATM   10  C   UNL     1      40.813 -15.992   2.651  1.00  0.00    -0.030 C 
HETATM   11  C   UNL     1      39.795 -17.057   2.142  1.00  0.00     0.016 C 
HETATM   12  C   UNL     1      39.995 -14.684   3.065  1.00  0.00     0.012 C 
HETATM   13  C   UNL     1      41.469 -16.611   3.927  1.00  0.00     0.013 C 
HETATM   14  C   UNL     1      39.206 -14.113   1.860  1.00  0.00     0.055 C 
HETATM   15  C   UNL     1      40.796 -13.602   3.931  1.00  0.00     0.008 C 
HETATM   16  C   UNL     1      40.105 -14.003   0.686  1.00  0.00     0.012 C 
HETATM   17  C   UNL     1      41.310 -14.657   0.514  1.00  0.00     0.056 C 
HETATM   18  S   UNL     1      39.809 -12.936  -0.605  1.00  0.00    -0.055 SA
HETATM   19  N   UNL     1      42.069 -14.170  -0.542  1.00  0.00    -0.227 NA
HETATM   20  C   UNL     1      41.410 -13.207  -1.136  1.00  0.00     0.174 C 
HETATM   21  C   UNL     1      39.753 -12.901   4.851  1.00  0.00     0.020 C 
HETATM   22  C   UNL     1      41.834 -14.303   4.861  1.00  0.00     0.128 C 
HETATM   23  C   UNL     1      41.431 -15.735   5.178  1.00  0.00     0.033 C 
BRANCH  20  24
HETATM   24  N   UNL     1      41.814 -12.278  -2.047  1.00  0.00    -0.300 N 
HETATM   25  C   UNL     1      42.675 -11.256  -1.731  1.00  0.00     0.281 C 
HETATM   26  O   UNL     1      43.465 -11.231  -0.794  1.00  0.00    -0.265 OA
HETATM   27  H   UNL     1      41.215 -12.154  -2.851  1.00  0.00     0.171 HD
BRANCH  25  28
HETATM   28  C   UNL     1      42.511 -10.129  -2.638  1.00  0.00     0.142 A 
HETATM   29  O   UNL     1      42.460  -8.856  -2.120  1.00  0.00    -0.317 OA
HETATM   30  C   UNL     1      42.370  -7.999  -3.168  1.00  0.00     0.143 A 
HETATM   31  C   UNL     1      42.362  -8.691  -4.356  1.00  0.00     0.027 A 
HETATM   32  C   UNL     1      42.445 -10.063  -4.016  1.00  0.00     0.045 A 
ENDBRANCH  25  28
ENDBRANCH  20  24
BRANCH  15  33
HETATM   33  C   UNL     1      41.529 -12.483   3.141  1.00  0.00     0.176 C 
BRANCH  33  34
HETATM   34  O   UNL     1      41.989 -11.429   3.980  1.00  0.00    -0.400 OA
HETATM   35  H   UNL     1      41.596 -10.613   3.626  1.00  0.00     0.209 HD
ENDBRANCH  33  34
ENDBRANCH  15  33
BRANCH  22  36
HETATM   36  O   UNL     1      43.130 -14.299   4.264  1.00  0.00    -0.395 OA
HETATM   37  H   UNL     1      43.271 -13.448   3.813  1.00  0.00     0.210 HD
ENDBRANCH  22  36
ENDBRANCH   8   9
ENDBRANCH   5   8
ENDBRANCH   1   4
TORSDOF 8
ENDMDL
MODEL 4
REMARK VINA RESULT:      -7.9      2.968      6.016
REMARK  8 active torsions:
REMARK  status: ('A' for Active; 'I' for Inactive)
REMARK    1  A    between atoms: C_3  and  C_4 
REMARK    2  A    between atoms: C_4  and  C_5 
REMARK       I    between atoms: C_5  and  N_6 
REMARK    3  A    between atoms: N_6  and  C_7 
REMARK    4  A    between atoms: C_14  and  N_15 
REMARK       I    between atoms: N_15  and  C_16 
REMARK    5  A    between atoms: C_16  and  C_17 
REMARK    6  A    between atoms: C_26  and  C_27 
REMARK    7  A    between atoms: C_27  and  O_28 
REMARK    8  A    between atoms: C_30  and  O_31 
ROOT
HETATM    1  C   UNL     1      38.729 -16.157  -4.105  1.00  0.00     0.216 C 
HETATM    2  C   UNL     1      37.588 -15.153  -4.160  1.00  0.00    -0.098 C 
HETATM    3  C   UNL     1      36.610 -14.293  -4.206  1.00  0.00     0.014 C 
ENDROOT
BRANCH   1   4
HETATM    4  N   UNL     1      39.592 -15.957  -2.966  1.00  0.00    -0.351 N 
HETATM    5  C   UNL     1      40.658 -15.080  -3.058  1.00  0.00     0.219 C 
HETATM    6  O   UNL     1      40.780 -14.298  -3.995  1.00  0.00    -0.274 OA
HETATM    7  H   UNL     1      39.556 -16.630  -2.212  1.00  0.00     0.163 HD
BRANCH   5   8
HETATM    8  C   UNL     1      41.621 -15.131  -1.886  1.00  0.00     0.114 C 
BRANCH   8   9
HETATM    9  C   UNL     1      41.018 -14.696  -0.516  1.00  0.00     0.056 C 
HETATM   10  C   UNL     1      40.734 -13.123  -0.331  1.00  0.00    -0.030 C 
HETATM   11  C   UNL     1      41.922 -12.311  -0.933  1.00  0.00     0.016 C 
HETATM   12  C   UNL     1      40.596 -12.726   1.210  1.00  0.00     0.012 C 
HETATM   13  C   UNL     1      39.462 -12.642  -1.100  1.00  0.00     0.013 C 
HETATM   14  C   UNL     1      41.894 -13.051   1.991  1.00  0.00     0.055 C 
HETATM   15  C   UNL     1      39.237 -13.175   1.929  1.00  0.00     0.008 C 
HETATM   16  C   UNL     1      42.323 -14.437   1.687  1.00  0.00     0.012 C 
HETATM   17  C   UNL     1      41.922 -15.199   0.606  1.00  0.00     0.056 C 
HETATM   18  S   UNL     1      43.318 -15.343   2.726  1.00  0.00    -0.055 SA
HETATM   19  N   UNL     1      42.257 -16.542   0.708  1.00  0.00    -0.227 NA
HETATM   20  C   UNL     1      42.913 -16.737   1.825  1.00  0.00     0.174 C 
HETATM   21  C   UNL     1      38.934 -12.108   3.023  1.00  0.00     0.020 C 
HETATM   22  C   UNL     1      38.049 -13.151   0.919  1.00  0.00     0.128 C 
HETATM   23  C   UNL     1      38.299 -12.179  -0.225  1.00  0.00     0.033 C 
BRANCH  20  24
HETATM   24  N   UNL     1      43.241 -17.885   2.480  1.00  0.00    -0.300 N 
HETATM   25  C   UNL     1      42.610 -18.288   3.632  1.00  0.00     0.281 C 
HETATM   26  O   UNL     1      41.498 -17.944   4.013  1.00  0.00    -0.265 OA
HETATM   27  H   UNL     1      44.165 -18.252   2.299  1.00  0.00     0.171 HD
BRANCH  25  28
HETATM   28  C   UNL     1      43.462 -19.169   4.418  1.00  0.00     0.142 A 
HETATM   29  O   UNL     1      43.285 -19.230   5.780  1.00  0.00    -0.317 OA
HETATM   30  C   UNL     1      44.149 -20.163   6.256  1.00  0.00     0.143 A 
HETATM   31  C   UNL     1      44.882 -20.708   5.229  1.00  0.00     0.027 A 
HETATM   32  C   UNL     1      44.446 -20.065   4.046  1.00  0.00     0.045 A 
ENDBRANCH  25  28
ENDBRANCH  20  24
BRANCH  15  33
HETATM   33  C   UNL     1      39.248 -14.559   2.634  1.00  0.00     0.176 C 
BRANCH  33  34
HETATM   34  O   UNL     1      39.600 -14.471   4.011  1.00  0.00    -0.400 OA
HETATM   35  H   UNL     1      40.260 -15.169   4.164  1.00  0.00     0.209 HD
ENDBRANCH  33  34
ENDBRANCH  15  33
BRANCH  22  36
HETATM   36  O   UNL     1      37.811 -14.453   0.388  1.00  0.00    -0.395 OA
HETATM   37  H   UNL     1      38.564 -14.711  -0.173  1.00  0.00     0.210 HD
ENDBRANCH  22  36
ENDBRANCH   8   9
ENDBRANCH   5   8
ENDBRANCH   1   4
TORSDOF 8
ENDMDL
MODEL 5
REMARK VINA RESULT:      -7.6      2.874      5.590
REMARK  8 active torsions:
REMARK  status: ('A' for Active; 'I' for Inactive)
REMARK    1  A    between atoms: C_3  and  C_4 
REMARK    2  A    between atoms: C_4  and  C_5 
REMARK       I    between atoms: C_5  and  N_6 
REMARK    3  A    between atoms: N_6  and  C_7 
REMARK    4  A    between atoms: C_14  and  N_15 
REMARK       I    between atoms: N_15  and  C_16 
REMARK    5  A    between atoms: C_16  and  C_17 
REMARK    6  A    between atoms: C_26  and  C_27 
REMARK    7  A    between atoms: C_27  and  O_28 
REMARK    8  A    between atoms: C_30  and  O_31 
ROOT
HETATM    1  C   UNL     1      42.898  -7.903  -1.904  1.00  0.00     0.216 C 
HETATM    2  C   UNL     1      42.564  -8.316  -3.328  1.00  0.00    -0.098 C 
HETATM    3  C   UNL     1      42.277  -8.670  -4.549  1.00  0.00     0.014 C 
ENDROOT
BRANCH   1   4
HETATM    4  N   UNL     1      42.265  -8.744  -0.917  1.00  0.00    -0.351 N 
HETATM    5  C   UNL     1      42.882  -9.917  -0.519  1.00  0.00     0.219 C 
HETATM    6  O   UNL     1      44.048 -10.171  -0.804  1.00  0.00    -0.274 OA
HETATM    7  H   UNL     1      41.286  -8.596  -0.717  1.00  0.00     0.163 HD
BRANCH   5   8
HETATM    8  C   UNL     1      42.019 -10.825   0.339  1.00  0.00     0.114 C 
BRANCH   8   9
HETATM    9  C   UNL     1      41.447 -12.078  -0.392  1.00  0.00     0.056 C 
HETATM   10  C   UNL     1      40.046 -11.875  -1.159  1.00  0.00    -0.030 C 
HETATM   11  C   UNL     1      39.097 -11.008  -0.276  1.00  0.00     0.016 C 
HETATM   12  C   UNL     1      39.321 -13.271  -1.439  1.00  0.00     0.012 C 
HETATM   13  C   UNL     1      40.200 -11.097  -2.505  1.00  0.00     0.013 C 
HETATM   14  C   UNL     1      39.015 -14.018  -0.117  1.00  0.00     0.055 C 
HETATM   15  C   UNL     1      39.961 -14.170  -2.599  1.00  0.00     0.008 C 
HETATM   16  C   UNL     1      40.231 -14.048   0.730  1.00  0.00     0.012 C 
HETATM   17  C   UNL     1      41.335 -13.226   0.606  1.00  0.00     0.056 C 
HETATM   18  S   UNL     1      40.482 -15.214   1.942  1.00  0.00    -0.055 SA
HETATM   19  N   UNL     1      42.434 -13.644   1.345  1.00  0.00    -0.227 NA
HETATM   20  C   UNL     1      42.117 -14.726   2.010  1.00  0.00     0.174 C 
HETATM   21  C   UNL     1      38.791 -14.975  -3.239  1.00  0.00     0.020 C 
HETATM   22  C   UNL     1      40.568 -13.271  -3.719  1.00  0.00     0.128 C 
HETATM   23  C   UNL     1      39.903 -11.903  -3.769  1.00  0.00     0.033 C 
BRANCH  20  24
HETATM   24  N   UNL     1      42.895 -15.627   2.671  1.00  0.00    -0.300 N 
HETATM   25  C   UNL     1      43.351 -16.784   2.087  1.00  0.00     0.281 C 
HETATM   26  O   UNL     1      43.471 -16.995   0.886  1.00  0.00    -0.265 OA
HETATM   27  H   UNL     1      42.847 -15.601   3.680  1.00  0.00     0.171 HD
BRANCH  25  28
HETATM   28  C   UNL     1      43.645 -17.799   3.087  1.00  0.00     0.142 A 
HETATM   29  O   UNL     1      44.082 -19.037   2.675  1.00  0.00    -0.317 OA
HETATM   30  C   UNL     1      44.343 -19.763   3.792  1.00  0.00     0.143 A 
HETATM   31  C   UNL     1      44.084 -19.021   4.920  1.00  0.00     0.027 A 
HETATM   32  C   UNL     1      43.629 -17.759   4.468  1.00  0.00     0.045 A 
ENDBRANCH  25  28
ENDBRANCH  20  24
BRANCH  15  33
HETATM   33  C   UNL     1      41.038 -15.202  -2.166  1.00  0.00     0.176 C 
BRANCH  33  34
HETATM   34  O   UNL     1      41.719 -15.784  -3.273  1.00  0.00    -0.400 OA
HETATM   35  H   UNL     1      41.229 -16.595  -3.493  1.00  0.00     0.209 HD
ENDBRANCH  33  34
ENDBRANCH  15  33
BRANCH  22  36
HETATM   36  O   UNL     1      41.972 -13.105  -3.527  1.00  0.00    -0.395 OA
HETATM   37  H   UNL     1      42.227 -12.205  -3.799  1.00  0.00     0.210 HD
ENDBRANCH  22  36
ENDBRANCH   8   9
ENDBRANCH   5   8
ENDBRANCH   1   4
TORSDOF 8
ENDMDL
MODEL 6
REMARK VINA RESULT:      -7.6      3.296      7.172
REMARK  8 active torsions:
REMARK  status: ('A' for Active; 'I' for Inactive)
REMARK    1  A    between atoms: C_3  and  C_4 
REMARK    2  A    between atoms: C_4  and  C_5 
REMARK       I    between atoms: C_5  and  N_6 
REMARK    3  A    between atoms: N_6  and  C_7 
REMARK    4  A    between atoms: C_14  and  N_15 
REMARK       I    between atoms: N_15  and  C_16 
REMARK    5  A    between atoms: C_16  and  C_17 
REMARK    6  A    between atoms: C_26  and  C_27 
REMARK    7  A    between atoms: C_27  and  O_28 
REMARK    8  A    between atoms: C_30  and  O_31 
ROOT
HETATM    1  C   UNL     1      44.703 -20.155   4.635  1.00  0.00     0.216 C 
HETATM    2  C   UNL     1      44.327 -20.554   3.217  1.00  0.00    -0.098 C 
HETATM    3  C   UNL     1      44.004 -20.895   2.001  1.00  0.00     0.014 C 
ENDROOT
BRANCH   1   4
HETATM    4  N   UNL     1      44.661 -18.728   4.842  1.00  0.00    -0.351 N 
HETATM    5  C   UNL     1      43.458 -18.114   5.141  1.00  0.00     0.219 C 
HETATM    6  O   UNL     1      42.459 -18.753   5.454  1.00  0.00    -0.274 OA
HETATM    7  H   UNL     1      45.446 -18.173   4.528  1.00  0.00     0.163 HD
BRANCH   5   8
HETATM    8  C   UNL     1      43.496 -16.597   5.104  1.00  0.00     0.114 C 
BRANCH   8   9
HETATM    9  C   UNL     1      42.462 -15.932   4.146  1.00  0.00     0.056 C 
HETATM   10  C   UNL     1      42.805 -15.995   2.575  1.00  0.00    -0.030 C 
HETATM   11  C   UNL     1      44.325 -15.714   2.368  1.00  0.00     0.016 C 
HETATM   12  C   UNL     1      41.984 -14.902   1.748  1.00  0.00     0.012 C 
HETATM   13  C   UNL     1      42.548 -17.406   1.955  1.00  0.00     0.013 C 
HETATM   14  C   UNL     1      42.317 -13.468   2.231  1.00  0.00     0.055 C 
HETATM   15  C   UNL     1      40.426 -15.207   1.540  1.00  0.00     0.008 C 
HETATM   16  C   UNL     1      42.222 -13.408   3.709  1.00  0.00     0.012 C 
HETATM   17  C   UNL     1      42.246 -14.484   4.576  1.00  0.00     0.056 C 
HETATM   18  S   UNL     1      41.952 -11.959   4.557  1.00  0.00    -0.055 SA
HETATM   19  N   UNL     1      41.869 -14.171   5.874  1.00  0.00    -0.227 NA
HETATM   20  C   UNL     1      41.608 -12.889   5.948  1.00  0.00     0.174 C 
HETATM   21  C   UNL     1      40.024 -14.574   0.174  1.00  0.00     0.020 C 
HETATM   22  C   UNL     1      40.179 -16.743   1.427  1.00  0.00     0.128 C 
HETATM   23  C   UNL     1      41.415 -17.480   0.933  1.00  0.00     0.033 C 
BRANCH  20  24
HETATM   24  N   UNL     1      40.989 -12.158   6.916  1.00  0.00    -0.300 N 
HETATM   25  C   UNL     1      39.638 -11.910   6.906  1.00  0.00     0.281 C 
HETATM   26  O   UNL     1      38.781 -12.562   6.323  1.00  0.00    -0.265 OA
HETATM   27  H   UNL     1      41.577 -11.527   7.442  1.00  0.00     0.171 HD
BRANCH  25  28
HETATM   28  C   UNL     1      39.319 -10.704   7.657  1.00  0.00     0.142 A 
HETATM   29  O   UNL     1      39.011  -9.552   6.972  1.00  0.00    -0.317 OA
HETATM   30  C   UNL     1      38.694  -8.609   7.895  1.00  0.00     0.143 A 
HETATM   31  C   UNL     1      38.789  -9.127   9.165  1.00  0.00     0.027 A 
HETATM   32  C   UNL     1      39.197 -10.474   9.015  1.00  0.00     0.045 A 
ENDBRANCH  25  28
ENDBRANCH  20  24
BRANCH  15  33
HETATM   33  C   UNL     1      39.456 -14.636   2.610  1.00  0.00     0.176 C 
BRANCH  33  34
HETATM   34  O   UNL     1      38.774 -13.467   2.165  1.00  0.00    -0.400 OA
HETATM   35  H   UNL     1      37.896 -13.494   2.581  1.00  0.00     0.209 HD
ENDBRANCH  33  34
ENDBRANCH  15  33
BRANCH  22  36
HETATM   36  O   UNL     1      39.779 -17.284   2.684  1.00  0.00    -0.395 OA
HETATM   37  H   UNL     1      40.531 -17.758   3.081  1.00  0.00     0.210 HD
ENDBRANCH  22  36
ENDBRANCH   8   9
ENDBRANCH   5   8
ENDBRANCH   1   4
TORSDOF 8
ENDMDL
MODEL 7
REMARK VINA RESULT:      -7.3      3.286      6.893
REMARK  8 active torsions:
REMARK  status: ('A' for Active; 'I' for Inactive)
REMARK    1  A    between atoms: C_3  and  C_4 
REMARK    2  A    between atoms: C_4  and  C_5 
REMARK       I    between atoms: C_5  and  N_6 
REMARK    3  A    between atoms: N_6  and  C_7 
REMARK    4  A    between atoms: C_14  and  N_15 
REMARK       I    between atoms: N_15  and  C_16 
REMARK    5  A    between atoms: C_16  and  C_17 
REMARK    6  A    between atoms: C_26  and  C_27 
REMARK    7  A    between atoms: C_27  and  O_28 
REMARK    8  A    between atoms: C_30  and  O_31 
ROOT
HETATM    1  C   UNL     1      39.126 -11.808   8.513  1.00  0.00     0.216 C 
HETATM    2  C   UNL     1      38.914 -10.428   9.115  1.00  0.00    -0.098 C 
HETATM    3  C   UNL     1      38.734  -9.245   9.630  1.00  0.00     0.014 C 
ENDROOT
BRANCH   1   4
HETATM    4  N   UNL     1      40.222 -11.845   7.576  1.00  0.00    -0.351 N 
HETATM    5  C   UNL     1      40.078 -12.523   6.378  1.00  0.00     0.219 C 
HETATM    6  O   UNL     1      38.986 -12.913   5.977  1.00  0.00    -0.274 OA
HETATM    7  H   UNL     1      41.144 -11.592   7.904  1.00  0.00     0.163 HD
BRANCH   5   8
HETATM    8  C   UNL     1      41.362 -12.688   5.587  1.00  0.00     0.114 C 
BRANCH   8   9
HETATM    9  C   UNL     1      41.487 -14.029   4.801  1.00  0.00     0.056 C 
HETATM   10  C   UNL     1      42.793 -14.917   5.112  1.00  0.00    -0.030 C 
HETATM   11  C   UNL     1      44.036 -13.982   5.226  1.00  0.00     0.016 C 
HETATM   12  C   UNL     1      43.076 -15.976   3.950  1.00  0.00     0.012 C 
HETATM   13  C   UNL     1      42.703 -15.668   6.479  1.00  0.00     0.013 C 
HETATM   14  C   UNL     1      43.318 -15.267   2.594  1.00  0.00     0.055 C 
HETATM   15  C   UNL     1      42.089 -17.235   3.895  1.00  0.00     0.008 C 
HETATM   16  C   UNL     1      42.244 -14.273   2.354  1.00  0.00     0.012 C 
HETATM   17  C   UNL     1      41.397 -13.738   3.306  1.00  0.00     0.056 C 
HETATM   18  S   UNL     1      41.828 -13.722   0.800  1.00  0.00    -0.055 SA
HETATM   19  N   UNL     1      40.319 -13.045   2.774  1.00  0.00    -0.227 NA
HETATM   20  C   UNL     1      40.404 -13.055   1.467  1.00  0.00     0.174 C 
HETATM   21  C   UNL     1      42.916 -18.430   3.335  1.00  0.00     0.020 C 
HETATM   22  C   UNL     1      41.623 -17.630   5.330  1.00  0.00     0.128 C 
HETATM   23  C   UNL     1      42.624 -17.191   6.390  1.00  0.00     0.033 C 
BRANCH  20  24
HETATM   24  N   UNL     1      39.493 -12.728   0.510  1.00  0.00    -0.300 N 
HETATM   25  C   UNL     1      38.434 -13.541   0.185  1.00  0.00     0.281 C 
HETATM   26  O   UNL     1      37.941 -14.412   0.891  1.00  0.00    -0.265 OA
HETATM   27  H   UNL     1      39.794 -12.054  -0.180  1.00  0.00     0.171 HD
BRANCH  25  28
HETATM   28  C   UNL     1      37.969 -13.284  -1.170  1.00  0.00     0.142 A 
HETATM   29  O   UNL     1      37.484 -12.036  -1.484  1.00  0.00    -0.317 OA
HETATM   30  C   UNL     1      37.184 -12.043  -2.808  1.00  0.00     0.143 A 
HETATM   31  C   UNL     1      37.465 -13.271  -3.358  1.00  0.00     0.027 A 
HETATM   32  C   UNL     1      37.964 -14.073  -2.304  1.00  0.00     0.045 A 
ENDBRANCH  25  28
ENDBRANCH  20  24
BRANCH  15  33
HETATM   33  C   UNL     1      40.829 -17.093   2.997  1.00  0.00     0.176 C 
BRANCH  33  34
HETATM   34  O   UNL     1      41.033 -17.598   1.681  1.00  0.00    -0.400 OA
HETATM   35  H   UNL     1      40.182 -17.978   1.405  1.00  0.00     0.209 HD
ENDBRANCH  33  34
ENDBRANCH  15  33
BRANCH  22  36
HETATM   36  O   UNL     1      40.349 -17.061   5.623  1.00  0.00    -0.395 OA
HETATM   37  H   UNL     1      40.203 -17.081   6.585  1.00  0.00     0.210 HD
ENDBRANCH  22  36
ENDBRANCH   8   9
ENDBRANCH   5   8
ENDBRANCH   1   4
TORSDOF 8
ENDMDL
MODEL 8
REMARK VINA RESULT:      -7.3      3.506      6.586
REMARK  8 active torsions:
REMARK  status: ('A' for Active; 'I' for Inactive)
REMARK    1  A    between atoms: C_3  and  C_4 
REMARK    2  A    between atoms: C_4  and  C_5 
REMARK       I    between atoms: C_5  and  N_6 
REMARK    3  A    between atoms: N_6  and  C_7 
REMARK    4  A    between atoms: C_14  and  N_15 
REMARK       I    between atoms: N_15  and  C_16 
REMARK    5  A    between atoms: C_16  and  C_17 
REMARK    6  A    between atoms: C_26  and  C_27 
REMARK    7  A    between atoms: C_27  and  O_28 
REMARK    8  A    between atoms: C_30  and  O_31 
ROOT
HETATM    1  C   UNL     1      34.366 -10.198   1.120  1.00  0.00     0.216 C 
HETATM    2  C   UNL     1      33.095 -10.365   1.938  1.00  0.00    -0.098 C 
HETATM    3  C   UNL     1      32.006 -10.509   2.639  1.00  0.00     0.014 C 
ENDROOT
BRANCH   1   4
HETATM    4  N   UNL     1      35.060 -11.445   0.909  1.00  0.00    -0.351 N 
HETATM    5  C   UNL     1      36.439 -11.450   0.790  1.00  0.00     0.219 C 
HETATM    6  O   UNL     1      37.122 -10.472   1.072  1.00  0.00    -0.274 OA
HETATM    7  H   UNL     1      34.525 -12.248   0.609  1.00  0.00     0.163 HD
BRANCH   5   8
HETATM    8  C   UNL     1      37.029 -12.775   0.341  1.00  0.00     0.114 C 
BRANCH   8   9
HETATM    9  C   UNL     1      38.560 -12.750   0.047  1.00  0.00     0.056 C 
HETATM   10  C   UNL     1      38.986 -12.796  -1.505  1.00  0.00    -0.030 C 
HETATM   11  C   UNL     1      38.081 -13.818  -2.258  1.00  0.00     0.016 C 
HETATM   12  C   UNL     1      40.506 -13.254  -1.685  1.00  0.00     0.012 C 
HETATM   13  C   UNL     1      38.774 -11.428  -2.231  1.00  0.00     0.013 C 
HETATM   14  C   UNL     1      40.734 -14.673  -1.107  1.00  0.00     0.055 C 
HETATM   15  C   UNL     1      41.615 -12.170  -1.290  1.00  0.00     0.008 C 
HETATM   16  C   UNL     1      40.164 -14.751   0.259  1.00  0.00     0.012 C 
HETATM   17  C   UNL     1      39.229 -13.892   0.805  1.00  0.00     0.056 C 
HETATM   18  S   UNL     1      40.684 -15.887   1.412  1.00  0.00    -0.055 SA
HETATM   19  N   UNL     1      39.073 -14.030   2.178  1.00  0.00    -0.227 NA
HETATM   20  C   UNL     1      39.857 -14.988   2.606  1.00  0.00     0.174 C 
HETATM   21  C   UNL     1      42.844 -12.428  -2.213  1.00  0.00     0.020 C 
HETATM   22  C   UNL     1      41.106 -10.728  -1.594  1.00  0.00     0.128 C 
HETATM   23  C   UNL     1      40.048 -10.721  -2.688  1.00  0.00     0.033 C 
BRANCH  20  24
HETATM   24  N   UNL     1      40.235 -15.336   3.866  1.00  0.00    -0.300 N 
HETATM   25  C   UNL     1      41.304 -14.757   4.506  1.00  0.00     0.281 C 
HETATM   26  O   UNL     1      41.802 -13.666   4.253  1.00  0.00    -0.265 OA
HETATM   27  H   UNL     1      39.938 -16.247   4.185  1.00  0.00     0.171 HD
BRANCH  25  28
HETATM   28  C   UNL     1      41.843 -15.637   5.534  1.00  0.00     0.142 A 
HETATM   29  O   UNL     1      43.144 -15.467   5.944  1.00  0.00    -0.317 OA
HETATM   30  C   UNL     1      43.371 -16.359   6.941  1.00  0.00     0.143 A 
HETATM   31  C   UNL     1      42.241 -17.104   7.186  1.00  0.00     0.027 A 
HETATM   32  C   UNL     1      41.259 -16.645   6.277  1.00  0.00     0.045 A 
ENDBRANCH  25  28
ENDBRANCH  20  24
BRANCH  15  33
HETATM   33  C   UNL     1      42.132 -12.205   0.175  1.00  0.00     0.176 C 
BRANCH  33  34
HETATM   34  O   UNL     1      42.934 -11.074   0.502  1.00  0.00    -0.400 OA
HETATM   35  H   UNL     1      42.378 -10.503   1.058  1.00  0.00     0.209 HD
ENDBRANCH  33  34
ENDBRANCH  15  33
BRANCH  22  36
HETATM   36  O   UNL     1      40.570 -10.123  -0.418  1.00  0.00    -0.395 OA
HETATM   37  H   UNL     1      39.728 -10.556  -0.192  1.00  0.00     0.210 HD
ENDBRANCH  22  36
ENDBRANCH   8   9
ENDBRANCH   5   8
ENDBRANCH   1   4
TORSDOF 8
ENDMDL
MODEL 9
REMARK VINA RESULT:      -7.1      1.790      2.442
REMARK  8 active torsions:
REMARK  status: ('A' for Active; 'I' for Inactive)
REMARK    1  A    between atoms: C_3  and  C_4 
REMARK    2  A    between atoms: C_4  and  C_5 
REMARK       I    between atoms: C_5  and  N_6 
REMARK    3  A    between atoms: N_6  and  C_7 
REMARK    4  A    between atoms: C_14  and  N_15 
REMARK       I    between atoms: N_15  and  C_16 
REMARK    5  A    between atoms: C_16  and  C_17 
REMARK    6  A    between atoms: C_26  and  C_27 
REMARK    7  A    between atoms: C_27  and  O_28 
REMARK    8  A    between atoms: C_30  and  O_31 
ROOT
HETATM    1  C   UNL     1      42.306 -13.398   5.719  1.00  0.00     0.216 C 
HETATM    2  C   UNL     1      43.620 -13.952   6.248  1.00  0.00    -0.098 C 
HETATM    3  C   UNL     1      44.746 -14.427   6.700  1.00  0.00     0.014 C 
ENDROOT
BRANCH   1   4
HETATM    4  N   UNL     1      42.459 -12.704   4.464  1.00  0.00    -0.351 N 
HETATM    5  C   UNL     1      41.340 -12.384   3.717  1.00  0.00     0.219 C 
HETATM    6  O   UNL     1      40.204 -12.468   4.174  1.00  0.00    -0.274 OA
HETATM    7  H   UNL     1      43.375 -12.682   4.035  1.00  0.00     0.163 HD
BRANCH   5   8
HETATM    8  C   UNL     1      41.638 -11.871   2.320  1.00  0.00     0.114 C 
BRANCH   8   9
HETATM    9  C   UNL     1      41.191 -12.812   1.160  1.00  0.00     0.056 C 
HETATM   10  C   UNL     1      39.817 -12.423   0.417  1.00  0.00    -0.030 C 
HETATM   11  C   UNL     1      38.768 -11.970   1.479  1.00  0.00     0.016 C 
HETATM   12  C   UNL     1      39.207 -13.664  -0.382  1.00  0.00     0.012 C 
HETATM   13  C   UNL     1      39.979 -11.214  -0.559  1.00  0.00     0.013 C 
HETATM   14  C   UNL     1      38.892 -14.844   0.572  1.00  0.00     0.055 C 
HETATM   15  C   UNL     1      39.963 -14.065  -1.735  1.00  0.00     0.008 C 
HETATM   16  C   UNL     1      40.066 -15.109   1.438  1.00  0.00     0.012 C 
HETATM   17  C   UNL     1      41.113 -14.243   1.685  1.00  0.00     0.056 C 
HETATM   18  S   UNL     1      40.341 -16.613   2.183  1.00  0.00    -0.055 SA
HETATM   19  N   UNL     1      42.202 -14.838   2.306  1.00  0.00    -0.227 NA
HETATM   20  C   UNL     1      41.933 -16.100   2.529  1.00  0.00     0.174 C 
HETATM   21  C   UNL     1      38.884 -14.649  -2.695  1.00  0.00     0.020 C 
HETATM   22  C   UNL     1      40.558 -12.799  -2.426  1.00  0.00     0.128 C 
HETATM   23  C   UNL     1      39.800 -11.537  -2.042  1.00  0.00     0.033 C 
BRANCH  20  24
HETATM   24  N   UNL     1      42.740 -17.136   2.887  1.00  0.00    -0.300 N 
HETATM   25  C   UNL     1      43.608 -17.738   2.008  1.00  0.00     0.281 C 
HETATM   26  O   UNL     1      44.060 -17.249   0.980  1.00  0.00    -0.265 OA
HETATM   27  H   UNL     1      42.450 -17.669   3.695  1.00  0.00     0.171 HD
BRANCH  25  28
HETATM   28  C   UNL     1      43.913 -19.101   2.419  1.00  0.00     0.142 A 
HETATM   29  O   UNL     1      44.472 -19.317   3.657  1.00  0.00    -0.317 OA
HETATM   30  C   UNL     1      44.592 -20.660   3.815  1.00  0.00     0.143 A 
HETATM   31  C   UNL     1      44.121 -21.319   2.704  1.00  0.00     0.027 A 
HETATM   32  C   UNL     1      43.690 -20.317   1.801  1.00  0.00     0.045 A 
ENDBRANCH  25  28
ENDBRANCH  20  24
BRANCH  15  33
HETATM   33  C   UNL     1      41.089 -15.128  -1.615  1.00  0.00     0.176 C 
BRANCH  33  34
HETATM   34  O   UNL     1      41.642 -15.488  -2.877  1.00  0.00    -0.400 OA
HETATM   35  H   UNL     1      42.220 -14.750  -3.136  1.00  0.00     0.209 HD
ENDBRANCH  33  34
ENDBRANCH  15  33
BRANCH  22  36
HETATM   36  O   UNL     1      41.935 -12.642  -2.092  1.00  0.00    -0.395 OA
HETATM   37  H   UNL     1      42.210 -13.377  -1.516  1.00  0.00     0.210 HD
ENDBRANCH  22  36
ENDBRANCH   8   9
ENDBRANCH   5   8
ENDBRANCH   1   4
TORSDOF 8
ENDMDL
MODEL 10
REMARK VINA RESULT:      -7.1      1.944      2.678
REMARK  8 active torsions:
REMARK  status: ('A' for Active; 'I' for Inactive)
REMARK    1  A    between atoms: C_3  and  C_4 
REMARK    2  A    between atoms: C_4  and  C_5 
REMARK       I    between atoms: C_5  and  N_6 
REMARK    3  A    between atoms: N_6  and  C_7 
REMARK    4  A    between atoms: C_14  and  N_15 
REMARK       I    between atoms: N_15  and  C_16 
REMARK    5  A    between atoms: C_16  and  C_17 
REMARK    6  A    between atoms: C_26  and  C_27 
REMARK    7  A    between atoms: C_27  and  O_28 
REMARK    8  A    between atoms: C_30  and  O_31 
ROOT
HETATM    1  C   UNL     1      42.089 -11.018   7.439  1.00  0.00     0.216 C 
HETATM    2  C   UNL     1      41.326 -10.641   8.699  1.00  0.00    -0.098 C 
HETATM    3  C   UNL     1      40.671 -10.319   9.779  1.00  0.00     0.014 C 
ENDROOT
BRANCH   1   4
HETATM    4  N   UNL     1      41.359 -11.936   6.599  1.00  0.00    -0.351 N 
HETATM    5  C   UNL     1      41.139 -11.623   5.270  1.00  0.00     0.219 C 
HETATM    6  O   UNL     1      41.723 -10.700   4.712  1.00  0.00    -0.274 OA
HETATM    7  H   UNL     1      40.815 -12.664   7.042  1.00  0.00     0.163 HD
BRANCH   5   8
HETATM    8  C   UNL     1      40.168 -12.545   4.555  1.00  0.00     0.114 C 
BRANCH   8   9
HETATM    9  C   UNL     1      40.498 -12.819   3.056  1.00  0.00     0.056 C 
HETATM   10  C   UNL     1      39.518 -12.137   1.976  1.00  0.00    -0.030 C 
HETATM   11  C   UNL     1      38.043 -12.263   2.468  1.00  0.00     0.016 C 
HETATM   12  C   UNL     1      39.626 -12.849   0.551  1.00  0.00     0.012 C 
HETATM   13  C   UNL     1      39.777 -10.606   1.806  1.00  0.00     0.013 C 
HETATM   14  C   UNL     1      39.235 -14.345   0.641  1.00  0.00     0.055 C 
HETATM   15  C   UNL     1      40.955 -12.540  -0.287  1.00  0.00     0.008 C 
HETATM   16  C   UNL     1      39.959 -14.980   1.768  1.00  0.00     0.012 C 
HETATM   17  C   UNL     1      40.557 -14.326   2.828  1.00  0.00     0.056 C 
HETATM   18  S   UNL     1      40.250 -16.653   1.851  1.00  0.00    -0.055 SA
HETATM   19  N   UNL     1      41.391 -15.134   3.590  1.00  0.00    -0.227 NA
HETATM   20  C   UNL     1      41.369 -16.350   3.106  1.00  0.00     0.174 C 
HETATM   21  C   UNL     1      40.562 -12.604  -1.793  1.00  0.00     0.020 C 
HETATM   22  C   UNL     1      41.458 -11.091  -0.003  1.00  0.00     0.128 C 
HETATM   23  C   UNL     1      40.326 -10.178   0.446  1.00  0.00     0.033 C 
BRANCH  20  24
HETATM   24  N   UNL     1      42.175 -17.421   3.346  1.00  0.00    -0.300 N 
HETATM   25  C   UNL     1      43.372 -17.608   2.698  1.00  0.00     0.281 C 
HETATM   26  O   UNL     1      44.048 -16.744   2.152  1.00  0.00    -0.265 OA
HETATM   27  H   UNL     1      41.728 -18.234   3.746  1.00  0.00     0.171 HD
BRANCH  25  28
HETATM   28  C   UNL     1      43.748 -19.014   2.682  1.00  0.00     0.142 A 
HETATM   29  O   UNL     1      44.392 -19.546   3.774  1.00  0.00    -0.317 OA
HETATM   30  C   UNL     1      44.568 -20.870   3.532  1.00  0.00     0.143 A 
HETATM   31  C   UNL     1      44.049 -21.207   2.305  1.00  0.00     0.027 A 
HETATM   32  C   UNL     1      43.527 -20.013   1.753  1.00  0.00     0.045 A 
ENDBRANCH  25  28
ENDBRANCH  20  24
BRANCH  15  33
HETATM   33  C   UNL     1      42.146 -13.516  -0.086  1.00  0.00     0.176 C 
BRANCH  33  34
HETATM   34  O   UNL     1      42.143 -14.588  -1.024  1.00  0.00    -0.400 OA
HETATM   35  H   UNL     1      41.991 -15.397  -0.505  1.00  0.00     0.209 HD
ENDBRANCH  33  34
ENDBRANCH  15  33
BRANCH  22  36
HETATM   36  O   UNL     1      42.480 -11.097   0.991  1.00  0.00    -0.395 OA
HETATM   37  H   UNL     1      42.076 -10.963   1.866  1.00  0.00     0.210 HD
ENDBRANCH  22  36
ENDBRANCH   8   9
ENDBRANCH   5   8
ENDBRANCH   1   4
TORSDOF 8
ENDMDL
