MODEL 1
REMARK VINA RESULT:      -9.0      0.000      0.000
REMARK  13 active torsions:
REMARK  status: ('A' for Active; 'I' for Inactive)
REMARK    1  A    between atoms: C_2  and  O_3 
REMARK    2  A    between atoms: O_3  and  C_4 
REMARK    3  A    between atoms: C_5  and  O_6 
REMARK    4  A    between atoms: C_9  and  C_10 
REMARK    5  A    between atoms: N_11  and  C_12 
REMARK    6  A    between atoms: C_12  and  C_13 
REMARK    7  A    between atoms: C_13  and  N_14 
REMARK    8  A    between atoms: C_23  and  O_24 
REMARK    9  A    between atoms: C_25  and  C_26 
REMARK   10  A    between atoms: C_26  and  C_27 
REMARK   11  A    between atoms: C_31  and  O_32 
REMARK   12  A    between atoms: O_32  and  C_33 
REMARK   13  A    between atoms: C_33  and  C_34 
ROOT
HETATM    1  C   UNL     1      40.895 -12.108   4.343  1.00  0.00     0.161 A 
HETATM    2  N   UNL     1      39.903 -11.399   5.140  1.00  0.00    -0.332 N 
HETATM    3  C   UNL     1      38.755 -11.177   4.394  1.00  0.00     0.278 A 
HETATM    4  O   UNL     1      37.777 -10.540   4.739  1.00  0.00    -0.265 OA
HETATM    5  C   UNL     1      38.949 -11.782   3.061  1.00  0.00     0.146 A 
HETATM    6  C   UNL     1      40.195 -12.270   3.030  1.00  0.00     0.059 A 
ENDROOT
BRANCH   6   7
HETATM    7  C   UNL     1      40.813 -12.905   1.840  1.00  0.00     0.194 C 
HETATM    8  O   UNL     1      40.885 -12.340   0.758  1.00  0.00    -0.287 OA
BRANCH   7   9
HETATM    9  C   UNL     1      41.291 -14.306   1.979  1.00  0.00     0.021 A 
HETATM   10  C   UNL     1      40.381 -15.377   1.995  1.00  0.00    -0.045 A 
HETATM   11  C   UNL     1      38.911 -15.190   1.739  1.00  0.00     0.049 C 
HETATM   12  C   UNL     1      40.876 -16.670   2.228  1.00  0.00     0.044 A 
HETATM   13  C   UNL     1      42.236 -16.895   2.457  1.00  0.00     0.069 A 
HETATM   14  C   UNL     1      43.138 -15.840   2.363  1.00  0.00     0.038 A 
HETATM   15  C   UNL     1      42.668 -14.547   2.113  1.00  0.00     0.019 A 
BRANCH  13  16
HETATM   16  O   UNL     1      42.572 -18.191   2.721  1.00  0.00    -0.347 OA
BRANCH  16  17
HETATM   17  C   UNL     1      43.971 -18.491   2.718  1.00  0.00     0.214 C 
BRANCH  17  18
HETATM   18  C   UNL     1      44.207 -19.936   3.099  1.00  0.00    -0.034 A 
HETATM   19  C   UNL     1      44.066 -20.938   2.126  1.00  0.00     0.009 A 
HETATM   20  C   UNL     1      44.318 -22.275   2.440  1.00  0.00     0.001 A 
HETATM   21  C   UNL     1      44.721 -22.629   3.725  1.00  0.00     0.000 A 
HETATM   22  C   UNL     1      44.876 -21.644   4.698  1.00  0.00     0.001 A 
HETATM   23  C   UNL     1      44.626 -20.307   4.386  1.00  0.00     0.009 A 
ENDBRANCH  17  18
ENDBRANCH  16  17
ENDBRANCH  13  16
ENDBRANCH   7   9
ENDBRANCH   6   7
BRANCH   1  24
HETATM   24  C   UNL     1      41.266 -13.403   5.043  1.00  0.00    -0.028 A 
HETATM   25  C   UNL     1      40.303 -14.407   5.271  1.00  0.00     0.012 A 
HETATM   26  C   UNL     1      40.634 -15.560   5.977  1.00  0.00     0.040 A 
HETATM   27  C   UNL     1      41.929 -15.718   6.448  1.00  0.00     0.099 A 
HETATM   28  C   UNL     1      42.918 -14.761   6.207  1.00  0.00     0.102 A 
HETATM   29  C   UNL     1      42.581 -13.601   5.508  1.00  0.00     0.049 A 
BRANCH  27  30
HETATM   30  O   UNL     1      42.214 -16.846   7.163  1.00  0.00    -0.358 OA
HETATM   31  H   UNL     1      41.354 -17.205   7.459  1.00  0.00     0.218 HD
ENDBRANCH  27  30
BRANCH  28  32
HETATM   32  O   UNL     1      44.145 -15.053   6.738  1.00  0.00    -0.349 OA
BRANCH  32  33
HETATM   33  C   UNL     1      45.137 -14.026   6.687  1.00  0.00     0.171 C 
HETATM   34  C   UNL     1      45.096 -13.277   8.006  1.00  0.00     0.034 C 
ENDBRANCH  32  33
ENDBRANCH  28  32
ENDBRANCH   1  24
BRANCH   5  35
HETATM   35  O   UNL     1      38.020 -11.720   2.070  1.00  0.00    -0.355 OA
HETATM   36  H   UNL     1      37.356 -11.051   2.326  1.00  0.00     0.218 HD
ENDBRANCH   5  35
BRANCH   2  37
HETATM   37  C   UNL     1      40.296 -10.439   6.165  1.00  0.00     0.155 C 
BRANCH  37  38
HETATM   38  C   UNL     1      39.677 -10.711   7.546  1.00  0.00     0.255 C 
BRANCH  38  39
HETATM   39  N   UNL     1      40.736 -11.050   8.584  1.00  0.00    -0.066 N 
HETATM   40  H   UNL     1      40.901 -12.066   8.525  1.00  0.00     0.280 HD
HETATM   41  C   UNL     1      42.067 -10.340   8.351  1.00  0.00     0.261 C 
HETATM   42  C   UNL     1      43.046 -10.650   9.488  1.00  0.00     0.195 C 
HETATM   43  O   UNL     1      42.487 -10.275  10.749  1.00  0.00    -0.388 OA
HETATM   44  C   UNL     1      41.302 -11.026  11.035  1.00  0.00     0.195 C 
HETATM   45  C   UNL     1      40.217 -10.747   9.991  1.00  0.00     0.261 C 
ENDBRANCH  38  39
ENDBRANCH  37  38
ENDBRANCH   2  37
TORSDOF 13
ENDMDL
MODEL 2
REMARK VINA RESULT:      -8.8      4.824      8.916
REMARK  13 active torsions:
REMARK  status: ('A' for Active; 'I' for Inactive)
REMARK    1  A    between atoms: C_2  and  O_3 
REMARK    2  A    between atoms: O_3  and  C_4 
REMARK    3  A    between atoms: C_5  and  O_6 
REMARK    4  A    between atoms: C_9  and  C_10 
REMARK    5  A    between atoms: N_11  and  C_12 
REMARK    6  A    between atoms: C_12  and  C_13 
REMARK    7  A    between atoms: C_13  and  N_14 
REMARK    8  A    between atoms: C_23  and  O_24 
REMARK    9  A    between atoms: C_25  and  C_26 
REMARK   10  A    between atoms: C_26  and  C_27 
REMARK   11  A    between atoms: C_31  and  O_32 
REMARK   12  A    between atoms: O_32  and  C_33 
REMARK   13  A    between atoms: C_33  and  C_34 
ROOT
HETATM    1  C   UNL     1      39.974 -12.702  -1.151  1.00  0.00     0.161 A 
HETATM    2  N   UNL     1      41.124 -11.975  -1.672  1.00  0.00    -0.332 N 
HETATM    3  C   UNL     1      42.150 -11.964  -0.738  1.00  0.00     0.278 A 
HETATM    4  O   UNL     1      43.209 -11.371  -0.831  1.00  0.00    -0.265 OA
HETATM    5  C   UNL     1      41.707 -12.734   0.441  1.00  0.00     0.146 A 
HETATM    6  C   UNL     1      40.443 -13.111   0.210  1.00  0.00     0.059 A 
ENDROOT
BRANCH   6   7
HETATM    7  C   UNL     1      39.603 -13.853   1.181  1.00  0.00     0.194 C 
HETATM    8  O   UNL     1      38.453 -13.526   1.438  1.00  0.00    -0.287 OA
BRANCH   7   9
HETATM    9  C   UNL     1      40.230 -14.990   1.905  1.00  0.00     0.021 A 
HETATM   10  C   UNL     1      40.480 -14.912   3.286  1.00  0.00    -0.045 A 
HETATM   11  C   UNL     1      40.012 -13.757   4.126  1.00  0.00     0.049 C 
HETATM   12  C   UNL     1      41.165 -15.972   3.901  1.00  0.00     0.044 A 
HETATM   13  C   UNL     1      41.607 -17.074   3.165  1.00  0.00     0.069 A 
HETATM   14  C   UNL     1      41.288 -17.178   1.814  1.00  0.00     0.038 A 
HETATM   15  C   UNL     1      40.591 -16.142   1.186  1.00  0.00     0.019 A 
BRANCH  13  16
HETATM   16  O   UNL     1      42.304 -18.006   3.878  1.00  0.00    -0.347 OA
BRANCH  16  17
HETATM   17  C   UNL     1      43.674 -18.183   3.511  1.00  0.00     0.214 C 
BRANCH  17  18
HETATM   18  C   UNL     1      43.966 -19.640   3.225  1.00  0.00    -0.034 A 
HETATM   19  C   UNL     1      44.584 -20.427   4.209  1.00  0.00     0.009 A 
HETATM   20  C   UNL     1      44.827 -21.784   3.987  1.00  0.00     0.001 A 
HETATM   21  C   UNL     1      44.451 -22.374   2.783  1.00  0.00     0.000 A 
HETATM   22  C   UNL     1      43.828 -21.609   1.801  1.00  0.00     0.001 A 
HETATM   23  C   UNL     1      43.581 -20.253   2.022  1.00  0.00     0.009 A 
ENDBRANCH  17  18
ENDBRANCH  16  17
ENDBRANCH  13  16
ENDBRANCH   7   9
ENDBRANCH   6   7
BRANCH   1  24
HETATM   24  C   UNL     1      39.639 -13.846  -2.091  1.00  0.00    -0.028 A 
HETATM   25  C   UNL     1      40.597 -14.828  -2.411  1.00  0.00     0.012 A 
HETATM   26  C   UNL     1      40.305 -15.833  -3.329  1.00  0.00     0.040 A 
HETATM   27  C   UNL     1      39.051 -15.864  -3.922  1.00  0.00     0.099 A 
HETATM   28  C   UNL     1      38.064 -14.929  -3.601  1.00  0.00     0.102 A 
HETATM   29  C   UNL     1      38.364 -13.916  -2.688  1.00  0.00     0.049 A 
BRANCH  27  30
HETATM   30  O   UNL     1      38.805 -16.843  -4.842  1.00  0.00    -0.358 OA
HETATM   31  H   UNL     1      39.608 -16.901  -5.398  1.00  0.00     0.218 HD
ENDBRANCH  27  30
BRANCH  28  32
HETATM   32  O   UNL     1      36.881 -15.083  -4.271  1.00  0.00    -0.349 OA
BRANCH  32  33
HETATM   33  C   UNL     1      36.108 -13.906  -4.508  1.00  0.00     0.171 C 
HETATM   34  C   UNL     1      35.652 -13.936  -5.955  1.00  0.00     0.034 C 
ENDBRANCH  32  33
ENDBRANCH  28  32
ENDBRANCH   1  24
BRANCH   5  35
HETATM   35  O   UNL     1      42.467 -12.897   1.556  1.00  0.00    -0.355 OA
HETATM   36  H   UNL     1      43.169 -13.543   1.347  1.00  0.00     0.218 HD
ENDBRANCH   5  35
BRANCH   2  37
HETATM   37  C   UNL     1      40.963 -10.847  -2.583  1.00  0.00     0.155 C 
BRANCH  37  38
HETATM   38  C   UNL     1      41.294 -11.175  -4.048  1.00  0.00     0.255 C 
BRANCH  38  39
HETATM   39  N   UNL     1      40.070 -11.060  -4.944  1.00  0.00    -0.066 N 
HETATM   40  H   UNL     1      39.923 -11.986  -5.373  1.00  0.00     0.280 HD
HETATM   41  C   UNL     1      38.797 -10.680  -4.191  1.00  0.00     0.261 C 
HETATM   42  C   UNL     1      37.635 -10.484  -5.170  1.00  0.00     0.195 C 
HETATM   43  O   UNL     1      37.961  -9.492  -6.146  1.00  0.00    -0.388 OA
HETATM   44  C   UNL     1      39.081  -9.896  -6.942  1.00  0.00     0.195 C 
HETATM   45  C   UNL     1      40.331 -10.062  -6.074  1.00  0.00     0.261 C 
ENDBRANCH  38  39
ENDBRANCH  37  38
ENDBRANCH   2  37
TORSDOF 13
ENDMDL
MODEL 3
REMARK VINA RESULT:      -8.7      4.212      8.180
REMARK  13 active torsions:
REMARK  status: ('A' for Active; 'I' for Inactive)
REMARK    1  A    between atoms: C_2  and  O_3 
REMARK    2  A    between atoms: O_3  and  C_4 
REMARK    3  A    between atoms: C_5  and  O_6 
REMARK    4  A    between atoms: C_9  and  C_10 
REMARK    5  A    between atoms: N_11  and  C_12 
REMARK    6  A    between atoms: C_12  and  C_13 
REMARK    7  A    between atoms: C_13  and  N_14 
REMARK    8  A    between atoms: C_23  and  O_24 
REMARK    9  A    between atoms: C_25  and  C_26 
REMARK   10  A    between atoms: C_26  and  C_27 
REMARK   11  A    between atoms: C_31  and  O_32 
REMARK   12  A    between atoms: O_32  and  C_33 
REMARK   13  A    between atoms: C_33  and  C_34 
ROOT
HETATM    1  C   UNL     1      39.819 -12.993  -0.960  1.00  0.00     0.161 A 
HETATM    2  N   UNL     1      40.920 -12.135  -1.378  1.00  0.00    -0.332 N 
HETATM    3  C   UNL     1      41.934 -12.158  -0.431  1.00  0.00     0.278 A 
HETATM    4  O   UNL     1      42.950 -11.487  -0.440  1.00  0.00    -0.265 OA
HETATM    5  C   UNL     1      41.536 -13.084   0.647  1.00  0.00     0.146 A 
HETATM    6  C   UNL     1      40.304 -13.519   0.355  1.00  0.00     0.059 A 
ENDROOT
BRANCH   6   7
HETATM    7  C   UNL     1      39.509 -14.422   1.223  1.00  0.00     0.194 C 
HETATM    8  O   UNL     1      38.300 -14.301   1.363  1.00  0.00    -0.287 OA
BRANCH   7   9
HETATM    9  C   UNL     1      40.245 -15.457   1.994  1.00  0.00     0.021 A 
HETATM   10  C   UNL     1      40.443 -15.317   3.379  1.00  0.00    -0.045 A 
HETATM   11  C   UNL     1      39.816 -14.206   4.174  1.00  0.00     0.049 C 
HETATM   12  C   UNL     1      41.230 -16.272   4.041  1.00  0.00     0.044 A 
HETATM   13  C   UNL     1      41.822 -17.331   3.347  1.00  0.00     0.069 A 
HETATM   14  C   UNL     1      41.557 -17.505   1.992  1.00  0.00     0.038 A 
HETATM   15  C   UNL     1      40.761 -16.575   1.318  1.00  0.00     0.019 A 
BRANCH  13  16
HETATM   16  O   UNL     1      42.603 -18.156   4.104  1.00  0.00    -0.347 OA
BRANCH  16  17
HETATM   17  C   UNL     1      43.931 -18.379   3.625  1.00  0.00     0.214 C 
BRANCH  17  18
HETATM   18  C   UNL     1      44.209 -19.860   3.492  1.00  0.00    -0.034 A 
HETATM   19  C   UNL     1      44.659 -20.581   4.609  1.00  0.00     0.009 A 
HETATM   20  C   UNL     1      44.883 -21.957   4.526  1.00  0.00     0.001 A 
HETATM   21  C   UNL     1      44.656 -22.632   3.329  1.00  0.00     0.000 A 
HETATM   22  C   UNL     1      44.199 -21.932   2.215  1.00  0.00     0.001 A 
HETATM   23  C   UNL     1      43.972 -20.557   2.297  1.00  0.00     0.009 A 
ENDBRANCH  17  18
ENDBRANCH  16  17
ENDBRANCH  13  16
ENDBRANCH   7   9
ENDBRANCH   6   7
BRANCH   1  24
HETATM   24  C   UNL     1      39.574 -14.046  -2.027  1.00  0.00    -0.028 A 
HETATM   25  C   UNL     1      40.556 -15.007  -2.338  1.00  0.00     0.012 A 
HETATM   26  C   UNL     1      40.351 -15.923  -3.367  1.00  0.00     0.040 A 
HETATM   27  C   UNL     1      39.162 -15.886  -4.079  1.00  0.00     0.099 A 
HETATM   28  C   UNL     1      38.151 -14.972  -3.773  1.00  0.00     0.102 A 
HETATM   29  C   UNL     1      38.363 -14.047  -2.748  1.00  0.00     0.049 A 
BRANCH  27  30
HETATM   30  O   UNL     1      39.004 -16.778  -5.103  1.00  0.00    -0.358 OA
HETATM   31  H   UNL     1      39.324 -16.325  -5.908  1.00  0.00     0.218 HD
ENDBRANCH  27  30
BRANCH  28  32
HETATM   32  O   UNL     1      37.039 -15.052  -4.566  1.00  0.00    -0.349 OA
BRANCH  32  33
HETATM   33  C   UNL     1      36.060 -14.022  -4.420  1.00  0.00     0.171 C 
HETATM   34  C   UNL     1      35.511 -13.708  -5.800  1.00  0.00     0.034 C 
ENDBRANCH  32  33
ENDBRANCH  28  32
ENDBRANCH   1  24
BRANCH   5  35
HETATM   35  O   UNL     1      42.295 -13.318   1.751  1.00  0.00    -0.355 OA
HETATM   36  H   UNL     1      41.690 -13.435   2.508  1.00  0.00     0.218 HD
ENDBRANCH   5  35
BRANCH   2  37
HETATM   37  C   UNL     1      40.688 -10.926  -2.160  1.00  0.00     0.155 C 
BRANCH  37  38
HETATM   38  C   UNL     1      39.864  -9.856  -1.426  1.00  0.00     0.255 C 
BRANCH  38  39
HETATM   39  N   UNL     1      38.455  -9.742  -1.988  1.00  0.00    -0.066 N 
HETATM   40  H   UNL     1      38.263  -8.737  -2.118  1.00  0.00     0.280 HD
HETATM   41  C   UNL     1      38.279 -10.435  -3.337  1.00  0.00     0.261 C 
HETATM   42  C   UNL     1      36.817 -10.365  -3.788  1.00  0.00     0.195 C 
HETATM   43  O   UNL     1      35.958 -10.948  -2.805  1.00  0.00    -0.388 OA
HETATM   44  C   UNL     1      36.023 -10.228  -1.569  1.00  0.00     0.195 C 
HETATM   45  C   UNL     1      37.437 -10.282  -0.982  1.00  0.00     0.261 C 
ENDBRANCH  38  39
ENDBRANCH  37  38
ENDBRANCH   2  37
TORSDOF 13
ENDMDL
MODEL 4
REMARK VINA RESULT:      -8.6      4.082      7.617
REMARK  13 active torsions:
REMARK  status: ('A' for Active; 'I' for Inactive)
REMARK    1  A    between atoms: C_2  and  O_3 
REMARK    2  A    between atoms: O_3  and  C_4 
REMARK    3  A    between atoms: C_5  and  O_6 
REMARK    4  A    between atoms: C_9  and  C_10 
REMARK    5  A    between atoms: N_11  and  C_12 
REMARK    6  A    between atoms: C_12  and  C_13 
REMARK    7  A    between atoms: C_13  and  N_14 
REMARK    8  A    between atoms: C_23  and  O_24 
REMARK    9  A    between atoms: C_25  and  C_26 
REMARK   10  A    between atoms: C_26  and  C_27 
REMARK   11  A    between atoms: C_31  and  O_32 
REMARK   12  A    between atoms: O_32  and  C_33 
REMARK   13  A    between atoms: C_33  and  C_34 
ROOT
HETATM    1  C   UNL     1      39.991 -12.726  -1.051  1.00  0.00     0.161 A 
HETATM    2  N   UNL     1      41.151 -11.993  -1.540  1.00  0.00    -0.332 N 
HETATM    3  C   UNL     1      42.159 -11.997  -0.588  1.00  0.00     0.278 A 
HETATM    4  O   UNL     1      43.221 -11.404  -0.653  1.00  0.00    -0.265 OA
HETATM    5  C   UNL     1      41.694 -12.784   0.571  1.00  0.00     0.146 A 
HETATM    6  C   UNL     1      40.435 -13.156   0.312  1.00  0.00     0.059 A 
ENDROOT
BRANCH   6   7
HETATM    7  C   UNL     1      39.576 -13.911   1.257  1.00  0.00     0.194 C 
HETATM    8  O   UNL     1      38.408 -13.613   1.465  1.00  0.00    -0.287 OA
BRANCH   7   9
HETATM    9  C   UNL     1      40.204 -15.024   2.017  1.00  0.00     0.021 A 
HETATM   10  C   UNL     1      40.449 -14.903   3.396  1.00  0.00    -0.045 A 
HETATM   11  C   UNL     1      39.975 -13.724   4.199  1.00  0.00     0.049 C 
HETATM   12  C   UNL     1      41.134 -15.942   4.045  1.00  0.00     0.044 A 
HETATM   13  C   UNL     1      41.581 -17.065   3.344  1.00  0.00     0.069 A 
HETATM   14  C   UNL     1      41.267 -17.211   1.996  1.00  0.00     0.038 A 
HETATM   15  C   UNL     1      40.569 -16.196   1.335  1.00  0.00     0.019 A 
BRANCH  13  16
HETATM   16  O   UNL     1      42.278 -17.974   4.087  1.00  0.00    -0.347 OA
BRANCH  16  17
HETATM   17  C   UNL     1      43.652 -18.155   3.734  1.00  0.00     0.214 C 
BRANCH  17  18
HETATM   18  C   UNL     1      43.920 -19.594   3.354  1.00  0.00    -0.034 A 
HETATM   19  C   UNL     1      44.519 -20.454   4.287  1.00  0.00     0.009 A 
HETATM   20  C   UNL     1      44.740 -21.798   3.978  1.00  0.00     0.001 A 
HETATM   21  C   UNL     1      44.360 -22.302   2.736  1.00  0.00     0.000 A 
HETATM   22  C   UNL     1      43.754 -21.463   1.804  1.00  0.00     0.001 A 
HETATM   23  C   UNL     1      43.530 -20.120   2.113  1.00  0.00     0.009 A 
ENDBRANCH  17  18
ENDBRANCH  16  17
ENDBRANCH  13  16
ENDBRANCH   7   9
ENDBRANCH   6   7
BRANCH   1  24
HETATM   24  C   UNL     1      39.671 -13.856  -2.014  1.00  0.00    -0.028 A 
HETATM   25  C   UNL     1      40.582 -14.911  -2.224  1.00  0.00     0.012 A 
HETATM   26  C   UNL     1      40.314 -15.905  -3.161  1.00  0.00     0.040 A 
HETATM   27  C   UNL     1      39.130 -15.852  -3.883  1.00  0.00     0.099 A 
HETATM   28  C   UNL     1      38.188 -14.843  -3.674  1.00  0.00     0.102 A 
HETATM   29  C   UNL     1      38.464 -13.842  -2.741  1.00  0.00     0.049 A 
BRANCH  27  30
HETATM   30  O   UNL     1      38.910 -16.824  -4.817  1.00  0.00    -0.358 OA
HETATM   31  H   UNL     1      39.697 -17.405  -4.796  1.00  0.00     0.218 HD
ENDBRANCH  27  30
BRANCH  28  32
HETATM   32  O   UNL     1      37.073 -14.920  -4.464  1.00  0.00    -0.349 OA
BRANCH  32  33
HETATM   33  C   UNL     1      36.324 -13.719  -4.652  1.00  0.00     0.171 C 
HETATM   34  C   UNL     1      34.888 -14.111  -4.952  1.00  0.00     0.034 C 
ENDBRANCH  32  33
ENDBRANCH  28  32
ENDBRANCH   1  24
BRANCH   5  35
HETATM   35  O   UNL     1      42.433 -12.963   1.698  1.00  0.00    -0.355 OA
HETATM   36  H   UNL     1      42.861 -12.112   1.912  1.00  0.00     0.218 HD
ENDBRANCH   5  35
BRANCH   2  37
HETATM   37  C   UNL     1      41.007 -10.852  -2.438  1.00  0.00     0.155 C 
BRANCH  37  38
HETATM   38  C   UNL     1      39.896  -9.871  -2.027  1.00  0.00     0.255 C 
BRANCH  38  39
HETATM   39  N   UNL     1      40.437  -8.718  -1.196  1.00  0.00    -0.066 N 
HETATM   40  H   UNL     1      39.857  -7.893  -1.411  1.00  0.00     0.280 HD
HETATM   41  C   UNL     1      40.368  -8.966   0.309  1.00  0.00     0.261 C 
HETATM   42  C   UNL     1      41.022  -7.810   1.073  1.00  0.00     0.195 C 
HETATM   43  O   UNL     1      42.376  -7.631   0.651  1.00  0.00    -0.388 OA
HETATM   44  C   UNL     1      42.445  -7.276  -0.734  1.00  0.00     0.195 C 
HETATM   45  C   UNL     1      41.874  -8.394  -1.611  1.00  0.00     0.261 C 
ENDBRANCH  38  39
ENDBRANCH  37  38
ENDBRANCH   2  37
TORSDOF 13
ENDMDL
MODEL 5
REMARK VINA RESULT:      -8.6      4.823      8.690
REMARK  13 active torsions:
REMARK  status: ('A' for Active; 'I' for Inactive)
REMARK    1  A    between atoms: C_2  and  O_3 
REMARK    2  A    between atoms: O_3  and  C_4 
REMARK    3  A    between atoms: C_5  and  O_6 
REMARK    4  A    between atoms: C_9  and  C_10 
REMARK    5  A    between atoms: N_11  and  C_12 
REMARK    6  A    between atoms: C_12  and  C_13 
REMARK    7  A    between atoms: C_13  and  N_14 
REMARK    8  A    between atoms: C_23  and  O_24 
REMARK    9  A    between atoms: C_25  and  C_26 
REMARK   10  A    between atoms: C_26  and  C_27 
REMARK   11  A    between atoms: C_31  and  O_32 
REMARK   12  A    between atoms: O_32  and  C_33 
REMARK   13  A    between atoms: C_33  and  C_34 
ROOT
HETATM    1  C   UNL     1      40.033 -12.631  -1.022  1.00  0.00     0.161 A 
HETATM    2  N   UNL     1      41.192 -11.876  -1.478  1.00  0.00    -0.332 N 
HETATM    3  C   UNL     1      42.188 -11.893  -0.512  1.00  0.00     0.278 A 
HETATM    4  O   UNL     1      43.244 -11.289  -0.549  1.00  0.00    -0.265 OA
HETATM    5  C   UNL     1      41.714 -12.711   0.621  1.00  0.00     0.146 A 
HETATM    6  C   UNL     1      40.462 -13.088   0.336  1.00  0.00     0.059 A 
ENDROOT
BRANCH   6   7
HETATM    7  C   UNL     1      39.598 -13.873   1.251  1.00  0.00     0.194 C 
HETATM    8  O   UNL     1      38.427 -13.584   1.458  1.00  0.00    -0.287 OA
BRANCH   7   9
HETATM    9  C   UNL     1      40.222 -15.006   1.984  1.00  0.00     0.021 A 
HETATM   10  C   UNL     1      40.423 -14.940   3.374  1.00  0.00    -0.045 A 
HETATM   11  C   UNL     1      39.903 -13.804   4.210  1.00  0.00     0.049 C 
HETATM   12  C   UNL     1      41.107 -15.994   4.000  1.00  0.00     0.044 A 
HETATM   13  C   UNL     1      41.595 -17.078   3.267  1.00  0.00     0.069 A 
HETATM   14  C   UNL     1      41.325 -17.172   1.905  1.00  0.00     0.038 A 
HETATM   15  C   UNL     1      40.629 -16.142   1.265  1.00  0.00     0.019 A 
BRANCH  13  16
HETATM   16  O   UNL     1      42.285 -18.005   3.993  1.00  0.00    -0.347 OA
BRANCH  16  17
HETATM   17  C   UNL     1      43.666 -18.168   3.657  1.00  0.00     0.214 C 
BRANCH  17  18
HETATM   18  C   UNL     1      43.955 -19.600   3.265  1.00  0.00    -0.034 A 
HETATM   19  C   UNL     1      44.523 -20.472   4.208  1.00  0.00     0.009 A 
HETATM   20  C   UNL     1      44.761 -21.810   3.887  1.00  0.00     0.001 A 
HETATM   21  C   UNL     1      44.431 -22.297   2.624  1.00  0.00     0.000 A 
HETATM   22  C   UNL     1      43.857 -21.447   1.683  1.00  0.00     0.001 A 
HETATM   23  C   UNL     1      43.615 -20.109   2.002  1.00  0.00     0.009 A 
ENDBRANCH  17  18
ENDBRANCH  16  17
ENDBRANCH  13  16
ENDBRANCH   7   9
ENDBRANCH   6   7
BRANCH   1  24
HETATM   24  C   UNL     1      39.737 -13.741  -2.016  1.00  0.00    -0.028 A 
HETATM   25  C   UNL     1      40.755 -14.609  -2.459  1.00  0.00     0.012 A 
HETATM   26  C   UNL     1      40.491 -15.578  -3.423  1.00  0.00     0.040 A 
HETATM   27  C   UNL     1      39.209 -15.688  -3.939  1.00  0.00     0.099 A 
HETATM   28  C   UNL     1      38.167 -14.870  -3.495  1.00  0.00     0.102 A 
HETATM   29  C   UNL     1      38.436 -13.893  -2.535  1.00  0.00     0.049 A 
BRANCH  27  30
HETATM   30  O   UNL     1      38.989 -16.628  -4.906  1.00  0.00    -0.358 OA
HETATM   31  H   UNL     1      39.388 -17.457  -4.575  1.00  0.00     0.218 HD
ENDBRANCH  27  30
BRANCH  28  32
HETATM   32  O   UNL     1      36.959 -15.092  -4.100  1.00  0.00    -0.349 OA
BRANCH  32  33
HETATM   33  C   UNL     1      36.449 -14.053  -4.936  1.00  0.00     0.171 C 
HETATM   34  C   UNL     1      34.943 -14.010  -4.752  1.00  0.00     0.034 C 
ENDBRANCH  32  33
ENDBRANCH  28  32
ENDBRANCH   1  24
BRANCH   5  35
HETATM   35  O   UNL     1      42.440 -12.910   1.754  1.00  0.00    -0.355 OA
HETATM   36  H   UNL     1      42.979 -13.714   1.625  1.00  0.00     0.218 HD
ENDBRANCH   5  35
BRANCH   2  37
HETATM   37  C   UNL     1      41.050 -10.716  -2.351  1.00  0.00     0.155 C 
BRANCH  37  38
HETATM   38  C   UNL     1      41.425 -10.987  -3.817  1.00  0.00     0.255 C 
BRANCH  38  39
HETATM   39  N   UNL     1      42.212  -9.835  -4.423  1.00  0.00    -0.066 N 
HETATM   40  H   UNL     1      43.210 -10.026  -4.246  1.00  0.00     0.280 HD
HETATM   41  C   UNL     1      42.017  -9.689  -5.930  1.00  0.00     0.261 C 
HETATM   42  C   UNL     1      42.757  -8.452  -6.448  1.00  0.00     0.195 C 
HETATM   43  O   UNL     1      42.312  -7.277  -5.765  1.00  0.00    -0.388 OA
HETATM   44  C   UNL     1      42.602  -7.351  -4.365  1.00  0.00     0.195 C 
HETATM   45  C   UNL     1      41.860  -8.523  -3.718  1.00  0.00     0.261 C 
ENDBRANCH  38  39
ENDBRANCH  37  38
ENDBRANCH   2  37
TORSDOF 13
ENDMDL
MODEL 6
REMARK VINA RESULT:      -8.3      3.538      7.502
REMARK  13 active torsions:
REMARK  status: ('A' for Active; 'I' for Inactive)
REMARK    1  A    between atoms: C_2  and  O_3 
REMARK    2  A    between atoms: O_3  and  C_4 
REMARK    3  A    between atoms: C_5  and  O_6 
REMARK    4  A    between atoms: C_9  and  C_10 
REMARK    5  A    between atoms: N_11  and  C_12 
REMARK    6  A    between atoms: C_12  and  C_13 
REMARK    7  A    between atoms: C_13  and  N_14 
REMARK    8  A    between atoms: C_23  and  O_24 
REMARK    9  A    between atoms: C_25  and  C_26 
REMARK   10  A    between atoms: C_26  and  C_27 
REMARK   11  A    between atoms: C_31  and  O_32 
REMARK   12  A    between atoms: O_32  and  C_33 
REMARK   13  A    between atoms: C_33  and  C_34 
ROOT
HETATM    1  C   UNL     1      40.188 -12.011  -0.058  1.00  0.00     0.161 A 
HETATM    2  N   UNL     1      40.774 -12.071  -1.390  1.00  0.00    -0.332 N 
HETATM    3  C   UNL     1      41.954 -11.343  -1.430  1.00  0.00     0.278 A 
HETATM    4  O   UNL     1      42.640 -11.125  -2.412  1.00  0.00    -0.265 OA
HETATM    5  C   UNL     1      42.205 -10.800  -0.081  1.00  0.00     0.146 A 
HETATM    6  C   UNL     1      41.162 -11.150   0.682  1.00  0.00     0.059 A 
ENDROOT
BRANCH   6   7
HETATM    7  C   UNL     1      40.991 -10.744   2.099  1.00  0.00     0.194 C 
HETATM    8  O   UNL     1      40.921  -9.571   2.441  1.00  0.00    -0.287 OA
BRANCH   7   9
HETATM    9  C   UNL     1      40.976 -11.818   3.126  1.00  0.00     0.021 A 
HETATM   10  C   UNL     1      39.847 -12.022   3.938  1.00  0.00    -0.045 A 
HETATM   11  C   UNL     1      38.559 -11.275   3.728  1.00  0.00     0.049 C 
HETATM   12  C   UNL     1      39.923 -12.982   4.958  1.00  0.00     0.044 A 
HETATM   13  C   UNL     1      41.093 -13.711   5.182  1.00  0.00     0.069 A 
HETATM   14  C   UNL     1      42.180 -13.558   4.325  1.00  0.00     0.038 A 
HETATM   15  C   UNL     1      42.118 -12.620   3.291  1.00  0.00     0.019 A 
BRANCH  13  16
HETATM   16  O   UNL     1      41.046 -14.575   6.238  1.00  0.00    -0.347 OA
BRANCH  16  17
HETATM   17  C   UNL     1      40.682 -15.923   5.933  1.00  0.00     0.214 C 
BRANCH  17  18
HETATM   18  C   UNL     1      41.913 -16.794   5.811  1.00  0.00    -0.034 A 
HETATM   19  C   UNL     1      41.938 -17.824   4.858  1.00  0.00     0.009 A 
HETATM   20  C   UNL     1      43.077 -18.616   4.694  1.00  0.00     0.001 A 
HETATM   21  C   UNL     1      44.207 -18.386   5.475  1.00  0.00     0.000 A 
HETATM   22  C   UNL     1      44.201 -17.360   6.417  1.00  0.00     0.001 A 
HETATM   23  C   UNL     1      43.065 -16.566   6.580  1.00  0.00     0.009 A 
ENDBRANCH  17  18
ENDBRANCH  16  17
ENDBRANCH  13  16
ENDBRANCH   7   9
ENDBRANCH   6   7
BRANCH   1  24
HETATM   24  C   UNL     1      40.030 -13.422   0.482  1.00  0.00    -0.028 A 
HETATM   25  C   UNL     1      38.841 -13.825   1.122  1.00  0.00     0.012 A 
HETATM   26  C   UNL     1      38.730 -15.097   1.677  1.00  0.00     0.040 A 
HETATM   27  C   UNL     1      39.803 -15.971   1.586  1.00  0.00     0.099 A 
HETATM   28  C   UNL     1      40.983 -15.618   0.926  1.00  0.00     0.102 A 
HETATM   29  C   UNL     1      41.095 -14.339   0.379  1.00  0.00     0.049 A 
BRANCH  27  30
HETATM   30  O   UNL     1      39.676 -17.201   2.168  1.00  0.00    -0.358 OA
HETATM   31  H   UNL     1      38.722 -17.317   2.350  1.00  0.00     0.218 HD
ENDBRANCH  27  30
BRANCH  28  32
HETATM   32  O   UNL     1      41.955 -16.582   0.923  1.00  0.00    -0.349 OA
BRANCH  32  33
HETATM   33  C   UNL     1      43.146 -16.308   1.661  1.00  0.00     0.171 C 
HETATM   34  C   UNL     1      44.131 -17.428   1.382  1.00  0.00     0.034 C 
ENDBRANCH  32  33
ENDBRANCH  28  32
ENDBRANCH   1  24
BRANCH   5  35
HETATM   35  O   UNL     1      43.270 -10.011   0.222  1.00  0.00    -0.355 OA
HETATM   36  H   UNL     1      43.620 -10.301   1.086  1.00  0.00     0.218 HD
ENDBRANCH   5  35
BRANCH   2  37
HETATM   37  C   UNL     1      39.942 -12.166  -2.585  1.00  0.00     0.155 C 
BRANCH  37  38
HETATM   38  C   UNL     1      38.466 -11.805  -2.347  1.00  0.00     0.255 C 
BRANCH  38  39
HETATM   39  N   UNL     1      37.530 -12.898  -2.840  1.00  0.00    -0.066 N 
HETATM   40  H   UNL     1      36.806 -13.024  -2.117  1.00  0.00     0.280 HD
HETATM   41  C   UNL     1      36.832 -12.555  -4.154  1.00  0.00     0.261 C 
HETATM   42  C   UNL     1      35.989 -13.739  -4.638  1.00  0.00     0.195 C 
HETATM   43  O   UNL     1      36.800 -14.907  -4.786  1.00  0.00    -0.388 OA
HETATM   44  C   UNL     1      37.362 -15.310  -3.533  1.00  0.00     0.195 C 
HETATM   45  C   UNL     1      38.284 -14.222  -2.976  1.00  0.00     0.261 C 
ENDBRANCH  38  39
ENDBRANCH  37  38
ENDBRANCH   2  37
TORSDOF 13
ENDMDL
MODEL 7
REMARK VINA RESULT:      -8.2      3.104      6.614
REMARK  13 active torsions:
REMARK  status: ('A' for Active; 'I' for Inactive)
REMARK    1  A    between atoms: C_2  and  O_3 
REMARK    2  A    between atoms: O_3  and  C_4 
REMARK    3  A    between atoms: C_5  and  O_6 
REMARK    4  A    between atoms: C_9  and  C_10 
REMARK    5  A    between atoms: N_11  and  C_12 
REMARK    6  A    between atoms: C_12  and  C_13 
REMARK    7  A    between atoms: C_13  and  N_14 
REMARK    8  A    between atoms: C_23  and  O_24 
REMARK    9  A    between atoms: C_25  and  C_26 
REMARK   10  A    between atoms: C_26  and  C_27 
REMARK   11  A    between atoms: C_31  and  O_32 
REMARK   12  A    between atoms: O_32  and  C_33 
REMARK   13  A    between atoms: C_33  and  C_34 
ROOT
HETATM    1  C   UNL     1      42.791 -15.693   4.227  1.00  0.00     0.161 A 
HETATM    2  N   UNL     1      42.973 -14.689   5.267  1.00  0.00    -0.332 N 
HETATM    3  C   UNL     1      41.796 -13.981   5.463  1.00  0.00     0.278 A 
HETATM    4  O   UNL     1      41.641 -13.022   6.197  1.00  0.00    -0.265 OA
HETATM    5  C   UNL     1      40.769 -14.538   4.562  1.00  0.00     0.146 A 
HETATM    6  C   UNL     1      41.364 -15.485   3.828  1.00  0.00     0.059 A 
ENDROOT
BRANCH   6   7
HETATM    7  C   UNL     1      40.692 -16.249   2.748  1.00  0.00     0.194 C 
HETATM    8  O   UNL     1      40.255 -17.379   2.918  1.00  0.00    -0.287 OA
BRANCH   7   9
HETATM    9  C   UNL     1      40.624 -15.623   1.402  1.00  0.00     0.021 A 
HETATM   10  C   UNL     1      41.588 -15.918   0.422  1.00  0.00    -0.045 A 
HETATM   11  C   UNL     1      42.645 -16.969   0.622  1.00  0.00     0.049 C 
HETATM   12  C   UNL     1      41.535 -15.224  -0.797  1.00  0.00     0.044 A 
HETATM   13  C   UNL     1      40.563 -14.249  -1.034  1.00  0.00     0.069 A 
HETATM   14  C   UNL     1      39.567 -14.019  -0.089  1.00  0.00     0.038 A 
HETATM   15  C   UNL     1      39.591 -14.713   1.124  1.00  0.00     0.019 A 
BRANCH  13  16
HETATM   16  O   UNL     1      40.659 -13.616  -2.240  1.00  0.00    -0.347 OA
BRANCH  16  17
HETATM   17  C   UNL     1      41.984 -13.387  -2.727  1.00  0.00     0.214 C 
BRANCH  17  18
HETATM   18  C   UNL     1      42.385 -11.943  -2.521  1.00  0.00    -0.034 A 
HETATM   19  C   UNL     1      42.949 -11.551  -1.296  1.00  0.00     0.009 A 
HETATM   20  C   UNL     1      43.366 -10.234  -1.093  1.00  0.00     0.001 A 
HETATM   21  C   UNL     1      43.232  -9.293  -2.111  1.00  0.00     0.000 A 
HETATM   22  C   UNL     1      42.685  -9.669  -3.335  1.00  0.00     0.001 A 
HETATM   23  C   UNL     1      42.269 -10.986  -3.541  1.00  0.00     0.009 A 
ENDBRANCH  17  18
ENDBRANCH  16  17
ENDBRANCH  13  16
ENDBRANCH   7   9
ENDBRANCH   6   7
BRANCH   1  24
HETATM   24  C   UNL     1      43.111 -17.064   4.797  1.00  0.00    -0.028 A 
HETATM   25  C   UNL     1      42.847 -17.370   6.147  1.00  0.00     0.012 A 
HETATM   26  C   UNL     1      43.209 -18.604   6.679  1.00  0.00     0.040 A 
HETATM   27  C   UNL     1      43.825 -19.539   5.861  1.00  0.00     0.099 A 
HETATM   28  C   UNL     1      44.068 -19.285   4.509  1.00  0.00     0.102 A 
HETATM   29  C   UNL     1      43.714 -18.042   3.980  1.00  0.00     0.049 A 
BRANCH  27  30
HETATM   30  O   UNL     1      44.197 -20.729   6.420  1.00  0.00    -0.358 OA
HETATM   31  H   UNL     1      43.647 -21.414   5.990  1.00  0.00     0.218 HD
ENDBRANCH  27  30
BRANCH  28  32
HETATM   32  O   UNL     1      44.688 -20.299   3.832  1.00  0.00    -0.349 OA
BRANCH  32  33
HETATM   33  C   UNL     1      44.391 -20.431   2.441  1.00  0.00     0.171 C 
HETATM   34  C   UNL     1      44.108 -21.897   2.166  1.00  0.00     0.034 C 
ENDBRANCH  32  33
ENDBRANCH  28  32
ENDBRANCH   1  24
BRANCH   5  35
HETATM   35  O   UNL     1      39.502 -14.051   4.482  1.00  0.00    -0.355 OA
HETATM   36  H   UNL     1      39.542 -13.191   4.020  1.00  0.00     0.218 HD
ENDBRANCH   5  35
BRANCH   2  37
HETATM   37  C   UNL     1      44.258 -14.027   5.469  1.00  0.00     0.155 C 
BRANCH  37  38
HETATM   38  C   UNL     1      44.840 -14.214   6.880  1.00  0.00     0.255 C 
BRANCH  38  39
HETATM   39  N   UNL     1      44.965 -12.892   7.621  1.00  0.00    -0.066 N 
HETATM   40  H   UNL     1      44.608 -12.158   6.989  1.00  0.00     0.280 HD
HETATM   41  C   UNL     1      44.153 -12.838   8.913  1.00  0.00     0.261 C 
HETATM   42  C   UNL     1      44.407 -11.520   9.651  1.00  0.00     0.195 C 
HETATM   43  O   UNL     1      45.802 -11.356   9.922  1.00  0.00    -0.388 OA
HETATM   44  C   UNL     1      46.560 -11.282   8.710  1.00  0.00     0.195 C 
HETATM   45  C   UNL     1      46.434 -12.580   7.909  1.00  0.00     0.261 C 
ENDBRANCH  38  39
ENDBRANCH  37  38
ENDBRANCH   2  37
TORSDOF 13
ENDMDL
MODEL 8
REMARK VINA RESULT:      -8.1      2.802      6.171
REMARK  13 active torsions:
REMARK  status: ('A' for Active; 'I' for Inactive)
REMARK    1  A    between atoms: C_2  and  O_3 
REMARK    2  A    between atoms: O_3  and  C_4 
REMARK    3  A    between atoms: C_5  and  O_6 
REMARK    4  A    between atoms: C_9  and  C_10 
REMARK    5  A    between atoms: N_11  and  C_12 
REMARK    6  A    between atoms: C_12  and  C_13 
REMARK    7  A    between atoms: C_13  and  N_14 
REMARK    8  A    between atoms: C_23  and  O_24 
REMARK    9  A    between atoms: C_25  and  C_26 
REMARK   10  A    between atoms: C_26  and  C_27 
REMARK   11  A    between atoms: C_31  and  O_32 
REMARK   12  A    between atoms: O_32  and  C_33 
REMARK   13  A    between atoms: C_33  and  C_34 
ROOT
HETATM    1  C   UNL     1      39.418 -12.111   3.127  1.00  0.00     0.161 A 
HETATM    2  N   UNL     1      38.997 -11.018   2.260  1.00  0.00    -0.332 N 
HETATM    3  C   UNL     1      39.777  -9.894   2.490  1.00  0.00     0.278 A 
HETATM    4  O   UNL     1      39.628  -8.793   1.991  1.00  0.00    -0.265 OA
HETATM    5  C   UNL     1      40.783 -10.234   3.515  1.00  0.00     0.146 A 
HETATM    6  C   UNL     1      40.536 -11.490   3.904  1.00  0.00     0.059 A 
ENDROOT
BRANCH   6   7
HETATM    7  C   UNL     1      41.284 -12.194   4.975  1.00  0.00     0.194 C 
HETATM    8  O   UNL     1      41.476 -11.698   6.077  1.00  0.00    -0.287 OA
BRANCH   7   9
HETATM    9  C   UNL     1      41.871 -13.519   4.646  1.00  0.00     0.021 A 
HETATM   10  C   UNL     1      41.343 -14.698   5.201  1.00  0.00    -0.045 A 
HETATM   11  C   UNL     1      40.091 -14.706   6.033  1.00  0.00     0.049 C 
HETATM   12  C   UNL     1      41.997 -15.912   4.937  1.00  0.00     0.044 A 
HETATM   13  C   UNL     1      43.156 -15.956   4.157  1.00  0.00     0.069 A 
HETATM   14  C   UNL     1      43.627 -14.796   3.549  1.00  0.00     0.038 A 
HETATM   15  C   UNL     1      42.979 -13.580   3.785  1.00  0.00     0.019 A 
BRANCH  13  16
HETATM   16  O   UNL     1      43.717 -17.193   4.024  1.00  0.00    -0.347 OA
BRANCH  16  17
HETATM   17  C   UNL     1      43.590 -17.807   2.738  1.00  0.00     0.214 C 
BRANCH  17  18
HETATM   18  C   UNL     1      43.861 -19.292   2.827  1.00  0.00    -0.034 A 
HETATM   19  C   UNL     1      43.484 -20.127   1.763  1.00  0.00     0.009 A 
HETATM   20  C   UNL     1      43.760 -21.496   1.800  1.00  0.00     0.001 A 
HETATM   21  C   UNL     1      44.420 -22.047   2.896  1.00  0.00     0.000 A 
HETATM   22  C   UNL     1      44.810 -21.230   3.953  1.00  0.00     0.001 A 
HETATM   23  C   UNL     1      44.538 -19.861   3.917  1.00  0.00     0.009 A 
ENDBRANCH  17  18
ENDBRANCH  16  17
ENDBRANCH  13  16
ENDBRANCH   7   9
ENDBRANCH   6   7
BRANCH   1  24
HETATM   24  C   UNL     1      39.807 -13.305   2.274  1.00  0.00    -0.028 A 
HETATM   25  C   UNL     1      39.254 -14.579   2.511  1.00  0.00     0.012 A 
HETATM   26  C   UNL     1      39.670 -15.682   1.771  1.00  0.00     0.040 A 
HETATM   27  C   UNL     1      40.631 -15.513   0.786  1.00  0.00     0.099 A 
HETATM   28  C   UNL     1      41.173 -14.258   0.498  1.00  0.00     0.102 A 
HETATM   29  C   UNL     1      40.762 -13.155   1.248  1.00  0.00     0.049 A 
BRANCH  27  30
HETATM   30  O   UNL     1      41.041 -16.620   0.098  1.00  0.00    -0.358 OA
HETATM   31  H   UNL     1      40.226 -17.075  -0.195  1.00  0.00     0.218 HD
ENDBRANCH  27  30
BRANCH  28  32
HETATM   32  O   UNL     1      42.114 -14.249  -0.496  1.00  0.00    -0.349 OA
BRANCH  32  33
HETATM   33  C   UNL     1      41.728 -13.693  -1.754  1.00  0.00     0.171 C 
HETATM   34  C   UNL     1      42.606 -12.483  -2.013  1.00  0.00     0.034 C 
ENDBRANCH  32  33
ENDBRANCH  28  32
ENDBRANCH   1  24
BRANCH   5  35
HETATM   35  O   UNL     1      41.692  -9.343   3.994  1.00  0.00    -0.355 OA
HETATM   36  H   UNL     1      41.199  -8.620   4.429  1.00  0.00     0.218 HD
ENDBRANCH   5  35
BRANCH   2  37
HETATM   37  C   UNL     1      37.605 -10.863   1.853  1.00  0.00     0.155 C 
BRANCH  37  38
HETATM   38  C   UNL     1      37.425 -10.499   0.369  1.00  0.00     0.255 C 
BRANCH  38  39
HETATM   39  N   UNL     1      38.066 -11.530  -0.548  1.00  0.00    -0.066 N 
HETATM   40  H   UNL     1      39.059 -11.597  -0.278  1.00  0.00     0.280 HD
HETATM   41  C   UNL     1      37.448 -12.921  -0.427  1.00  0.00     0.261 C 
HETATM   42  C   UNL     1      38.073 -13.875  -1.448  1.00  0.00     0.195 C 
HETATM   43  O   UNL     1      37.916 -13.366  -2.775  1.00  0.00    -0.388 OA
HETATM   44  C   UNL     1      38.598 -12.117  -2.934  1.00  0.00     0.195 C 
HETATM   45  C   UNL     1      38.012 -11.055  -2.001  1.00  0.00     0.261 C 
ENDBRANCH  38  39
ENDBRANCH  37  38
ENDBRANCH   2  37
TORSDOF 13
ENDMDL
MODEL 9
REMARK VINA RESULT:      -8.1      2.405      7.987
REMARK  13 active torsions:
REMARK  status: ('A' for Active; 'I' for Inactive)
REMARK    1  A    between atoms: C_2  and  O_3 
REMARK    2  A    between atoms: O_3  and  C_4 
REMARK    3  A    between atoms: C_5  and  O_6 
REMARK    4  A    between atoms: C_9  and  C_10 
REMARK    5  A    between atoms: N_11  and  C_12 
REMARK    6  A    between atoms: C_12  and  C_13 
REMARK    7  A    between atoms: C_13  and  N_14 
REMARK    8  A    between atoms: C_23  and  O_24 
REMARK    9  A    between atoms: C_25  and  C_26 
REMARK   10  A    between atoms: C_26  and  C_27 
REMARK   11  A    between atoms: C_31  and  O_32 
REMARK   12  A    between atoms: O_32  and  C_33 
REMARK   13  A    between atoms: C_33  and  C_34 
ROOT
HETATM    1  C   UNL     1      40.769 -15.475   2.640  1.00  0.00     0.161 A 
HETATM    2  N   UNL     1      41.413 -16.188   1.546  1.00  0.00    -0.332 N 
HETATM    3  C   UNL     1      41.199 -15.525   0.346  1.00  0.00     0.278 A 
HETATM    4  O   UNL     1      41.532 -15.904  -0.762  1.00  0.00    -0.265 OA
HETATM    5  C   UNL     1      40.419 -14.305   0.629  1.00  0.00     0.146 A 
HETATM    6  C   UNL     1      40.139 -14.313   1.938  1.00  0.00     0.059 A 
ENDROOT
BRANCH   6   7
HETATM    7  C   UNL     1      39.311 -13.289   2.621  1.00  0.00     0.194 C 
HETATM    8  O   UNL     1      38.197 -12.976   2.225  1.00  0.00    -0.287 OA
BRANCH   7   9
HETATM    9  C   UNL     1      39.909 -12.585   3.785  1.00  0.00     0.021 A 
HETATM   10  C   UNL     1      40.789 -11.505   3.598  1.00  0.00    -0.045 A 
HETATM   11  C   UNL     1      41.064 -10.916   2.242  1.00  0.00     0.049 C 
HETATM   12  C   UNL     1      41.403 -10.940   4.727  1.00  0.00     0.044 A 
HETATM   13  C   UNL     1      41.166 -11.444   6.009  1.00  0.00     0.069 A 
HETATM   14  C   UNL     1      40.235 -12.462   6.192  1.00  0.00     0.038 A 
HETATM   15  C   UNL     1      39.599 -13.026   5.083  1.00  0.00     0.019 A 
BRANCH  13  16
HETATM   16  O   UNL     1      41.867 -10.835   7.009  1.00  0.00    -0.347 OA
BRANCH  16  17
HETATM   17  C   UNL     1      41.164 -10.634   8.238  1.00  0.00     0.214 C 
BRANCH  17  18
HETATM   18  C   UNL     1      42.133 -10.511   9.393  1.00  0.00    -0.034 A 
HETATM   19  C   UNL     1      43.441 -11.001   9.252  1.00  0.00     0.009 A 
HETATM   20  C   UNL     1      44.369 -10.863  10.287  1.00  0.00     0.001 A 
HETATM   21  C   UNL     1      44.005 -10.229  11.473  1.00  0.00     0.000 A 
HETATM   22  C   UNL     1      42.715  -9.728  11.623  1.00  0.00     0.001 A 
HETATM   23  C   UNL     1      41.786  -9.863  10.589  1.00  0.00     0.009 A 
ENDBRANCH  17  18
ENDBRANCH  16  17
ENDBRANCH  13  16
ENDBRANCH   7   9
ENDBRANCH   6   7
BRANCH   1  24
HETATM   24  C   UNL     1      41.811 -15.114   3.684  1.00  0.00    -0.028 A 
HETATM   25  C   UNL     1      42.872 -14.238   3.378  1.00  0.00     0.012 A 
HETATM   26  C   UNL     1      43.863 -13.969   4.317  1.00  0.00     0.040 A 
HETATM   27  C   UNL     1      43.791 -14.565   5.567  1.00  0.00     0.099 A 
HETATM   28  C   UNL     1      42.734 -15.408   5.918  1.00  0.00     0.102 A 
HETATM   29  C   UNL     1      41.746 -15.685   4.970  1.00  0.00     0.049 A 
BRANCH  27  30
HETATM   30  O   UNL     1      44.795 -14.305   6.457  1.00  0.00    -0.358 OA
HETATM   31  H   UNL     1      45.547 -13.973   5.927  1.00  0.00     0.218 HD
ENDBRANCH  27  30
BRANCH  28  32
HETATM   32  O   UNL     1      42.802 -15.926   7.183  1.00  0.00    -0.349 OA
BRANCH  32  33
HETATM   33  C   UNL     1      42.582 -17.330   7.324  1.00  0.00     0.171 C 
HETATM   34  C   UNL     1      43.755 -17.906   8.097  1.00  0.00     0.034 C 
ENDBRANCH  32  33
ENDBRANCH  28  32
ENDBRANCH   1  24
BRANCH   5  35
HETATM   35  O   UNL     1      40.011 -13.437  -0.336  1.00  0.00    -0.355 OA
HETATM   36  H   UNL     1      39.118 -13.710  -0.622  1.00  0.00     0.218 HD
ENDBRANCH   5  35
BRANCH   2  37
HETATM   37  C   UNL     1      41.542 -17.642   1.556  1.00  0.00     0.155 C 
BRANCH  37  38
HETATM   38  C   UNL     1      42.994 -18.141   1.475  1.00  0.00     0.255 C 
BRANCH  38  39
HETATM   39  N   UNL     1      43.312 -19.140   2.577  1.00  0.00    -0.066 N 
HETATM   40  H   UNL     1      42.410 -19.493   2.932  1.00  0.00     0.280 HD
HETATM   41  C   UNL     1      44.133 -20.334   2.098  1.00  0.00     0.261 C 
HETATM   42  C   UNL     1      44.498 -21.240   3.279  1.00  0.00     0.195 C 
HETATM   43  O   UNL     1      45.210 -20.504   4.277  1.00  0.00    -0.388 OA
HETATM   44  C   UNL     1      44.402 -19.455   4.821  1.00  0.00     0.195 C 
HETATM   45  C   UNL     1      44.024 -18.442   3.737  1.00  0.00     0.261 C 
ENDBRANCH  38  39
ENDBRANCH  37  38
ENDBRANCH   2  37
TORSDOF 13
ENDMDL
MODEL 10
REMARK VINA RESULT:      -8.0      2.847      5.828
REMARK  13 active torsions:
REMARK  status: ('A' for Active; 'I' for Inactive)
REMARK    1  A    between atoms: C_2  and  O_3 
REMARK    2  A    between atoms: O_3  and  C_4 
REMARK    3  A    between atoms: C_5  and  O_6 
REMARK    4  A    between atoms: C_9  and  C_10 
REMARK    5  A    between atoms: N_11  and  C_12 
REMARK    6  A    between atoms: C_12  and  C_13 
REMARK    7  A    between atoms: C_13  and  N_14 
REMARK    8  A    between atoms: C_23  and  O_24 
REMARK    9  A    between atoms: C_25  and  C_26 
REMARK   10  A    between atoms: C_26  and  C_27 
REMARK   11  A    between atoms: C_31  and  O_32 
REMARK   12  A    between atoms: O_32  and  C_33 
REMARK   13  A    between atoms: C_33  and  C_34 
ROOT
HETATM    1  C   UNL     1      40.870 -12.434   1.443  1.00  0.00     0.161 A 
HETATM    2  N   UNL     1      40.693 -11.003   1.233  1.00  0.00    -0.332 N 
HETATM    3  C   UNL     1      39.358 -10.714   0.990  1.00  0.00     0.278 A 
HETATM    4  O   UNL     1      38.894  -9.628   0.694  1.00  0.00    -0.265 OA
HETATM    5  C   UNL     1      38.592 -11.973   1.072  1.00  0.00     0.146 A 
HETATM    6  C   UNL     1      39.476 -12.955   1.285  1.00  0.00     0.059 A 
ENDROOT
BRANCH   6   7
HETATM    7  C   UNL     1      39.121 -14.394   1.364  1.00  0.00     0.194 C 
HETATM    8  O   UNL     1      37.962 -14.783   1.394  1.00  0.00    -0.287 OA
BRANCH   7   9
HETATM    9  C   UNL     1      40.235 -15.371   1.482  1.00  0.00     0.021 A 
HETATM   10  C   UNL     1      40.999 -15.729   0.358  1.00  0.00    -0.045 A 
HETATM   11  C   UNL     1      40.834 -15.056  -0.976  1.00  0.00     0.049 C 
HETATM   12  C   UNL     1      41.972 -16.730   0.504  1.00  0.00     0.044 A 
HETATM   13  C   UNL     1      42.172 -17.374   1.727  1.00  0.00     0.069 A 
HETATM   14  C   UNL     1      41.465 -16.960   2.852  1.00  0.00     0.038 A 
HETATM   15  C   UNL     1      40.504 -15.952   2.732  1.00  0.00     0.019 A 
BRANCH  13  16
HETATM   16  O   UNL     1      43.114 -18.363   1.715  1.00  0.00    -0.347 OA
BRANCH  16  17
HETATM   17  C   UNL     1      43.937 -18.461   2.880  1.00  0.00     0.214 C 
BRANCH  17  18
HETATM   18  C   UNL     1      44.242 -19.909   3.198  1.00  0.00    -0.034 A 
HETATM   19  C   UNL     1      44.624 -20.263   4.501  1.00  0.00     0.009 A 
HETATM   20  C   UNL     1      44.870 -21.598   4.833  1.00  0.00     0.001 A 
HETATM   21  C   UNL     1      44.732 -22.595   3.870  1.00  0.00     0.000 A 
HETATM   22  C   UNL     1      44.343 -22.259   2.576  1.00  0.00     0.001 A 
HETATM   23  C   UNL     1      44.094 -20.926   2.243  1.00  0.00     0.009 A 
ENDBRANCH  17  18
ENDBRANCH  16  17
ENDBRANCH  13  16
ENDBRANCH   7   9
ENDBRANCH   6   7
BRANCH   1  24
HETATM   24  C   UNL     1      41.497 -12.665   2.806  1.00  0.00    -0.028 A 
HETATM   25  C   UNL     1      42.717 -13.358   2.936  1.00  0.00     0.012 A 
HETATM   26  C   UNL     1      43.249 -13.628   4.194  1.00  0.00     0.040 A 
HETATM   27  C   UNL     1      42.568 -13.198   5.323  1.00  0.00     0.099 A 
HETATM   28  C   UNL     1      41.376 -12.476   5.231  1.00  0.00     0.102 A 
HETATM   29  C   UNL     1      40.839 -12.216   3.969  1.00  0.00     0.049 A 
BRANCH  27  30
HETATM   30  O   UNL     1      43.100 -13.506   6.544  1.00  0.00    -0.358 OA
HETATM   31  H   UNL     1      42.933 -12.730   7.116  1.00  0.00     0.218 HD
ENDBRANCH  27  30
BRANCH  28  32
HETATM   32  O   UNL     1      40.818 -12.126   6.430  1.00  0.00    -0.349 OA
BRANCH  32  33
HETATM   33  C   UNL     1      40.835 -10.740   6.776  1.00  0.00     0.171 C 
HETATM   34  C   UNL     1      41.470 -10.614   8.149  1.00  0.00     0.034 C 
ENDBRANCH  32  33
ENDBRANCH  28  32
ENDBRANCH   1  24
BRANCH   5  35
HETATM   35  O   UNL     1      37.252 -12.048   0.856  1.00  0.00    -0.355 OA
HETATM   36  H   UNL     1      37.112 -12.174  -0.103  1.00  0.00     0.218 HD
ENDBRANCH   5  35
BRANCH   2  37
HETATM   37  C   UNL     1      41.734 -10.191   0.613  1.00  0.00     0.155 C 
BRANCH  37  38
HETATM   38  C   UNL     1      42.642 -10.970  -0.354  1.00  0.00     0.255 C 
BRANCH  38  39
HETATM   39  N   UNL     1      42.136 -10.900  -1.786  1.00  0.00    -0.066 N 
HETATM   40  H   UNL     1      41.114 -10.765  -1.738  1.00  0.00     0.280 HD
HETATM   41  C   UNL     1      42.729  -9.743  -2.586  1.00  0.00     0.261 C 
HETATM   42  C   UNL     1      42.252  -9.799  -4.041  1.00  0.00     0.195 C 
HETATM   43  O   UNL     1      42.595 -11.053  -4.636  1.00  0.00    -0.388 OA
HETATM   44  C   UNL     1      41.944 -12.138  -3.967  1.00  0.00     0.195 C 
HETATM   45  C   UNL     1      42.394 -12.225  -2.506  1.00  0.00     0.261 C 
ENDBRANCH  38  39
ENDBRANCH  37  38
ENDBRANCH   2  37
TORSDOF 13
ENDMDL
