MODEL 1
REMARK VINA RESULT:      -9.3      0.000      0.000
REMARK  5 active torsions:
REMARK  status: ('A' for Active; 'I' for Inactive)
REMARK    1  A    between atoms: C_3  and  O_4 
REMARK    2  A    between atoms: C_6  and  N_7 
REMARK       I    between atoms: N_7  and  C_8 
REMARK    3  A    between atoms: C_8  and  C_9 
REMARK    4  A    between atoms: C_14  and  C_15 
REMARK    5  A    between atoms: C_23  and  C_24 
ROOT
HETATM    1  C   UNL     1      40.719 -14.642   1.073  1.00  0.00     0.148 A 
HETATM    2  N   UNL     1      41.857 -14.330   1.735  1.00  0.00    -0.165 NA
HETATM    3  N   UNL     1      41.901 -15.227   2.737  1.00  0.00    -0.240 N 
HETATM    4  C   UNL     1      40.876 -16.135   2.702  1.00  0.00     0.123 A 
HETATM    5  N   UNL     1      40.806 -17.165   3.575  1.00  0.00    -0.366 N 
HETATM    6  C   UNL     1      41.923 -17.489   4.457  1.00  0.00     0.118 C 
HETATM    7  C   UNL     1      42.682 -16.215   4.849  1.00  0.00     0.066 C 
HETATM    8  C   UNL     1      43.036 -15.332   3.637  1.00  0.00     0.221 C 
HETATM    9  C   UNL     1      40.078 -15.768   1.652  1.00  0.00     0.089 A 
HETATM   10  H   UNL     1      40.152 -17.928   3.413  1.00  0.00     0.161 HD
ENDROOT
BRANCH   1  11
HETATM   11  C   UNL     1      40.264 -13.882  -0.107  1.00  0.00     0.276 C 
HETATM   12  N   UNL     1      39.031 -14.315  -0.554  1.00  0.00    -0.322 N 
HETATM   13  H   UNL     1      38.657 -15.092  -0.014  1.00  0.00     0.169 HD
HETATM   14  O   UNL     1      40.952 -12.991  -0.592  1.00  0.00    -0.266 OA
BRANCH  12  15
HETATM   15  C   UNL     1      38.282 -13.841  -1.645  1.00  0.00     0.037 A 
HETATM   16  C   UNL     1      38.055 -14.573  -2.811  1.00  0.00     0.066 A 
HETATM   17  C   UNL     1      37.299 -14.021  -3.844  1.00  0.00     0.067 A 
HETATM   18  C   UNL     1      36.754 -12.746  -3.735  1.00  0.00     0.036 A 
HETATM   19  C   UNL     1      36.978 -12.010  -2.574  1.00  0.00     0.005 A 
HETATM   20  C   UNL     1      37.742 -12.553  -1.537  1.00  0.00     0.029 A 
BRANCH  17  21
HETATM   21  O   UNL     1      37.112 -14.774  -4.968  1.00  0.00    -0.361 OA
HETATM   22  H   UNL     1      36.577 -15.550  -4.739  1.00  0.00     0.217 HD
ENDBRANCH  17  21
ENDBRANCH  12  15
ENDBRANCH   1  11
BRANCH   8  23
HETATM   23  C   UNL     1      43.500 -13.974   4.120  1.00  0.00     0.409 C 
HETATM   24  F   UNL     1      43.819 -13.975   5.435  1.00  0.00    -0.169 F 
HETATM   25  F   UNL     1      44.626 -13.610   3.449  1.00  0.00    -0.169 F 
HETATM   26  F   UNL     1      42.601 -12.991   3.905  1.00  0.00    -0.169 F 
ENDBRANCH   8  23
BRANCH   6  27
HETATM   27  C   UNL     1      42.818 -18.582   3.889  1.00  0.00    -0.035 A 
HETATM   28  C   UNL     1      43.804 -19.238   4.648  1.00  0.00     0.012 A 
HETATM   29  C   UNL     1      44.610 -20.226   4.074  1.00  0.00     0.043 A 
HETATM   30  C   UNL     1      44.432 -20.569   2.741  1.00  0.00     0.116 A 
HETATM   31  F   UNL     1      45.209 -21.510   2.191  1.00  0.00    -0.206 F 
HETATM   32  C   UNL     1      43.460 -19.947   1.970  1.00  0.00     0.043 A 
HETATM   33  C   UNL     1      42.654 -18.960   2.542  1.00  0.00     0.012 A 
ENDBRANCH   6  27
TORSDOF 5
ENDMDL
MODEL 2
REMARK VINA RESULT:      -8.9      2.180      2.904
REMARK  5 active torsions:
REMARK  status: ('A' for Active; 'I' for Inactive)
REMARK    1  A    between atoms: C_3  and  O_4 
REMARK    2  A    between atoms: C_6  and  N_7 
REMARK       I    between atoms: N_7  and  C_8 
REMARK    3  A    between atoms: C_8  and  C_9 
REMARK    4  A    between atoms: C_14  and  C_15 
REMARK    5  A    between atoms: C_23  and  C_24 
ROOT
HETATM    1  C   UNL     1      42.072 -14.497   2.637  1.00  0.00     0.148 A 
HETATM    2  N   UNL     1      43.026 -14.317   3.580  1.00  0.00    -0.165 NA
HETATM    3  N   UNL     1      42.739 -15.250   4.508  1.00  0.00    -0.240 N 
HETATM    4  C   UNL     1      41.686 -16.055   4.164  1.00  0.00     0.123 A 
HETATM    5  N   UNL     1      41.312 -17.104   4.931  1.00  0.00    -0.366 N 
HETATM    6  C   UNL     1      42.138 -17.564   6.043  1.00  0.00     0.118 C 
HETATM    7  C   UNL     1      42.874 -16.382   6.686  1.00  0.00     0.066 C 
HETATM    8  C   UNL     1      43.596 -15.494   5.655  1.00  0.00     0.221 C 
HETATM    9  C   UNL     1      41.214 -15.577   2.971  1.00  0.00     0.089 A 
HETATM   10  H   UNL     1      40.660 -17.796   4.565  1.00  0.00     0.161 HD
ENDROOT
BRANCH   1  11
HETATM   11  C   UNL     1      41.996 -13.655   1.428  1.00  0.00     0.276 C 
HETATM   12  N   UNL     1      41.361 -14.306   0.388  1.00  0.00    -0.322 N 
HETATM   13  H   UNL     1      41.074 -15.254   0.620  1.00  0.00     0.169 HD
HETATM   14  O   UNL     1      42.471 -12.526   1.409  1.00  0.00    -0.266 OA
BRANCH  12  15
HETATM   15  C   UNL     1      41.105 -13.833  -0.911  1.00  0.00     0.037 A 
HETATM   16  C   UNL     1      42.096 -13.401  -1.792  1.00  0.00     0.066 A 
HETATM   17  C   UNL     1      41.748 -12.946  -3.064  1.00  0.00     0.067 A 
HETATM   18  C   UNL     1      40.422 -12.920  -3.480  1.00  0.00     0.036 A 
HETATM   19  C   UNL     1      39.427 -13.350  -2.605  1.00  0.00     0.005 A 
HETATM   20  C   UNL     1      39.767 -13.799  -1.326  1.00  0.00     0.029 A 
BRANCH  17  21
HETATM   21  O   UNL     1      42.754 -12.526  -3.886  1.00  0.00    -0.361 OA
HETATM   22  H   UNL     1      42.377 -12.305  -4.753  1.00  0.00     0.217 HD
ENDBRANCH  17  21
ENDBRANCH  12  15
ENDBRANCH   1  11
BRANCH   8  23
HETATM   23  C   UNL     1      44.032 -14.204   6.317  1.00  0.00     0.409 C 
HETATM   24  F   UNL     1      43.053 -13.269   6.321  1.00  0.00    -0.169 F 
HETATM   25  F   UNL     1      44.347 -14.440   7.618  1.00  0.00    -0.169 F 
HETATM   26  F   UNL     1      45.133 -13.658   5.759  1.00  0.00    -0.169 F 
ENDBRANCH   8  23
BRANCH   6  27
HETATM   27  C   UNL     1      43.054 -18.715   5.655  1.00  0.00    -0.035 A 
HETATM   28  C   UNL     1      43.545 -18.900   4.350  1.00  0.00     0.012 A 
HETATM   29  C   UNL     1      44.374 -19.983   4.043  1.00  0.00     0.043 A 
HETATM   30  C   UNL     1      44.721 -20.886   5.038  1.00  0.00     0.116 A 
HETATM   31  F   UNL     1      45.509 -21.928   4.741  1.00  0.00    -0.206 F 
HETATM   32  C   UNL     1      44.261 -20.725   6.337  1.00  0.00     0.043 A 
HETATM   33  C   UNL     1      43.433 -19.642   6.646  1.00  0.00     0.012 A 
ENDBRANCH   6  27
TORSDOF 5
ENDMDL
MODEL 3
REMARK VINA RESULT:      -8.8      2.245      2.737
REMARK  5 active torsions:
REMARK  status: ('A' for Active; 'I' for Inactive)
REMARK    1  A    between atoms: C_3  and  O_4 
REMARK    2  A    between atoms: C_6  and  N_7 
REMARK       I    between atoms: N_7  and  C_8 
REMARK    3  A    between atoms: C_8  and  C_9 
REMARK    4  A    between atoms: C_14  and  C_15 
REMARK    5  A    between atoms: C_23  and  C_24 
ROOT
HETATM    1  C   UNL     1      41.507 -13.853   2.204  1.00  0.00     0.148 A 
HETATM    2  N   UNL     1      42.506 -13.853   3.117  1.00  0.00    -0.165 NA
HETATM    3  N   UNL     1      42.300 -14.985   3.816  1.00  0.00    -0.240 N 
HETATM    4  C   UNL     1      41.254 -15.735   3.347  1.00  0.00     0.123 A 
HETATM    5  N   UNL     1      40.957 -16.946   3.868  1.00  0.00    -0.366 N 
HETATM    6  C   UNL     1      41.857 -17.612   4.804  1.00  0.00     0.118 C 
HETATM    7  C   UNL     1      42.592 -16.578   5.667  1.00  0.00     0.066 C 
HETATM    8  C   UNL     1      43.227 -15.448   4.835  1.00  0.00     0.221 C 
HETATM    9  C   UNL     1      40.702 -15.017   2.320  1.00  0.00     0.089 A 
HETATM   10  H   UNL     1      40.307 -17.563   3.384  1.00  0.00     0.161 HD
ENDROOT
BRANCH   1  11
HETATM   11  C   UNL     1      41.337 -12.762   1.226  1.00  0.00     0.276 C 
HETATM   12  N   UNL     1      41.863 -13.091  -0.008  1.00  0.00    -0.322 N 
HETATM   13  H   UNL     1      42.294 -14.012  -0.030  1.00  0.00     0.169 HD
HETATM   14  O   UNL     1      40.796 -11.708   1.539  1.00  0.00    -0.266 OA
BRANCH  12  15
HETATM   15  C   UNL     1      41.894 -12.314  -1.179  1.00  0.00     0.037 A 
HETATM   16  C   UNL     1      41.015 -12.481  -2.249  1.00  0.00     0.066 A 
HETATM   17  C   UNL     1      41.121 -11.663  -3.374  1.00  0.00     0.067 A 
HETATM   18  C   UNL     1      42.090 -10.669  -3.450  1.00  0.00     0.036 A 
HETATM   19  C   UNL     1      42.972 -10.497  -2.386  1.00  0.00     0.005 A 
HETATM   20  C   UNL     1      42.877 -11.318  -1.259  1.00  0.00     0.029 A 
BRANCH  17  21
HETATM   21  O   UNL     1      40.243 -11.872  -4.398  1.00  0.00    -0.361 OA
HETATM   22  H   UNL     1      39.508 -11.244  -4.312  1.00  0.00     0.217 HD
ENDBRANCH  17  21
ENDBRANCH  12  15
ENDBRANCH   1  11
BRANCH   8  23
HETATM   23  C   UNL     1      43.660 -14.326   5.754  1.00  0.00     0.409 C 
HETATM   24  F   UNL     1      42.665 -13.440   5.992  1.00  0.00    -0.169 F 
HETATM   25  F   UNL     1      44.019 -14.836   6.963  1.00  0.00    -0.169 F 
HETATM   26  F   UNL     1      44.733 -13.643   5.303  1.00  0.00    -0.169 F 
ENDBRANCH   8  23
BRANCH   6  27
HETATM   27  C   UNL     1      42.785 -18.604   4.118  1.00  0.00    -0.035 A 
HETATM   28  C   UNL     1      43.781 -19.324   4.802  1.00  0.00     0.012 A 
HETATM   29  C   UNL     1      44.617 -20.214   4.121  1.00  0.00     0.043 A 
HETATM   30  C   UNL     1      44.461 -20.393   2.754  1.00  0.00     0.116 A 
HETATM   31  F   UNL     1      45.268 -21.240   2.102  1.00  0.00    -0.206 F 
HETATM   32  C   UNL     1      43.481 -19.706   2.053  1.00  0.00     0.043 A 
HETATM   33  C   UNL     1      42.643 -18.817   2.732  1.00  0.00     0.012 A 
ENDBRANCH   6  27
TORSDOF 5
ENDMDL
MODEL 4
REMARK VINA RESULT:      -8.8      3.864      8.726
REMARK  5 active torsions:
REMARK  status: ('A' for Active; 'I' for Inactive)
REMARK    1  A    between atoms: C_3  and  O_4 
REMARK    2  A    between atoms: C_6  and  N_7 
REMARK       I    between atoms: N_7  and  C_8 
REMARK    3  A    between atoms: C_8  and  C_9 
REMARK    4  A    between atoms: C_14  and  C_15 
REMARK    5  A    between atoms: C_23  and  C_24 
ROOT
HETATM    1  C   UNL     1      41.658 -16.301   1.454  1.00  0.00     0.148 A 
HETATM    2  N   UNL     1      41.710 -15.439   0.412  1.00  0.00    -0.165 NA
HETATM    3  N   UNL     1      40.454 -14.960   0.330  1.00  0.00    -0.240 N 
HETATM    4  C   UNL     1      39.625 -15.431   1.314  1.00  0.00     0.123 A 
HETATM    5  N   UNL     1      38.354 -14.991   1.444  1.00  0.00    -0.366 N 
HETATM    6  C   UNL     1      37.867 -13.841   0.688  1.00  0.00     0.118 C 
HETATM    7  C   UNL     1      38.554 -13.773  -0.682  1.00  0.00     0.066 C 
HETATM    8  C   UNL     1      40.087 -13.899  -0.590  1.00  0.00     0.221 C 
HETATM    9  C   UNL     1      40.366 -16.323   2.042  1.00  0.00     0.089 A 
HETATM   10  H   UNL     1      37.824 -15.207   2.286  1.00  0.00     0.161 HD
ENDROOT
BRANCH   1  11
HETATM   11  C   UNL     1      42.834 -17.080   1.888  1.00  0.00     0.276 C 
HETATM   12  N   UNL     1      42.477 -18.321   2.376  1.00  0.00    -0.322 N 
HETATM   13  H   UNL     1      41.472 -18.482   2.376  1.00  0.00     0.169 HD
HETATM   14  O   UNL     1      43.966 -16.617   1.809  1.00  0.00    -0.266 OA
BRANCH  12  15
HETATM   15  C   UNL     1      43.311 -19.333   2.881  1.00  0.00     0.037 A 
HETATM   16  C   UNL     1      43.621 -20.506   2.191  1.00  0.00     0.066 A 
HETATM   17  C   UNL     1      44.458 -21.457   2.772  1.00  0.00     0.067 A 
HETATM   18  C   UNL     1      45.003 -21.259   4.036  1.00  0.00     0.036 A 
HETATM   19  C   UNL     1      44.697 -20.092   4.732  1.00  0.00     0.005 A 
HETATM   20  C   UNL     1      43.852 -19.137   4.159  1.00  0.00     0.029 A 
BRANCH  17  21
HETATM   21  O   UNL     1      44.724 -22.591   2.059  1.00  0.00    -0.361 OA
HETATM   22  H   UNL     1      44.780 -23.340   2.673  1.00  0.00     0.217 HD
ENDBRANCH  17  21
ENDBRANCH  12  15
ENDBRANCH   1  11
BRANCH   8  23
HETATM   23  C   UNL     1      40.658 -14.128  -1.973  1.00  0.00     0.409 C 
HETATM   24  F   UNL     1      40.619 -15.431  -2.338  1.00  0.00    -0.169 F 
HETATM   25  F   UNL     1      39.924 -13.447  -2.892  1.00  0.00    -0.169 F 
HETATM   26  F   UNL     1      41.928 -13.691  -2.110  1.00  0.00    -0.169 F 
ENDBRANCH   8  23
BRANCH   6  27
HETATM   27  C   UNL     1      37.951 -12.543   1.478  1.00  0.00    -0.035 A 
HETATM   28  C   UNL     1      38.837 -12.355   2.554  1.00  0.00     0.012 A 
HETATM   29  C   UNL     1      38.865 -11.146   3.256  1.00  0.00     0.043 A 
HETATM   30  C   UNL     1      38.012 -10.116   2.885  1.00  0.00     0.116 A 
HETATM   31  F   UNL     1      38.034  -8.962   3.563  1.00  0.00    -0.206 F 
HETATM   32  C   UNL     1      37.134 -10.268   1.821  1.00  0.00     0.043 A 
HETATM   33  C   UNL     1      37.106 -11.476   1.118  1.00  0.00     0.012 A 
ENDBRANCH   6  27
TORSDOF 5
ENDMDL
MODEL 5
REMARK VINA RESULT:      -8.7      4.289      8.762
REMARK  5 active torsions:
REMARK  status: ('A' for Active; 'I' for Inactive)
REMARK    1  A    between atoms: C_3  and  O_4 
REMARK    2  A    between atoms: C_6  and  N_7 
REMARK       I    between atoms: N_7  and  C_8 
REMARK    3  A    between atoms: C_8  and  C_9 
REMARK    4  A    between atoms: C_14  and  C_15 
REMARK    5  A    between atoms: C_23  and  C_24 
ROOT
HETATM    1  C   UNL     1      42.998 -15.917   5.417  1.00  0.00     0.148 A 
HETATM    2  N   UNL     1      43.508 -16.708   4.445  1.00  0.00    -0.165 NA
HETATM    3  N   UNL     1      42.465 -16.914   3.619  1.00  0.00    -0.240 N 
HETATM    4  C   UNL     1      41.333 -16.236   3.990  1.00  0.00     0.123 A 
HETATM    5  N   UNL     1      40.215 -16.250   3.231  1.00  0.00    -0.366 N 
HETATM    6  C   UNL     1      40.220 -16.804   1.881  1.00  0.00     0.118 C 
HETATM    7  C   UNL     1      41.213 -17.970   1.785  1.00  0.00     0.066 C 
HETATM    8  C   UNL     1      42.600 -17.622   2.359  1.00  0.00     0.221 C 
HETATM    9  C   UNL     1      41.637 -15.602   5.165  1.00  0.00     0.089 A 
HETATM   10  H   UNL     1      39.461 -15.593   3.423  1.00  0.00     0.161 HD
ENDROOT
BRANCH   1  11
HETATM   11  C   UNL     1      43.808 -15.458   6.562  1.00  0.00     0.276 C 
HETATM   12  N   UNL     1      44.108 -14.113   6.473  1.00  0.00    -0.322 N 
HETATM   13  H   UNL     1      43.743 -13.673   5.632  1.00  0.00     0.169 HD
HETATM   14  O   UNL     1      44.152 -16.233   7.447  1.00  0.00    -0.266 OA
BRANCH  12  15
HETATM   15  C   UNL     1      44.857 -13.325   7.364  1.00  0.00     0.037 A 
HETATM   16  C   UNL     1      46.164 -12.903   7.121  1.00  0.00     0.066 A 
HETATM   17  C   UNL     1      46.831 -12.123   8.065  1.00  0.00     0.067 A 
HETATM   18  C   UNL     1      46.215 -11.746   9.253  1.00  0.00     0.036 A 
HETATM   19  C   UNL     1      44.910 -12.165   9.502  1.00  0.00     0.005 A 
HETATM   20  C   UNL     1      44.237 -12.954   8.565  1.00  0.00     0.029 A 
BRANCH  17  21
HETATM   21  O   UNL     1      48.112 -11.742   7.784  1.00  0.00    -0.361 OA
HETATM   22  H   UNL     1      48.470 -11.262   8.548  1.00  0.00     0.217 HD
ENDBRANCH  17  21
ENDBRANCH  12  15
ENDBRANCH   1  11
BRANCH   8  23
HETATM   23  C   UNL     1      43.416 -18.889   2.509  1.00  0.00     0.409 C 
HETATM   24  F   UNL     1      43.373 -19.384   3.767  1.00  0.00    -0.169 F 
HETATM   25  F   UNL     1      42.914 -19.856   1.696  1.00  0.00    -0.169 F 
HETATM   26  F   UNL     1      44.710 -18.740   2.158  1.00  0.00    -0.169 F 
ENDBRANCH   8  23
BRANCH   6  27
HETATM   27  C   UNL     1      40.423 -15.740   0.812  1.00  0.00    -0.035 A 
HETATM   28  C   UNL     1      41.162 -15.963  -0.364  1.00  0.00     0.012 A 
HETATM   29  C   UNL     1      41.330 -14.946  -1.308  1.00  0.00     0.043 A 
HETATM   30  C   UNL     1      40.760 -13.701  -1.086  1.00  0.00     0.116 A 
HETATM   31  F   UNL     1      40.928 -12.725  -1.987  1.00  0.00    -0.206 F 
HETATM   32  C   UNL     1      40.017 -13.453   0.060  1.00  0.00     0.043 A 
HETATM   33  C   UNL     1      39.847 -14.469   1.004  1.00  0.00     0.012 A 
ENDBRANCH   6  27
TORSDOF 5
ENDMDL
MODEL 6
REMARK VINA RESULT:      -8.6      3.446      8.433
REMARK  5 active torsions:
REMARK  status: ('A' for Active; 'I' for Inactive)
REMARK    1  A    between atoms: C_3  and  O_4 
REMARK    2  A    between atoms: C_6  and  N_7 
REMARK       I    between atoms: N_7  and  C_8 
REMARK    3  A    between atoms: C_8  and  C_9 
REMARK    4  A    between atoms: C_14  and  C_15 
REMARK    5  A    between atoms: C_23  and  C_24 
ROOT
HETATM    1  C   UNL     1      41.760 -16.278   1.916  1.00  0.00     0.148 A 
HETATM    2  N   UNL     1      40.914 -15.276   2.247  1.00  0.00    -0.165 NA
HETATM    3  N   UNL     1      40.949 -14.460   1.176  1.00  0.00    -0.240 N 
HETATM    4  C   UNL     1      41.729 -14.934   0.155  1.00  0.00     0.123 A 
HETATM    5  N   UNL     1      41.812 -14.294  -1.033  1.00  0.00    -0.366 N 
HETATM    6  C   UNL     1      40.914 -13.192  -1.366  1.00  0.00     0.118 C 
HETATM    7  C   UNL     1      40.550 -12.399  -0.104  1.00  0.00     0.066 C 
HETATM    8  C   UNL     1      40.083 -13.301   1.055  1.00  0.00     0.221 C 
HETATM    9  C   UNL     1      42.290 -16.096   0.612  1.00  0.00     0.089 A 
HETATM   10  H   UNL     1      42.237 -14.758  -1.833  1.00  0.00     0.161 HD
ENDROOT
BRANCH   1  11
HETATM   11  C   UNL     1      42.042 -17.402   2.830  1.00  0.00     0.276 C 
HETATM   12  N   UNL     1      43.149 -18.124   2.431  1.00  0.00    -0.322 N 
HETATM   13  H   UNL     1      43.568 -17.778   1.570  1.00  0.00     0.169 HD
HETATM   14  O   UNL     1      41.331 -17.621   3.804  1.00  0.00    -0.266 OA
BRANCH  12  15
HETATM   15  C   UNL     1      43.719 -19.255   3.039  1.00  0.00     0.037 A 
HETATM   16  C   UNL     1      43.901 -20.480   2.394  1.00  0.00     0.066 A 
HETATM   17  C   UNL     1      44.475 -21.550   3.078  1.00  0.00     0.067 A 
HETATM   18  C   UNL     1      44.881 -21.423   4.402  1.00  0.00     0.036 A 
HETATM   19  C   UNL     1      44.702 -20.204   5.052  1.00  0.00     0.005 A 
HETATM   20  C   UNL     1      44.120 -19.129   4.376  1.00  0.00     0.029 A 
BRANCH  17  21
HETATM   21  O   UNL     1      44.623 -22.729   2.405  1.00  0.00    -0.361 OA
HETATM   22  H   UNL     1      44.227 -23.441   2.932  1.00  0.00     0.217 HD
ENDBRANCH  17  21
ENDBRANCH  12  15
ENDBRANCH   1  11
BRANCH   8  23
HETATM   23  C   UNL     1      40.037 -12.494   2.335  1.00  0.00     0.409 C 
HETATM   24  F   UNL     1      39.534 -11.253   2.146  1.00  0.00    -0.169 F 
HETATM   25  F   UNL     1      39.224 -13.108   3.235  1.00  0.00    -0.169 F 
HETATM   26  F   UNL     1      41.239 -12.374   2.939  1.00  0.00    -0.169 F 
ENDBRANCH   8  23
BRANCH   6  27
HETATM   27  C   UNL     1      39.705 -13.645  -2.172  1.00  0.00    -0.035 A 
HETATM   28  C   UNL     1      38.511 -12.905  -2.247  1.00  0.00     0.012 A 
HETATM   29  C   UNL     1      37.424 -13.373  -2.991  1.00  0.00     0.043 A 
HETATM   30  C   UNL     1      37.524 -14.580  -3.668  1.00  0.00     0.116 A 
HETATM   31  F   UNL     1      36.479 -15.031  -4.374  1.00  0.00    -0.206 F 
HETATM   32  C   UNL     1      38.693 -15.328  -3.622  1.00  0.00     0.043 A 
HETATM   33  C   UNL     1      39.780 -14.861  -2.879  1.00  0.00     0.012 A 
ENDBRANCH   6  27
TORSDOF 5
ENDMDL
MODEL 7
REMARK VINA RESULT:      -8.5      4.273      8.749
REMARK  5 active torsions:
REMARK  status: ('A' for Active; 'I' for Inactive)
REMARK    1  A    between atoms: C_3  and  O_4 
REMARK    2  A    between atoms: C_6  and  N_7 
REMARK       I    between atoms: N_7  and  C_8 
REMARK    3  A    between atoms: C_8  and  C_9 
REMARK    4  A    between atoms: C_14  and  C_15 
REMARK    5  A    between atoms: C_23  and  C_24 
ROOT
HETATM    1  C   UNL     1      41.138 -15.839   1.155  1.00  0.00     0.148 A 
HETATM    2  N   UNL     1      41.425 -15.862  -0.167  1.00  0.00    -0.165 NA
HETATM    3  N   UNL     1      40.927 -14.697  -0.624  1.00  0.00    -0.240 N 
HETATM    4  C   UNL     1      40.395 -13.908   0.361  1.00  0.00     0.123 A 
HETATM    5  N   UNL     1      39.930 -12.665   0.104  1.00  0.00    -0.366 N 
HETATM    6  C   UNL     1      40.166 -12.018  -1.182  1.00  0.00     0.118 C 
HETATM    7  C   UNL     1      40.200 -13.060  -2.308  1.00  0.00     0.066 C 
HETATM    8  C   UNL     1      41.124 -14.252  -1.992  1.00  0.00     0.221 C 
HETATM    9  C   UNL     1      40.491 -14.630   1.521  1.00  0.00     0.089 A 
HETATM   10  H   UNL     1      39.720 -12.031   0.872  1.00  0.00     0.161 HD
ENDROOT
BRANCH   1  11
HETATM   11  C   UNL     1      41.494 -16.953   2.055  1.00  0.00     0.276 C 
HETATM   12  N   UNL     1      42.662 -17.577   1.664  1.00  0.00    -0.322 N 
HETATM   13  H   UNL     1      43.066 -17.184   0.817  1.00  0.00     0.169 HD
HETATM   14  O   UNL     1      40.787 -17.245   3.012  1.00  0.00    -0.266 OA
BRANCH  12  15
HETATM   15  C   UNL     1      43.310 -18.671   2.263  1.00  0.00     0.037 A 
HETATM   16  C   UNL     1      43.416 -19.932   1.676  1.00  0.00     0.066 A 
HETATM   17  C   UNL     1      44.078 -20.960   2.347  1.00  0.00     0.067 A 
HETATM   18  C   UNL     1      44.647 -20.753   3.599  1.00  0.00     0.036 A 
HETATM   19  C   UNL     1      44.544 -19.496   4.191  1.00  0.00     0.005 A 
HETATM   20  C   UNL     1      43.875 -18.463   3.529  1.00  0.00     0.029 A 
BRANCH  17  21
HETATM   21  O   UNL     1      44.147 -22.178   1.734  1.00  0.00    -0.361 OA
HETATM   22  H   UNL     1      43.890 -22.075   0.804  1.00  0.00     0.217 HD
ENDBRANCH  17  21
ENDBRANCH  12  15
ENDBRANCH   1  11
BRANCH   8  23
HETATM   23  C   UNL     1      40.874 -15.363  -2.988  1.00  0.00     0.409 C 
HETATM   24  F   UNL     1      40.154 -14.947  -4.056  1.00  0.00    -0.169 F 
HETATM   25  F   UNL     1      42.059 -15.818  -3.475  1.00  0.00    -0.169 F 
HETATM   26  F   UNL     1      40.252 -16.436  -2.454  1.00  0.00    -0.169 F 
ENDBRANCH   8  23
BRANCH   6  27
HETATM   27  C   UNL     1      41.382 -11.102  -1.163  1.00  0.00    -0.035 A 
HETATM   28  C   UNL     1      41.912 -10.554   0.020  1.00  0.00     0.012 A 
HETATM   29  C   UNL     1      43.023  -9.707  -0.018  1.00  0.00     0.043 A 
HETATM   30  C   UNL     1      43.615  -9.405  -1.237  1.00  0.00     0.116 A 
HETATM   31  F   UNL     1      44.675  -8.587  -1.273  1.00  0.00    -0.206 F 
HETATM   32  C   UNL     1      43.122  -9.939  -2.419  1.00  0.00     0.043 A 
HETATM   33  C   UNL     1      42.011 -10.786  -2.383  1.00  0.00     0.012 A 
ENDBRANCH   6  27
TORSDOF 5
ENDMDL
MODEL 8
REMARK VINA RESULT:      -8.5      2.772      3.746
REMARK  5 active torsions:
REMARK  status: ('A' for Active; 'I' for Inactive)
REMARK    1  A    between atoms: C_3  and  O_4 
REMARK    2  A    between atoms: C_6  and  N_7 
REMARK       I    between atoms: N_7  and  C_8 
REMARK    3  A    between atoms: C_8  and  C_9 
REMARK    4  A    between atoms: C_14  and  C_15 
REMARK    5  A    between atoms: C_23  and  C_24 
ROOT
HETATM    1  C   UNL     1      41.308 -13.908   1.757  1.00  0.00     0.148 A 
HETATM    2  N   UNL     1      42.325 -13.858   2.648  1.00  0.00    -0.165 NA
HETATM    3  N   UNL     1      42.149 -14.962   3.397  1.00  0.00    -0.240 N 
HETATM    4  C   UNL     1      41.104 -15.743   2.982  1.00  0.00     0.123 A 
HETATM    5  N   UNL     1      40.833 -16.935   3.558  1.00  0.00    -0.366 N 
HETATM    6  C   UNL     1      41.760 -17.551   4.501  1.00  0.00     0.118 C 
HETATM    7  C   UNL     1      42.499 -16.473   5.305  1.00  0.00     0.066 C 
HETATM    8  C   UNL     1      43.102 -15.370   4.414  1.00  0.00     0.221 C 
HETATM    9  C   UNL     1      40.521 -15.075   1.938  1.00  0.00     0.089 A 
HETATM   10  H   UNL     1      40.181 -17.580   3.114  1.00  0.00     0.161 HD
ENDROOT
BRANCH   1  11
HETATM   11  C   UNL     1      41.104 -12.860   0.739  1.00  0.00     0.276 C 
HETATM   12  N   UNL     1      42.156 -11.965   0.703  1.00  0.00    -0.322 N 
HETATM   13  H   UNL     1      42.877 -12.163   1.393  1.00  0.00     0.169 HD
HETATM   14  O   UNL     1      40.093 -12.835   0.047  1.00  0.00    -0.266 OA
BRANCH  12  15
HETATM   15  C   UNL     1      42.318 -10.841  -0.124  1.00  0.00     0.037 A 
HETATM   16  C   UNL     1      41.844  -9.566   0.190  1.00  0.00     0.066 A 
HETATM   17  C   UNL     1      42.050  -8.508  -0.694  1.00  0.00     0.067 A 
HETATM   18  C   UNL     1      42.731  -8.694  -1.892  1.00  0.00     0.036 A 
HETATM   19  C   UNL     1      43.205  -9.964  -2.212  1.00  0.00     0.005 A 
HETATM   20  C   UNL     1      42.995 -11.031  -1.336  1.00  0.00     0.029 A 
BRANCH  17  21
HETATM   21  O   UNL     1      41.560  -7.283  -0.344  1.00  0.00    -0.361 OA
HETATM   22  H   UNL     1      40.842  -7.405   0.298  1.00  0.00     0.217 HD
ENDBRANCH  17  21
ENDBRANCH  12  15
ENDBRANCH   1  11
BRANCH   8  23
HETATM   23  C   UNL     1      43.539 -14.206   5.278  1.00  0.00     0.409 C 
HETATM   24  F   UNL     1      43.990 -14.603   6.490  1.00  0.00    -0.169 F 
HETATM   25  F   UNL     1      44.569 -13.552   4.678  1.00  0.00    -0.169 F 
HETATM   26  F   UNL     1      42.572 -13.285   5.469  1.00  0.00    -0.169 F 
ENDBRANCH   8  23
BRANCH   6  27
HETATM   27  C   UNL     1      42.687 -18.559   3.837  1.00  0.00    -0.035 A 
HETATM   28  C   UNL     1      42.605 -18.896   2.474  1.00  0.00     0.012 A 
HETATM   29  C   UNL     1      43.473 -19.840   1.916  1.00  0.00     0.043 A 
HETATM   30  C   UNL     1      44.430 -20.449   2.714  1.00  0.00     0.116 A 
HETATM   31  F   UNL     1      45.256 -21.359   2.180  1.00  0.00    -0.206 F 
HETATM   32  C   UNL     1      44.543 -20.130   4.060  1.00  0.00     0.043 A 
HETATM   33  C   UNL     1      43.677 -19.186   4.619  1.00  0.00     0.012 A 
ENDBRANCH   6  27
TORSDOF 5
ENDMDL
MODEL 9
REMARK VINA RESULT:      -8.3      3.804      8.296
REMARK  5 active torsions:
REMARK  status: ('A' for Active; 'I' for Inactive)
REMARK    1  A    between atoms: C_3  and  O_4 
REMARK    2  A    between atoms: C_6  and  N_7 
REMARK       I    between atoms: N_7  and  C_8 
REMARK    3  A    between atoms: C_8  and  C_9 
REMARK    4  A    between atoms: C_14  and  C_15 
REMARK    5  A    between atoms: C_23  and  C_24 
ROOT
HETATM    1  C   UNL     1      42.893 -16.230   3.689  1.00  0.00     0.148 A 
HETATM    2  N   UNL     1      41.738 -15.792   4.241  1.00  0.00    -0.165 NA
HETATM    3  N   UNL     1      41.528 -14.603   3.646  1.00  0.00    -0.240 N 
HETATM    4  C   UNL     1      42.465 -14.297   2.695  1.00  0.00     0.123 A 
HETATM    5  N   UNL     1      42.366 -13.186   1.931  1.00  0.00    -0.366 N 
HETATM    6  C   UNL     1      41.154 -12.372   1.927  1.00  0.00     0.118 C 
HETATM    7  C   UNL     1      40.486 -12.402   3.308  1.00  0.00     0.066 C 
HETATM    8  C   UNL     1      40.317 -13.830   3.860  1.00  0.00     0.221 C 
HETATM    9  C   UNL     1      43.378 -15.317   2.716  1.00  0.00     0.089 A 
HETATM   10  H   UNL     1      42.958 -13.078   1.110  1.00  0.00     0.161 HD
ENDROOT
BRANCH   1  11
HETATM   11  C   UNL     1      43.513 -17.511   4.078  1.00  0.00     0.276 C 
HETATM   12  N   UNL     1      43.364 -18.472   3.098  1.00  0.00    -0.322 N 
HETATM   13  H   UNL     1      42.838 -18.147   2.290  1.00  0.00     0.169 HD
HETATM   14  O   UNL     1      44.069 -17.644   5.162  1.00  0.00    -0.266 OA
BRANCH  12  15
HETATM   15  C   UNL     1      43.813 -19.804   3.106  1.00  0.00     0.037 A 
HETATM   16  C   UNL     1      44.416 -20.417   4.205  1.00  0.00     0.066 A 
HETATM   17  C   UNL     1      44.832 -21.745   4.122  1.00  0.00     0.067 A 
HETATM   18  C   UNL     1      44.651 -22.484   2.957  1.00  0.00     0.036 A 
HETATM   19  C   UNL     1      44.050 -21.878   1.856  1.00  0.00     0.005 A 
HETATM   20  C   UNL     1      43.638 -20.545   1.929  1.00  0.00     0.029 A 
BRANCH  17  21
HETATM   21  O   UNL     1      45.425 -22.296   5.221  1.00  0.00    -0.361 OA
HETATM   22  H   UNL     1      45.974 -23.044   4.938  1.00  0.00     0.217 HD
ENDBRANCH  17  21
ENDBRANCH  12  15
ENDBRANCH   1  11
BRANCH   8  23
HETATM   23  C   UNL     1      39.942 -13.764   5.325  1.00  0.00     0.409 C 
HETATM   24  F   UNL     1      39.514 -14.955   5.803  1.00  0.00    -0.169 F 
HETATM   25  F   UNL     1      41.032 -13.422   6.062  1.00  0.00    -0.169 F 
HETATM   26  F   UNL     1      39.000 -12.837   5.598  1.00  0.00    -0.169 F 
ENDBRANCH   8  23
BRANCH   6  27
HETATM   27  C   UNL     1      40.213 -12.729   0.786  1.00  0.00    -0.035 A 
HETATM   28  C   UNL     1      40.617 -13.468  -0.341  1.00  0.00     0.012 A 
HETATM   29  C   UNL     1      39.715 -13.758  -1.369  1.00  0.00     0.043 A 
HETATM   30  C   UNL     1      38.403 -13.316  -1.276  1.00  0.00     0.116 A 
HETATM   31  F   UNL     1      37.542 -13.587  -2.265  1.00  0.00    -0.206 F 
HETATM   32  C   UNL     1      37.971 -12.595  -0.172  1.00  0.00     0.043 A 
HETATM   33  C   UNL     1      38.872 -12.305   0.857  1.00  0.00     0.012 A 
ENDBRANCH   6  27
TORSDOF 5
ENDMDL
MODEL 10
REMARK VINA RESULT:      -8.3      2.876      3.208
REMARK  5 active torsions:
REMARK  status: ('A' for Active; 'I' for Inactive)
REMARK    1  A    between atoms: C_3  and  O_4 
REMARK    2  A    between atoms: C_6  and  N_7 
REMARK       I    between atoms: N_7  and  C_8 
REMARK    3  A    between atoms: C_8  and  C_9 
REMARK    4  A    between atoms: C_14  and  C_15 
REMARK    5  A    between atoms: C_23  and  C_24 
ROOT
HETATM    1  C   UNL     1      41.307 -14.601  -1.118  1.00  0.00     0.148 A 
HETATM    2  N   UNL     1      41.843 -14.028  -0.016  1.00  0.00    -0.165 NA
HETATM    3  N   UNL     1      41.472 -14.849   0.985  1.00  0.00    -0.240 N 
HETATM    4  C   UNL     1      40.780 -15.952   0.558  1.00  0.00     0.123 A 
HETATM    5  N   UNL     1      40.406 -16.931   1.411  1.00  0.00    -0.366 N 
HETATM    6  C   UNL     1      40.903 -16.975   2.782  1.00  0.00     0.118 C 
HETATM    7  C   UNL     1      41.126 -15.553   3.315  1.00  0.00     0.066 C 
HETATM    8  C   UNL     1      41.941 -14.673   2.348  1.00  0.00     0.221 C 
HETATM    9  C   UNL     1      40.632 -15.808  -0.796  1.00  0.00     0.089 A 
HETATM   10  H   UNL     1      40.068 -17.821   1.048  1.00  0.00     0.161 HD
ENDROOT
BRANCH   1  11
HETATM   11  C   UNL     1      41.453 -14.008  -2.461  1.00  0.00     0.276 C 
HETATM   12  N   UNL     1      41.186 -12.653  -2.457  1.00  0.00    -0.322 N 
HETATM   13  H   UNL     1      40.915 -12.298  -1.543  1.00  0.00     0.169 HD
HETATM   14  O   UNL     1      41.765 -14.694  -3.427  1.00  0.00    -0.266 OA
BRANCH  12  15
HETATM   15  C   UNL     1      41.217 -11.754  -3.537  1.00  0.00     0.037 A 
HETATM   16  C   UNL     1      40.111 -11.454  -4.333  1.00  0.00     0.066 A 
HETATM   17  C   UNL     1      40.235 -10.549  -5.386  1.00  0.00     0.067 A 
HETATM   18  C   UNL     1      41.448  -9.926  -5.660  1.00  0.00     0.036 A 
HETATM   19  C   UNL     1      42.556 -10.221  -4.869  1.00  0.00     0.005 A 
HETATM   20  C   UNL     1      42.442 -11.134  -3.817  1.00  0.00     0.029 A 
BRANCH  17  21
HETATM   21  O   UNL     1      39.126 -10.296  -6.141  1.00  0.00    -0.361 OA
HETATM   22  H   UNL     1      39.279 -10.626  -7.041  1.00  0.00     0.217 HD
ENDBRANCH  17  21
ENDBRANCH  12  15
ENDBRANCH   1  11
BRANCH   8  23
HETATM   23  C   UNL     1      41.859 -13.228   2.790  1.00  0.00     0.409 C 
HETATM   24  F   UNL     1      42.232 -13.060   4.080  1.00  0.00    -0.169 F 
HETATM   25  F   UNL     1      42.705 -12.471   2.041  1.00  0.00    -0.169 F 
HETATM   26  F   UNL     1      40.633 -12.685   2.633  1.00  0.00    -0.169 F 
ENDBRANCH   8  23
BRANCH   6  27
HETATM   27  C   UNL     1      42.115 -17.882   2.938  1.00  0.00    -0.035 A 
HETATM   28  C   UNL     1      42.623 -18.671   1.890  1.00  0.00     0.012 A 
HETATM   29  C   UNL     1      43.732 -19.498   2.089  1.00  0.00     0.043 A 
HETATM   30  C   UNL     1      44.343 -19.540   3.335  1.00  0.00     0.116 A 
HETATM   31  F   UNL     1      45.400 -20.339   3.527  1.00  0.00    -0.206 F 
HETATM   32  C   UNL     1      43.871 -18.765   4.385  1.00  0.00     0.043 A 
HETATM   33  C   UNL     1      42.763 -17.937   4.187  1.00  0.00     0.012 A 
ENDBRANCH   6  27
TORSDOF 5
ENDMDL
