MODEL 1
REMARK VINA RESULT:      -9.0      0.000      0.000
REMARK  5 active torsions:
REMARK  status: ('A' for Active; 'I' for Inactive)
REMARK    1  A    between atoms: C_2  and  N_3 
REMARK    2  A    between atoms: C_2  and  C_14 
REMARK       I    between atoms: N_3  and  C_4 
REMARK       I    between atoms: C_4  and  N_5 
REMARK    3  A    between atoms: N_5  and  C_6 
REMARK    4  A    between atoms: C_6  and  C_7 
REMARK    5  A    between atoms: C_16  and  C_17 
ROOT
HETATM    1  C   UNL     1      46.539 -12.425   7.741  1.00  0.00     0.041 C 
HETATM    2  C   UNL     1      45.295 -13.211   8.149  1.00  0.00     0.153 C 
ENDROOT
BRANCH   2   3
HETATM    3  N   UNL     1      44.559 -13.669   6.988  1.00  0.00    -0.332 N 
HETATM    4  C   UNL     1      44.057 -14.937   6.929  1.00  0.00     0.317 C 
HETATM    5  N   UNL     1      43.538 -15.228   5.701  1.00  0.00    -0.339 N 
HETATM    6  O   UNL     1      44.081 -15.718   7.872  1.00  0.00    -0.247 OA
HETATM    7  H   UNL     1      43.226 -14.446   5.145  1.00  0.00     0.164 HD
HETATM    8  H   UNL     1      44.750 -13.189   6.119  1.00  0.00     0.165 HD
BRANCH   5   9
HETATM    9  C   UNL     1      42.868 -16.489   5.479  1.00  0.00     0.162 C 
BRANCH   9  10
HETATM   10  C   UNL     1      43.264 -17.089   4.156  1.00  0.00    -0.040 A 
HETATM   11  C   UNL     1      43.417 -18.479   4.033  1.00  0.00     0.009 A 
HETATM   12  C   UNL     1      43.768 -19.049   2.809  1.00  0.00     0.001 A 
HETATM   13  C   UNL     1      43.971 -18.236   1.696  1.00  0.00     0.000 A 
HETATM   14  C   UNL     1      43.827 -16.854   1.805  1.00  0.00     0.001 A 
HETATM   15  C   UNL     1      43.476 -16.281   3.031  1.00  0.00     0.009 A 
ENDBRANCH   9  10
ENDBRANCH   5   9
ENDBRANCH   2   3
BRANCH   2  16
HETATM   16  C   UNL     1      44.375 -12.360   8.960  1.00  0.00     0.145 A 
HETATM   17  N   UNL     1      44.354 -12.180  10.266  1.00  0.00    -0.210 NA
HETATM   18  C   UNL     1      43.306 -11.303  10.460  1.00  0.00     0.181 A 
HETATM   19  N   UNL     1      42.683 -10.948   9.324  1.00  0.00    -0.152 NA
HETATM   20  N   UNL     1      43.381 -11.617   8.397  1.00  0.00    -0.261 N 
HETATM   21  H   UNL     1      43.128 -11.522   7.420  1.00  0.00     0.190 HD
BRANCH  18  22
HETATM   22  C   UNL     1      42.927 -10.815  11.783  1.00  0.00     0.014 A 
HETATM   23  C   UNL     1      41.741 -11.257  12.389  1.00  0.00     0.017 A 
HETATM   24  C   UNL     1      41.377 -10.799  13.660  1.00  0.00     0.025 A 
HETATM   25  C   UNL     1      42.196  -9.897  14.333  1.00  0.00     0.034 A 
HETATM   26 CL   UNL     1      41.751  -9.336  15.897  1.00  0.00    -0.084 Cl
HETATM   27  C   UNL     1      43.377  -9.445  13.746  1.00  0.00     0.025 A 
HETATM   28  C   UNL     1      43.740  -9.903  12.476  1.00  0.00     0.017 A 
ENDBRANCH  18  22
ENDBRANCH   2  16
TORSDOF 5
ENDMDL
MODEL 2
REMARK VINA RESULT:      -8.5      3.984     10.127
REMARK  5 active torsions:
REMARK  status: ('A' for Active; 'I' for Inactive)
REMARK    1  A    between atoms: C_2  and  N_3 
REMARK    2  A    between atoms: C_2  and  C_14 
REMARK       I    between atoms: N_3  and  C_4 
REMARK       I    between atoms: C_4  and  N_5 
REMARK    3  A    between atoms: N_5  and  C_6 
REMARK    4  A    between atoms: C_6  and  C_7 
REMARK    5  A    between atoms: C_16  and  C_17 
ROOT
HETATM    1  C   UNL     1      46.118 -13.193   7.119  1.00  0.00     0.041 C 
HETATM    2  C   UNL     1      44.641 -13.447   7.413  1.00  0.00     0.153 C 
ENDROOT
BRANCH   2   3
HETATM    3  N   UNL     1      44.332 -13.194   8.806  1.00  0.00    -0.332 N 
HETATM    4  C   UNL     1      44.576 -11.974   9.369  1.00  0.00     0.317 C 
HETATM    5  N   UNL     1      44.368 -11.980  10.718  1.00  0.00    -0.339 N 
HETATM    6  O   UNL     1      44.947 -10.997   8.732  1.00  0.00    -0.247 OA
HETATM    7  H   UNL     1      43.728 -12.674  11.073  1.00  0.00     0.164 HD
HETATM    8  H   UNL     1      44.297 -14.003   9.411  1.00  0.00     0.165 HD
BRANCH   5   9
HETATM    9  C   UNL     1      44.477 -10.753  11.472  1.00  0.00     0.162 C 
BRANCH   9  10
HETATM   10  C   UNL     1      43.314 -10.589  12.414  1.00  0.00    -0.040 A 
HETATM   11  C   UNL     1      42.121 -11.294  12.187  1.00  0.00     0.009 A 
HETATM   12  C   UNL     1      41.042 -11.163  13.061  1.00  0.00     0.001 A 
HETATM   13  C   UNL     1      41.142 -10.326  14.170  1.00  0.00     0.000 A 
HETATM   14  C   UNL     1      42.319  -9.616  14.405  1.00  0.00     0.001 A 
HETATM   15  C   UNL     1      43.401  -9.745  13.530  1.00  0.00     0.009 A 
ENDBRANCH   9  10
ENDBRANCH   5   9
ENDBRANCH   2   3
BRANCH   2  16
HETATM   16  C   UNL     1      44.282 -14.865   7.121  1.00  0.00     0.145 A 
HETATM   17  N   UNL     1      44.589 -15.594   6.066  1.00  0.00    -0.210 NA
HETATM   18  C   UNL     1      44.000 -16.815   6.327  1.00  0.00     0.181 A 
HETATM   19  N   UNL     1      43.339 -16.855   7.496  1.00  0.00    -0.152 NA
HETATM   20  N   UNL     1      43.541 -15.622   7.978  1.00  0.00    -0.261 N 
HETATM   21  H   UNL     1      43.151 -15.372   8.880  1.00  0.00     0.190 HD
BRANCH  18  22
HETATM   22  C   UNL     1      44.099 -17.946   5.408  1.00  0.00     0.014 A 
HETATM   23  C   UNL     1      44.644 -19.165   5.838  1.00  0.00     0.017 A 
HETATM   24  C   UNL     1      44.733 -20.253   4.964  1.00  0.00     0.025 A 
HETATM   25  C   UNL     1      44.278 -20.129   3.653  1.00  0.00     0.034 A 
HETATM   26 CL   UNL     1      44.385 -21.468   2.579  1.00  0.00    -0.084 Cl
HETATM   27  C   UNL     1      43.736 -18.925   3.208  1.00  0.00     0.025 A 
HETATM   28  C   UNL     1      43.646 -17.838   4.083  1.00  0.00     0.017 A 
ENDBRANCH  18  22
ENDBRANCH   2  16
TORSDOF 5
ENDMDL
MODEL 3
REMARK VINA RESULT:      -8.5      4.409     10.232
REMARK  5 active torsions:
REMARK  status: ('A' for Active; 'I' for Inactive)
REMARK    1  A    between atoms: C_2  and  N_3 
REMARK    2  A    between atoms: C_2  and  C_14 
REMARK       I    between atoms: N_3  and  C_4 
REMARK       I    between atoms: C_4  and  N_5 
REMARK    3  A    between atoms: N_5  and  C_6 
REMARK    4  A    between atoms: C_6  and  C_7 
REMARK    5  A    between atoms: C_16  and  C_17 
ROOT
HETATM    1  C   UNL     1      42.493 -12.886   4.050  1.00  0.00     0.041 C 
HETATM    2  C   UNL     1      42.008 -13.574   5.324  1.00  0.00     0.153 C 
ENDROOT
BRANCH   2   3
HETATM    3  N   UNL     1      42.527 -12.915   6.506  1.00  0.00    -0.332 N 
HETATM    4  C   UNL     1      41.859 -11.871   7.079  1.00  0.00     0.317 C 
HETATM    5  N   UNL     1      42.580 -11.286   8.079  1.00  0.00    -0.339 N 
HETATM    6  O   UNL     1      40.746 -11.505   6.724  1.00  0.00    -0.247 OA
HETATM    7  H   UNL     1      43.271 -11.863   8.535  1.00  0.00     0.164 HD
HETATM    8  H   UNL     1      43.524 -12.986   6.657  1.00  0.00     0.165 HD
BRANCH   5   9
HETATM    9  C   UNL     1      41.993 -10.230   8.871  1.00  0.00     0.162 C 
BRANCH   9  10
HETATM   10  C   UNL     1      42.280 -10.426  10.336  1.00  0.00    -0.040 A 
HETATM   11  C   UNL     1      43.509 -10.010  10.872  1.00  0.00     0.009 A 
HETATM   12  C   UNL     1      43.782 -10.172  12.231  1.00  0.00     0.001 A 
HETATM   13  C   UNL     1      42.830 -10.752  13.067  1.00  0.00     0.000 A 
HETATM   14  C   UNL     1      41.608 -11.174  12.546  1.00  0.00     0.001 A 
HETATM   15  C   UNL     1      41.334 -11.014  11.186  1.00  0.00     0.009 A 
ENDBRANCH   9  10
ENDBRANCH   5   9
ENDBRANCH   2   3
BRANCH   2  16
HETATM   16  C   UNL     1      42.462 -14.995   5.363  1.00  0.00     0.145 A 
HETATM   17  N   UNL     1      42.688 -15.817   4.357  1.00  0.00    -0.210 NA
HETATM   18  C   UNL     1      43.082 -16.988   4.972  1.00  0.00     0.181 A 
HETATM   19  N   UNL     1      43.098 -16.914   6.313  1.00  0.00    -0.152 NA
HETATM   20  N   UNL     1      42.715 -15.649   6.531  1.00  0.00    -0.261 N 
HETATM   21  H   UNL     1      42.649 -15.307   7.484  1.00  0.00     0.190 HD
BRANCH  18  22
HETATM   22  C   UNL     1      43.446 -18.185   4.218  1.00  0.00     0.014 A 
HETATM   23  C   UNL     1      42.943 -18.390   2.924  1.00  0.00     0.017 A 
HETATM   24  C   UNL     1      43.295 -19.530   2.195  1.00  0.00     0.025 A 
HETATM   25  C   UNL     1      44.153 -20.473   2.755  1.00  0.00     0.034 A 
HETATM   26 CL   UNL     1      44.589 -21.875   1.857  1.00  0.00    -0.084 Cl
HETATM   27  C   UNL     1      44.661 -20.288   4.039  1.00  0.00     0.025 A 
HETATM   28  C   UNL     1      44.308 -19.148   4.767  1.00  0.00     0.017 A 
ENDBRANCH  18  22
ENDBRANCH   2  16
TORSDOF 5
ENDMDL
MODEL 4
REMARK VINA RESULT:      -8.3      8.348     11.172
REMARK  5 active torsions:
REMARK  status: ('A' for Active; 'I' for Inactive)
REMARK    1  A    between atoms: C_2  and  N_3 
REMARK    2  A    between atoms: C_2  and  C_14 
REMARK       I    between atoms: N_3  and  C_4 
REMARK       I    between atoms: C_4  and  N_5 
REMARK    3  A    between atoms: N_5  and  C_6 
REMARK    4  A    between atoms: C_6  and  C_7 
REMARK    5  A    between atoms: C_16  and  C_17 
ROOT
HETATM    1  C   UNL     1      40.220 -15.023   3.014  1.00  0.00     0.041 C 
HETATM    2  C   UNL     1      41.021 -15.071   1.715  1.00  0.00     0.153 C 
ENDROOT
BRANCH   2   3
HETATM    3  N   UNL     1      40.151 -15.249   0.569  1.00  0.00    -0.332 N 
HETATM    4  C   UNL     1      40.431 -14.648  -0.625  1.00  0.00     0.317 C 
HETATM    5  N   UNL     1      39.419 -14.805  -1.528  1.00  0.00    -0.339 N 
HETATM    6  O   UNL     1      41.467 -14.036  -0.847  1.00  0.00    -0.247 OA
HETATM    7  H   UNL     1      38.818 -15.605  -1.399  1.00  0.00     0.164 HD
HETATM    8  H   UNL     1      39.191 -15.493   0.770  1.00  0.00     0.165 HD
BRANCH   5   9
HETATM    9  C   UNL     1      39.578 -14.326  -2.881  1.00  0.00     0.162 C 
BRANCH   9  10
HETATM   10  C   UNL     1      38.261 -13.878  -3.457  1.00  0.00    -0.040 A 
HETATM   11  C   UNL     1      37.921 -12.516  -3.456  1.00  0.00     0.009 A 
HETATM   12  C   UNL     1      36.711 -12.086  -4.000  1.00  0.00     0.001 A 
HETATM   13  C   UNL     1      35.827 -13.012  -4.550  1.00  0.00     0.000 A 
HETATM   14  C   UNL     1      36.150 -14.368  -4.552  1.00  0.00     0.001 A 
HETATM   15  C   UNL     1      37.361 -14.801  -4.007  1.00  0.00     0.009 A 
ENDBRANCH   9  10
ENDBRANCH   5   9
ENDBRANCH   2   3
BRANCH   2  16
HETATM   16  C   UNL     1      41.985 -16.209   1.731  1.00  0.00     0.145 A 
HETATM   17  N   UNL     1      42.207 -17.089   2.687  1.00  0.00    -0.210 NA
HETATM   18  C   UNL     1      43.193 -17.901   2.164  1.00  0.00     0.181 A 
HETATM   19  N   UNL     1      43.586 -17.545   0.930  1.00  0.00    -0.152 NA
HETATM   20  N   UNL     1      42.804 -16.487   0.678  1.00  0.00    -0.261 N 
HETATM   21  H   UNL     1      42.882 -16.013  -0.215  1.00  0.00     0.190 HD
BRANCH  18  22
HETATM   22  C   UNL     1      43.744 -19.037   2.898  1.00  0.00     0.014 A 
HETATM   23  C   UNL     1      44.135 -18.895   4.239  1.00  0.00     0.017 A 
HETATM   24  C   UNL     1      44.655 -19.982   4.948  1.00  0.00     0.025 A 
HETATM   25  C   UNL     1      44.789 -21.218   4.322  1.00  0.00     0.034 A 
HETATM   26 CL   UNL     1      45.427 -22.556   5.196  1.00  0.00    -0.084 Cl
HETATM   27  C   UNL     1      44.408 -21.378   2.991  1.00  0.00     0.025 A 
HETATM   28  C   UNL     1      43.888 -20.291   2.283  1.00  0.00     0.017 A 
ENDBRANCH  18  22
ENDBRANCH   2  16
TORSDOF 5
ENDMDL
MODEL 5
REMARK VINA RESULT:      -8.3      4.509     10.119
REMARK  5 active torsions:
REMARK  status: ('A' for Active; 'I' for Inactive)
REMARK    1  A    between atoms: C_2  and  N_3 
REMARK    2  A    between atoms: C_2  and  C_14 
REMARK       I    between atoms: N_3  and  C_4 
REMARK       I    between atoms: C_4  and  N_5 
REMARK    3  A    between atoms: N_5  and  C_6 
REMARK    4  A    between atoms: C_6  and  C_7 
REMARK    5  A    between atoms: C_16  and  C_17 
ROOT
HETATM    1  C   UNL     1      40.377 -12.652   4.114  1.00  0.00     0.041 C 
HETATM    2  C   UNL     1      40.145 -13.325   5.465  1.00  0.00     0.153 C 
ENDROOT
BRANCH   2   3
HETATM    3  N   UNL     1      40.916 -12.682   6.510  1.00  0.00    -0.332 N 
HETATM    4  C   UNL     1      40.370 -11.696   7.281  1.00  0.00     0.317 C 
HETATM    5  N   UNL     1      41.295 -11.110   8.097  1.00  0.00    -0.339 N 
HETATM    6  O   UNL     1      39.190 -11.376   7.234  1.00  0.00    -0.247 OA
HETATM    7  H   UNL     1      42.102 -11.666   8.337  1.00  0.00     0.164 HD
HETATM    8  H   UNL     1      41.921 -12.706   6.404  1.00  0.00     0.165 HD
BRANCH   5   9
HETATM    9  C   UNL     1      40.883 -10.116   9.060  1.00  0.00     0.162 C 
BRANCH   9  10
HETATM   10  C   UNL     1      41.854 -10.035  10.208  1.00  0.00    -0.040 A 
HETATM   11  C   UNL     1      42.879 -10.987  10.328  1.00  0.00     0.009 A 
HETATM   12  C   UNL     1      43.794 -10.915  11.378  1.00  0.00     0.001 A 
HETATM   13  C   UNL     1      43.694  -9.893  12.320  1.00  0.00     0.000 A 
HETATM   14  C   UNL     1      42.678  -8.945  12.214  1.00  0.00     0.001 A 
HETATM   15  C   UNL     1      41.760  -9.016  11.164  1.00  0.00     0.009 A 
ENDBRANCH   9  10
ENDBRANCH   5   9
ENDBRANCH   2   3
BRANCH   2  16
HETATM   16  C   UNL     1      40.553 -14.759   5.419  1.00  0.00     0.145 A 
HETATM   17  N   UNL     1      41.445 -15.338   4.640  1.00  0.00    -0.210 NA
HETATM   18  C   UNL     1      41.410 -16.662   5.027  1.00  0.00     0.181 A 
HETATM   19  N   UNL     1      40.525 -16.913   6.006  1.00  0.00    -0.152 NA
HETATM   20  N   UNL     1      40.010 -15.700   6.241  1.00  0.00    -0.261 N 
HETATM   21  H   UNL     1      39.305 -15.591   6.961  1.00  0.00     0.190 HD
BRANCH  18  22
HETATM   22  C   UNL     1      42.263 -17.680   4.419  1.00  0.00     0.014 A 
HETATM   23  C   UNL     1      42.260 -17.871   3.029  1.00  0.00     0.017 A 
HETATM   24  C   UNL     1      43.081 -18.838   2.441  1.00  0.00     0.025 A 
HETATM   25  C   UNL     1      43.911 -19.622   3.239  1.00  0.00     0.034 A 
HETATM   26 CL   UNL     1      44.923 -20.810   2.516  1.00  0.00    -0.084 Cl
HETATM   27  C   UNL     1      43.926 -19.447   4.621  1.00  0.00     0.025 A 
HETATM   28  C   UNL     1      43.105 -18.480   5.209  1.00  0.00     0.017 A 
ENDBRANCH  18  22
ENDBRANCH   2  16
TORSDOF 5
ENDMDL
MODEL 6
REMARK VINA RESULT:      -8.3      8.644     10.903
REMARK  5 active torsions:
REMARK  status: ('A' for Active; 'I' for Inactive)
REMARK    1  A    between atoms: C_2  and  N_3 
REMARK    2  A    between atoms: C_2  and  C_14 
REMARK       I    between atoms: N_3  and  C_4 
REMARK       I    between atoms: C_4  and  N_5 
REMARK    3  A    between atoms: N_5  and  C_6 
REMARK    4  A    between atoms: C_6  and  C_7 
REMARK    5  A    between atoms: C_16  and  C_17 
ROOT
HETATM    1  C   UNL     1      39.887 -15.241   1.827  1.00  0.00     0.041 C 
HETATM    2  C   UNL     1      41.373 -14.914   1.690  1.00  0.00     0.153 C 
ENDROOT
BRANCH   2   3
HETATM    3  N   UNL     1      41.642 -14.208   0.453  1.00  0.00    -0.332 N 
HETATM    4  C   UNL     1      42.109 -12.925   0.463  1.00  0.00     0.317 C 
HETATM    5  N   UNL     1      42.149 -12.383  -0.789  1.00  0.00    -0.339 N 
HETATM    6  O   UNL     1      42.442 -12.335   1.483  1.00  0.00    -0.247 OA
HETATM    7  H   UNL     1      42.225 -13.029  -1.559  1.00  0.00     0.164 HD
HETATM    8  H   UNL     1      41.141 -14.529  -0.364  1.00  0.00     0.165 HD
BRANCH   5   9
HETATM    9  C   UNL     1      42.712 -11.067  -0.989  1.00  0.00     0.162 C 
BRANCH   9  10
HETATM   10  C   UNL     1      42.597 -10.641  -2.428  1.00  0.00    -0.040 A 
HETATM   11  C   UNL     1      42.477 -11.607  -3.440  1.00  0.00     0.009 A 
HETATM   12  C   UNL     1      42.354 -11.224  -4.776  1.00  0.00     0.001 A 
HETATM   13  C   UNL     1      42.352  -9.873  -5.115  1.00  0.00     0.000 A 
HETATM   14  C   UNL     1      42.475  -8.904  -4.121  1.00  0.00     0.001 A 
HETATM   15  C   UNL     1      42.599  -9.285  -2.783  1.00  0.00     0.009 A 
ENDBRANCH   9  10
ENDBRANCH   5   9
ENDBRANCH   2   3
BRANCH   2  16
HETATM   16  C   UNL     1      42.190 -16.161   1.685  1.00  0.00     0.145 A 
HETATM   17  N   UNL     1      42.450 -16.981   2.684  1.00  0.00    -0.210 NA
HETATM   18  C   UNL     1      43.245 -17.955   2.113  1.00  0.00     0.181 A 
HETATM   19  N   UNL     1      43.486 -17.755   0.806  1.00  0.00    -0.152 NA
HETATM   20  N   UNL     1      42.803 -16.630   0.562  1.00  0.00    -0.261 N 
HETATM   21  H   UNL     1      42.800 -16.244  -0.377  1.00  0.00     0.190 HD
BRANCH  18  22
HETATM   22  C   UNL     1      43.765 -19.088   2.873  1.00  0.00     0.014 A 
HETATM   23  C   UNL     1      43.986 -20.323   2.245  1.00  0.00     0.017 A 
HETATM   24  C   UNL     1      44.491 -21.410   2.966  1.00  0.00     0.025 A 
HETATM   25  C   UNL     1      44.778 -21.268   4.321  1.00  0.00     0.034 A 
HETATM   26 CL   UNL     1      45.403 -22.603   5.209  1.00  0.00    -0.084 Cl
HETATM   27  C   UNL     1      44.564 -20.050   4.963  1.00  0.00     0.025 A 
HETATM   28  C   UNL     1      44.059 -18.964   4.241  1.00  0.00     0.017 A 
ENDBRANCH  18  22
ENDBRANCH   2  16
TORSDOF 5
ENDMDL
MODEL 7
REMARK VINA RESULT:      -8.2      6.619      9.471
REMARK  5 active torsions:
REMARK  status: ('A' for Active; 'I' for Inactive)
REMARK    1  A    between atoms: C_2  and  N_3 
REMARK    2  A    between atoms: C_2  and  C_14 
REMARK       I    between atoms: N_3  and  C_4 
REMARK       I    between atoms: C_4  and  N_5 
REMARK    3  A    between atoms: N_5  and  C_6 
REMARK    4  A    between atoms: C_6  and  C_7 
REMARK    5  A    between atoms: C_16  and  C_17 
ROOT
HETATM    1  C   UNL     1      42.901 -13.835   5.647  1.00  0.00     0.041 C 
HETATM    2  C   UNL     1      42.282 -15.171   5.240  1.00  0.00     0.153 C 
ENDROOT
BRANCH   2   3
HETATM    3  N   UNL     1      43.303 -16.130   4.869  1.00  0.00    -0.332 N 
HETATM    4  C   UNL     1      43.357 -17.361   5.456  1.00  0.00     0.317 C 
HETATM    5  N   UNL     1      44.474 -18.056   5.091  1.00  0.00    -0.339 N 
HETATM    6  O   UNL     1      42.502 -17.782   6.225  1.00  0.00    -0.247 OA
HETATM    7  H   UNL     1      44.892 -17.808   4.208  1.00  0.00     0.164 HD
HETATM    8  H   UNL     1      44.152 -15.750   4.474  1.00  0.00     0.165 HD
BRANCH   5   9
HETATM    9  C   UNL     1      44.653 -19.420   5.532  1.00  0.00     0.162 C 
BRANCH   9  10
HETATM   10  C   UNL     1      44.529 -20.384   4.381  1.00  0.00    -0.040 A 
HETATM   11  C   UNL     1      44.143 -19.918   3.114  1.00  0.00     0.009 A 
HETATM   12  C   UNL     1      44.040 -20.797   2.036  1.00  0.00     0.001 A 
HETATM   13  C   UNL     1      44.319 -22.150   2.212  1.00  0.00     0.000 A 
HETATM   14  C   UNL     1      44.698 -22.627   3.466  1.00  0.00     0.001 A 
HETATM   15  C   UNL     1      44.801 -21.748   4.548  1.00  0.00     0.009 A 
ENDBRANCH   9  10
ENDBRANCH   5   9
ENDBRANCH   2   3
BRANCH   2  16
HETATM   16  C   UNL     1      41.376 -14.998   4.068  1.00  0.00     0.145 A 
HETATM   17  N   UNL     1      41.675 -15.015   2.784  1.00  0.00    -0.210 NA
HETATM   18  C   UNL     1      40.461 -14.805   2.161  1.00  0.00     0.181 A 
HETATM   19  N   UNL     1      39.436 -14.654   3.016  1.00  0.00    -0.152 NA
HETATM   20  N   UNL     1      40.036 -14.790   4.205  1.00  0.00    -0.261 N 
HETATM   21  H   UNL     1      39.480 -14.731   5.051  1.00  0.00     0.190 HD
BRANCH  18  22
HETATM   22  C   UNL     1      40.324 -14.758   0.707  1.00  0.00     0.014 A 
HETATM   23  C   UNL     1      41.195 -15.491  -0.112  1.00  0.00     0.017 A 
HETATM   24  C   UNL     1      41.063 -15.456  -1.504  1.00  0.00     0.025 A 
HETATM   25  C   UNL     1      40.059 -14.686  -2.085  1.00  0.00     0.034 A 
HETATM   26 CL   UNL     1      39.894 -14.645  -3.798  1.00  0.00    -0.084 Cl
HETATM   27  C   UNL     1      39.186 -13.950  -1.288  1.00  0.00     0.025 A 
HETATM   28  C   UNL     1      39.318 -13.986   0.104  1.00  0.00     0.017 A 
ENDBRANCH  18  22
ENDBRANCH   2  16
TORSDOF 5
ENDMDL
MODEL 8
REMARK VINA RESULT:      -8.1      5.790      8.431
REMARK  5 active torsions:
REMARK  status: ('A' for Active; 'I' for Inactive)
REMARK    1  A    between atoms: C_2  and  N_3 
REMARK    2  A    between atoms: C_2  and  C_14 
REMARK       I    between atoms: N_3  and  C_4 
REMARK       I    between atoms: C_4  and  N_5 
REMARK    3  A    between atoms: N_5  and  C_6 
REMARK    4  A    between atoms: C_6  and  C_7 
REMARK    5  A    between atoms: C_16  and  C_17 
ROOT
HETATM    1  C   UNL     1      44.679 -14.041   7.260  1.00  0.00     0.041 C 
HETATM    2  C   UNL     1      43.768 -15.092   6.629  1.00  0.00     0.153 C 
ENDROOT
BRANCH   2   3
HETATM    3  N   UNL     1      44.490 -16.321   6.365  1.00  0.00    -0.332 N 
HETATM    4  C   UNL     1      43.896 -17.537   6.544  1.00  0.00     0.317 C 
HETATM    5  N   UNL     1      44.780 -18.567   6.397  1.00  0.00    -0.339 N 
HETATM    6  O   UNL     1      42.710 -17.677   6.813  1.00  0.00    -0.247 OA
HETATM    7  H   UNL     1      45.592 -18.388   5.827  1.00  0.00     0.164 HD
HETATM    8  H   UNL     1      45.498 -16.268   6.417  1.00  0.00     0.165 HD
BRANCH   5   9
HETATM    9  C   UNL     1      44.313 -19.933   6.449  1.00  0.00     0.162 C 
BRANCH   9  10
HETATM   10  C   UNL     1      44.383 -20.583   5.093  1.00  0.00    -0.040 A 
HETATM   11  C   UNL     1      44.633 -21.961   4.987  1.00  0.00     0.009 A 
HETATM   12  C   UNL     1      44.686 -22.578   3.737  1.00  0.00     0.001 A 
HETATM   13  C   UNL     1      44.492 -21.826   2.580  1.00  0.00     0.000 A 
HETATM   14  C   UNL     1      44.249 -20.457   2.671  1.00  0.00     0.001 A 
HETATM   15  C   UNL     1      44.196 -19.836   3.922  1.00  0.00     0.009 A 
ENDBRANCH   9  10
ENDBRANCH   5   9
ENDBRANCH   2   3
BRANCH   2  16
HETATM   16  C   UNL     1      43.218 -14.604   5.332  1.00  0.00     0.145 A 
HETATM   17  N   UNL     1      43.009 -15.277   4.217  1.00  0.00    -0.210 NA
HETATM   18  C   UNL     1      42.493 -14.333   3.353  1.00  0.00     0.181 A 
HETATM   19  N   UNL     1      42.386 -13.108   3.896  1.00  0.00    -0.152 NA
HETATM   20  N   UNL     1      42.837 -13.310   5.140  1.00  0.00    -0.261 N 
HETATM   21  H   UNL     1      42.857 -12.533   5.793  1.00  0.00     0.190 HD
BRANCH  18  22
HETATM   22  C   UNL     1      42.104 -14.653   1.983  1.00  0.00     0.014 A 
HETATM   23  C   UNL     1      41.942 -15.989   1.585  1.00  0.00     0.017 A 
HETATM   24  C   UNL     1      41.561 -16.301   0.276  1.00  0.00     0.025 A 
HETATM   25  C   UNL     1      41.341 -15.280  -0.644  1.00  0.00     0.034 A 
HETATM   26 CL   UNL     1      40.870 -15.663  -2.254  1.00  0.00    -0.084 Cl
HETATM   27  C   UNL     1      41.499 -13.947  -0.268  1.00  0.00     0.025 A 
HETATM   28  C   UNL     1      41.879 -13.636   1.041  1.00  0.00     0.017 A 
ENDBRANCH  18  22
ENDBRANCH   2  16
TORSDOF 5
ENDMDL
MODEL 9
REMARK VINA RESULT:      -8.0      7.061      9.968
REMARK  5 active torsions:
REMARK  status: ('A' for Active; 'I' for Inactive)
REMARK    1  A    between atoms: C_2  and  N_3 
REMARK    2  A    between atoms: C_2  and  C_14 
REMARK       I    between atoms: N_3  and  C_4 
REMARK       I    between atoms: C_4  and  N_5 
REMARK    3  A    between atoms: N_5  and  C_6 
REMARK    4  A    between atoms: C_6  and  C_7 
REMARK    5  A    between atoms: C_16  and  C_17 
ROOT
HETATM    1  C   UNL     1      39.735 -13.974   5.134  1.00  0.00     0.041 C 
HETATM    2  C   UNL     1      40.688 -14.085   3.945  1.00  0.00     0.153 C 
ENDROOT
BRANCH   2   3
HETATM    3  N   UNL     1      39.962 -14.313   2.712  1.00  0.00    -0.332 N 
HETATM    4  C   UNL     1      40.175 -13.528   1.616  1.00  0.00     0.317 C 
HETATM    5  N   UNL     1      39.290 -13.796   0.611  1.00  0.00    -0.339 N 
HETATM    6  O   UNL     1      41.053 -12.678   1.553  1.00  0.00    -0.247 OA
HETATM    7  H   UNL     1      38.883 -14.719   0.602  1.00  0.00     0.164 HD
HETATM    8  H   UNL     1      39.073 -14.787   2.796  1.00  0.00     0.165 HD
BRANCH   5   9
HETATM    9  C   UNL     1      39.425 -13.136  -0.667  1.00  0.00     0.162 C 
BRANCH   9  10
HETATM   10  C   UNL     1      39.342 -14.123  -1.800  1.00  0.00    -0.040 A 
HETATM   11  C   UNL     1      40.456 -14.912  -2.127  1.00  0.00     0.009 A 
HETATM   12  C   UNL     1      40.387 -15.842  -3.165  1.00  0.00     0.001 A 
HETATM   13  C   UNL     1      39.206 -15.991  -3.889  1.00  0.00     0.000 A 
HETATM   14  C   UNL     1      38.095 -15.209  -3.578  1.00  0.00     0.001 A 
HETATM   15  C   UNL     1      38.162 -14.278  -2.539  1.00  0.00     0.009 A 
ENDBRANCH   9  10
ENDBRANCH   5   9
ENDBRANCH   2   3
BRANCH   2  16
HETATM   16  C   UNL     1      41.633 -15.224   4.131  1.00  0.00     0.145 A 
HETATM   17  N   UNL     1      41.768 -16.312   3.400  1.00  0.00    -0.210 NA
HETATM   18  C   UNL     1      42.781 -17.008   4.028  1.00  0.00     0.181 A 
HETATM   19  N   UNL     1      43.263 -16.388   5.118  1.00  0.00    -0.152 NA
HETATM   20  N   UNL     1      42.533 -15.266   5.153  1.00  0.00    -0.261 N 
HETATM   21  H   UNL     1      42.699 -14.588   5.888  1.00  0.00     0.190 HD
BRANCH  18  22
HETATM   22  C   UNL     1      43.271 -18.294   3.538  1.00  0.00     0.014 A 
HETATM   23  C   UNL     1      44.187 -19.040   4.296  1.00  0.00     0.017 A 
HETATM   24  C   UNL     1      44.652 -20.276   3.835  1.00  0.00     0.025 A 
HETATM   25  C   UNL     1      44.206 -20.773   2.613  1.00  0.00     0.034 A 
HETATM   26 CL   UNL     1      44.776 -22.294   2.048  1.00  0.00    -0.084 Cl
HETATM   27  C   UNL     1      43.297 -20.045   1.847  1.00  0.00     0.025 A 
HETATM   28  C   UNL     1      42.832 -18.810   2.309  1.00  0.00     0.017 A 
ENDBRANCH  18  22
ENDBRANCH   2  16
TORSDOF 5
ENDMDL
MODEL 10
REMARK VINA RESULT:      -8.0      8.832     11.920
REMARK  5 active torsions:
REMARK  status: ('A' for Active; 'I' for Inactive)
REMARK    1  A    between atoms: C_2  and  N_3 
REMARK    2  A    between atoms: C_2  and  C_14 
REMARK       I    between atoms: N_3  and  C_4 
REMARK       I    between atoms: C_4  and  N_5 
REMARK    3  A    between atoms: N_5  and  C_6 
REMARK    4  A    between atoms: C_6  and  C_7 
REMARK    5  A    between atoms: C_16  and  C_17 
ROOT
HETATM    1  C   UNL     1      41.708 -13.696  -0.755  1.00  0.00     0.041 C 
HETATM    2  C   UNL     1      41.198 -15.107  -1.042  1.00  0.00     0.153 C 
ENDROOT
BRANCH   2   3
HETATM    3  N   UNL     1      39.797 -15.093  -1.414  1.00  0.00    -0.332 N 
HETATM    4  C   UNL     1      39.419 -15.051  -2.725  1.00  0.00     0.317 C 
HETATM    5  N   UNL     1      38.071 -14.884  -2.867  1.00  0.00    -0.339 N 
HETATM    6  O   UNL     1      40.205 -15.144  -3.659  1.00  0.00    -0.247 OA
HETATM    7  H   UNL     1      37.495 -15.192  -2.098  1.00  0.00     0.164 HD
HETATM    8  H   UNL     1      39.153 -14.743  -0.719  1.00  0.00     0.165 HD
BRANCH   5   9
HETATM    9  C   UNL     1      37.472 -14.920  -4.181  1.00  0.00     0.162 C 
BRANCH   9  10
HETATM   10  C   UNL     1      36.488 -13.795  -4.359  1.00  0.00    -0.040 A 
HETATM   11  C   UNL     1      36.760 -12.530  -3.813  1.00  0.00     0.009 A 
HETATM   12  C   UNL     1      35.863 -11.475  -3.984  1.00  0.00     0.001 A 
HETATM   13  C   UNL     1      34.685 -11.673  -4.701  1.00  0.00     0.000 A 
HETATM   14  C   UNL     1      34.401 -12.924  -5.245  1.00  0.00     0.001 A 
HETATM   15  C   UNL     1      35.297 -13.982  -5.073  1.00  0.00     0.009 A 
ENDBRANCH   9  10
ENDBRANCH   5   9
ENDBRANCH   2   3
BRANCH   2  16
HETATM   16  C   UNL     1      41.336 -15.974   0.163  1.00  0.00     0.145 A 
HETATM   17  N   UNL     1      42.340 -16.757   0.506  1.00  0.00    -0.210 NA
HETATM   18  C   UNL     1      41.930 -17.314   1.701  1.00  0.00     0.181 A 
HETATM   19  N   UNL     1      40.712 -16.907   2.095  1.00  0.00    -0.152 NA
HETATM   20  N   UNL     1      40.367 -16.059   1.118  1.00  0.00    -0.261 N 
HETATM   21  H   UNL     1      39.473 -15.583   1.166  1.00  0.00     0.190 HD
BRANCH  18  22
HETATM   22  C   UNL     1      42.758 -18.254   2.453  1.00  0.00     0.014 A 
HETATM   23  C   UNL     1      42.907 -18.116   3.841  1.00  0.00     0.017 A 
HETATM   24  C   UNL     1      43.691 -19.018   4.567  1.00  0.00     0.025 A 
HETATM   25  C   UNL     1      44.334 -20.063   3.908  1.00  0.00     0.034 A 
HETATM   26 CL   UNL     1      45.297 -21.175   4.801  1.00  0.00    -0.084 Cl
HETATM   27  C   UNL     1      44.200 -20.215   2.530  1.00  0.00     0.025 A 
HETATM   28  C   UNL     1      43.414 -19.313   1.805  1.00  0.00     0.017 A 
ENDBRANCH  18  22
ENDBRANCH   2  16
TORSDOF 5
ENDMDL
