MODEL 1
REMARK VINA RESULT:      -7.5      0.000      0.000
REMARK  9 active torsions:
REMARK  status: ('A' for Active; 'I' for Inactive)
REMARK    1  A    between atoms: C_2  and  N_3 
REMARK    2  A    between atoms: N_3  and  C_5 
REMARK    3  A    between atoms: N_3  and  C_29 
REMARK    4  A    between atoms: C_5  and  C_6 
REMARK    5  A    between atoms: N_7  and  C_8 
REMARK    6  A    between atoms: C_12  and  N_13 
REMARK    7  A    between atoms: C_16  and  C_17 
REMARK       I    between atoms: C_17  and  N_18 
REMARK    8  A    between atoms: N_18  and  N_19 
REMARK    9  A    between atoms: C_20  and  C_21 
ROOT
HETATM    1  C   UNL     1      41.254 -10.938   8.190  1.00  0.00     0.096 A 
HETATM    2  N   UNL     1      40.191 -10.483   8.965  1.00  0.00    -0.215 N 
HETATM    3  N   UNL     1      39.034 -10.686   8.282  1.00  0.00     0.012 NA
HETATM    4  N   UNL     1      39.298 -11.332   7.157  1.00  0.00    -0.152 NA
HETATM    5  C   UNL     1      40.648 -11.507   7.077  1.00  0.00     0.170 A 
ENDROOT
BRANCH   5   6
HETATM    6  C   UNL     1      41.317 -12.194   5.980  1.00  0.00     0.293 C 
HETATM    7  N   UNL     1      41.546 -13.537   6.208  1.00  0.00    -0.242 N 
HETATM    8  H   UNL     1      41.256 -13.971   7.080  1.00  0.00     0.192 HD
HETATM    9  O   UNL     1      41.645 -11.569   4.975  1.00  0.00    -0.264 OA
BRANCH   7  10
HETATM   10  N   UNL     1      42.127 -14.284   5.231  1.00  0.00    -0.184 NA
HETATM   11  C   UNL     1      42.342 -15.530   5.508  1.00  0.00     0.150 C 
BRANCH  11  12
HETATM   12  C   UNL     1      42.942 -16.441   4.512  1.00  0.00    -0.016 A 
HETATM   13  C   UNL     1      43.424 -17.696   4.898  1.00  0.00     0.031 A 
HETATM   14  C   UNL     1      43.998 -18.533   3.942  1.00  0.00     0.007 A 
HETATM   15  I   UNL     1      44.728 -20.396   4.509  1.00  0.00    -0.045 I 
HETATM   16  C   UNL     1      44.090 -18.128   2.611  1.00  0.00     0.018 A 
HETATM   17  C   UNL     1      43.605 -16.874   2.231  1.00  0.00     0.002 A 
HETATM   18  C   UNL     1      43.032 -16.026   3.181  1.00  0.00     0.013 A 
ENDBRANCH  11  12
ENDBRANCH   7  10
ENDBRANCH   5   6
BRANCH   1  19
HETATM   19  C   UNL     1      42.693 -10.736   8.486  1.00  0.00     0.296 C 
BRANCH  19  20
HETATM   20  N   UNL     1      43.403 -11.887   9.179  1.00  0.00    -0.066 N 
HETATM   21  H   UNL     1      42.811 -12.719   9.044  1.00  0.00     0.280 HD
BRANCH  20  22
HETATM   22  C   UNL     1      43.505 -11.639  10.679  1.00  0.00     0.231 C 
HETATM   23  C   UNL     1      44.755 -10.850  11.026  1.00  0.00     0.034 C 
ENDBRANCH  20  22
BRANCH  20  24
HETATM   24  C   UNL     1      44.773 -12.171   8.578  1.00  0.00     0.231 C 
HETATM   25  C   UNL     1      44.743 -13.426   7.721  1.00  0.00     0.034 C 
ENDBRANCH  20  24
ENDBRANCH  19  20
ENDBRANCH   1  19
BRANCH   2  26
HETATM   26  C   UNL     1      40.219  -9.945  10.273  1.00  0.00     0.225 A 
HETATM   27  N   UNL     1      40.471  -8.644  10.451  1.00  0.00    -0.081 NA
HETATM   28  O   UNL     1      40.437  -8.491  11.842  1.00  0.00    -0.103 OA
HETATM   29  N   UNL     1      40.195  -9.701  12.474  1.00  0.00    -0.083 NA
HETATM   30  C   UNL     1      40.063 -10.604  11.504  1.00  0.00     0.201 A 
BRANCH  30  31
HETATM   31  N   UNL     1      39.814 -11.907  11.704  1.00  0.00    -0.379 N 
HETATM   32  H   UNL     1      39.999 -12.585  10.969  1.00  0.00     0.158 HD
HETATM   33  H   UNL     1      39.284 -12.270  12.494  1.00  0.00     0.158 HD
ENDBRANCH  30  31
ENDBRANCH   2  26
TORSDOF 9
ENDMDL
MODEL 2
REMARK VINA RESULT:      -7.4      7.469     10.484
REMARK  9 active torsions:
REMARK  status: ('A' for Active; 'I' for Inactive)
REMARK    1  A    between atoms: C_2  and  N_3 
REMARK    2  A    between atoms: N_3  and  C_5 
REMARK    3  A    between atoms: N_3  and  C_29 
REMARK    4  A    between atoms: C_5  and  C_6 
REMARK    5  A    between atoms: N_7  and  C_8 
REMARK    6  A    between atoms: C_12  and  N_13 
REMARK    7  A    between atoms: C_16  and  C_17 
REMARK       I    between atoms: C_17  and  N_18 
REMARK    8  A    between atoms: N_18  and  N_19 
REMARK    9  A    between atoms: C_20  and  C_21 
ROOT
HETATM    1  C   UNL     1      39.380 -14.341  -1.728  1.00  0.00     0.096 A 
HETATM    2  N   UNL     1      39.094 -14.279  -3.089  1.00  0.00    -0.215 N 
HETATM    3  N   UNL     1      40.247 -14.463  -3.786  1.00  0.00     0.012 NA
HETATM    4  N   UNL     1      41.230 -14.733  -2.942  1.00  0.00    -0.152 NA
HETATM    5  C   UNL     1      40.727 -14.673  -1.675  1.00  0.00     0.170 A 
ENDROOT
BRANCH   5   6
HETATM    6  C   UNL     1      41.513 -14.929  -0.475  1.00  0.00     0.293 C 
HETATM    7  N   UNL     1      41.704 -16.269  -0.198  1.00  0.00    -0.242 N 
HETATM    8  H   UNL     1      41.315 -16.984  -0.806  1.00  0.00     0.192 HD
HETATM    9  O   UNL     1      41.919 -13.989   0.203  1.00  0.00    -0.264 OA
BRANCH   7  10
HETATM   10  N   UNL     1      42.460 -16.620   0.878  1.00  0.00    -0.184 NA
HETATM   11  C   UNL     1      42.240 -17.794   1.379  1.00  0.00     0.150 C 
BRANCH  11  12
HETATM   12  C   UNL     1      43.021 -18.290   2.530  1.00  0.00    -0.016 A 
HETATM   13  C   UNL     1      43.054 -17.569   3.728  1.00  0.00     0.031 A 
HETATM   14  C   UNL     1      43.809 -18.051   4.797  1.00  0.00     0.007 A 
HETATM   15  I   UNL     1      43.874 -16.981   6.578  1.00  0.00    -0.045 I 
HETATM   16  C   UNL     1      44.523 -19.244   4.678  1.00  0.00     0.018 A 
HETATM   17  C   UNL     1      44.483 -19.961   3.480  1.00  0.00     0.002 A 
HETATM   18  C   UNL     1      43.734 -19.485   2.401  1.00  0.00     0.013 A 
ENDBRANCH  11  12
ENDBRANCH   7  10
ENDBRANCH   5   6
BRANCH   1  19
HETATM   19  C   UNL     1      38.441 -14.010  -0.628  1.00  0.00     0.296 C 
BRANCH  19  20
HETATM   20  N   UNL     1      38.909 -12.952   0.357  1.00  0.00    -0.066 N 
HETATM   21  H   UNL     1      39.916 -12.820   0.187  1.00  0.00     0.280 HD
BRANCH  20  22
HETATM   22  C   UNL     1      38.749 -13.438   1.792  1.00  0.00     0.231 C 
HETATM   23  C   UNL     1      38.896 -14.946   1.886  1.00  0.00     0.034 C 
ENDBRANCH  20  22
BRANCH  20  24
HETATM   24  C   UNL     1      38.208 -11.616   0.150  1.00  0.00     0.231 C 
HETATM   25  C   UNL     1      36.700 -11.765   0.277  1.00  0.00     0.034 C 
ENDBRANCH  20  24
ENDBRANCH  19  20
ENDBRANCH   1  19
BRANCH   2  26
HETATM   26  C   UNL     1      37.840 -14.116  -3.721  1.00  0.00     0.225 A 
HETATM   27  N   UNL     1      37.263 -15.154  -4.334  1.00  0.00    -0.081 NA
HETATM   28  O   UNL     1      36.075 -14.617  -4.843  1.00  0.00    -0.103 OA
HETATM   29  N   UNL     1      35.972 -13.265  -4.554  1.00  0.00    -0.083 NA
HETATM   30  C   UNL     1      37.066 -12.951  -3.861  1.00  0.00     0.201 A 
BRANCH  30  31
HETATM   31  N   UNL     1      37.342 -11.728  -3.386  1.00  0.00    -0.379 N 
HETATM   32  H   UNL     1      37.157 -11.501  -2.413  1.00  0.00     0.158 HD
HETATM   33  H   UNL     1      37.577 -10.929  -3.972  1.00  0.00     0.158 HD
ENDBRANCH  30  31
ENDBRANCH   2  26
TORSDOF 9
ENDMDL
MODEL 3
REMARK VINA RESULT:      -7.4      4.763     10.045
REMARK  9 active torsions:
REMARK  status: ('A' for Active; 'I' for Inactive)
REMARK    1  A    between atoms: C_2  and  N_3 
REMARK    2  A    between atoms: N_3  and  C_5 
REMARK    3  A    between atoms: N_3  and  C_29 
REMARK    4  A    between atoms: C_5  and  C_6 
REMARK    5  A    between atoms: N_7  and  C_8 
REMARK    6  A    between atoms: C_12  and  N_13 
REMARK    7  A    between atoms: C_16  and  C_17 
REMARK       I    between atoms: C_17  and  N_18 
REMARK    8  A    between atoms: N_18  and  N_19 
REMARK    9  A    between atoms: C_20  and  C_21 
ROOT
HETATM    1  C   UNL     1      43.646 -18.328   4.941  1.00  0.00     0.096 A 
HETATM    2  N   UNL     1      44.499 -19.313   4.449  1.00  0.00    -0.215 N 
HETATM    3  N   UNL     1      45.648 -19.296   5.174  1.00  0.00     0.012 NA
HETATM    4  N   UNL     1      45.532 -18.419   6.158  1.00  0.00    -0.152 NA
HETATM    5  C   UNL     1      44.314 -17.816   6.045  1.00  0.00     0.170 A 
ENDROOT
BRANCH   5   6
HETATM    6  C   UNL     1      43.821 -16.799   6.965  1.00  0.00     0.293 C 
HETATM    7  N   UNL     1      44.504 -15.599   6.901  1.00  0.00    -0.242 N 
HETATM    8  H   UNL     1      45.277 -15.477   6.253  1.00  0.00     0.192 HD
HETATM    9  O   UNL     1      42.890 -17.058   7.723  1.00  0.00    -0.264 OA
BRANCH   7  10
HETATM   10  N   UNL     1      44.098 -14.565   7.688  1.00  0.00    -0.184 NA
HETATM   11  C   UNL     1      44.970 -13.636   7.914  1.00  0.00     0.150 C 
BRANCH  11  12
HETATM   12  C   UNL     1      44.631 -12.454   8.731  1.00  0.00    -0.016 A 
HETATM   13  C   UNL     1      43.411 -11.793   8.550  1.00  0.00     0.031 A 
HETATM   14  C   UNL     1      43.118 -10.671   9.324  1.00  0.00     0.007 A 
HETATM   15  I   UNL     1      41.313  -9.676   9.055  1.00  0.00    -0.045 I 
HETATM   16  C   UNL     1      44.029 -10.210  10.275  1.00  0.00     0.018 A 
HETATM   17  C   UNL     1      45.244 -10.875  10.453  1.00  0.00     0.002 A 
HETATM   18  C   UNL     1      45.550 -11.998   9.680  1.00  0.00     0.013 A 
ENDBRANCH  11  12
ENDBRANCH   7  10
ENDBRANCH   5   6
BRANCH   1  19
HETATM   19  C   UNL     1      42.372 -17.893   4.317  1.00  0.00     0.296 C 
BRANCH  19  20
HETATM   20  N   UNL     1      42.493 -17.122   3.013  1.00  0.00    -0.066 N 
HETATM   21  H   UNL     1      43.248 -17.573   2.477  1.00  0.00     0.280 HD
BRANCH  20  22
HETATM   22  C   UNL     1      42.915 -15.681   3.272  1.00  0.00     0.231 C 
HETATM   23  C   UNL     1      41.986 -15.002   4.262  1.00  0.00     0.034 C 
ENDBRANCH  20  22
BRANCH  20  24
HETATM   24  C   UNL     1      41.217 -17.179   2.184  1.00  0.00     0.231 C 
HETATM   25  C   UNL     1      41.512 -16.939   0.712  1.00  0.00     0.034 C 
ENDBRANCH  20  24
ENDBRANCH  19  20
ENDBRANCH   1  19
BRANCH   2  26
HETATM   26  C   UNL     1      44.261 -20.250   3.417  1.00  0.00     0.225 A 
HETATM   27  N   UNL     1      43.777 -19.837   2.242  1.00  0.00    -0.081 NA
HETATM   28  O   UNL     1      43.660 -21.019   1.501  1.00  0.00    -0.103 OA
HETATM   29  N   UNL     1      44.047 -22.120   2.250  1.00  0.00    -0.083 NA
HETATM   30  C   UNL     1      44.416 -21.647   3.439  1.00  0.00     0.201 A 
BRANCH  30  31
HETATM   31  N   UNL     1      44.865 -22.401   4.453  1.00  0.00    -0.379 N 
HETATM   32  H   UNL     1      44.733 -22.099   5.415  1.00  0.00     0.158 HD
HETATM   33  H   UNL     1      45.491 -23.195   4.338  1.00  0.00     0.158 HD
ENDBRANCH  30  31
ENDBRANCH   2  26
TORSDOF 9
ENDMDL
MODEL 4
REMARK VINA RESULT:      -7.3      2.633      3.824
REMARK  9 active torsions:
REMARK  status: ('A' for Active; 'I' for Inactive)
REMARK    1  A    between atoms: C_2  and  N_3 
REMARK    2  A    between atoms: N_3  and  C_5 
REMARK    3  A    between atoms: N_3  and  C_29 
REMARK    4  A    between atoms: C_5  and  C_6 
REMARK    5  A    between atoms: N_7  and  C_8 
REMARK    6  A    between atoms: C_12  and  N_13 
REMARK    7  A    between atoms: C_16  and  C_17 
REMARK       I    between atoms: C_17  and  N_18 
REMARK    8  A    between atoms: N_18  and  N_19 
REMARK    9  A    between atoms: C_20  and  C_21 
ROOT
HETATM    1  C   UNL     1      41.672 -13.306   5.870  1.00  0.00     0.096 A 
HETATM    2  N   UNL     1      40.950 -12.143   6.123  1.00  0.00    -0.215 N 
HETATM    3  N   UNL     1      39.643 -12.368   5.827  1.00  0.00     0.012 NA
HETATM    4  N   UNL     1      39.483 -13.638   5.491  1.00  0.00    -0.152 NA
HETATM    5  C   UNL     1      40.707 -14.239   5.515  1.00  0.00     0.170 A 
ENDROOT
BRANCH   5   6
HETATM    6  C   UNL     1      40.928 -15.647   5.215  1.00  0.00     0.293 C 
HETATM    7  N   UNL     1      41.525 -15.878   3.990  1.00  0.00    -0.242 N 
HETATM    8  H   UNL     1      41.774 -15.104   3.381  1.00  0.00     0.192 HD
HETATM    9  O   UNL     1      40.569 -16.508   6.013  1.00  0.00    -0.264 OA
BRANCH   7  10
HETATM   10  N   UNL     1      41.816 -17.157   3.627  1.00  0.00    -0.184 NA
HETATM   11  C   UNL     1      43.071 -17.452   3.510  1.00  0.00     0.150 C 
BRANCH  11  12
HETATM   12  C   UNL     1      43.504 -18.817   3.148  1.00  0.00    -0.016 A 
HETATM   13  C   UNL     1      43.953 -19.703   4.133  1.00  0.00     0.031 A 
HETATM   14  C   UNL     1      44.369 -20.982   3.766  1.00  0.00     0.007 A 
HETATM   15  I   UNL     1      45.050 -22.302   5.221  1.00  0.00    -0.045 I 
HETATM   16  C   UNL     1      44.335 -21.381   2.430  1.00  0.00     0.018 A 
HETATM   17  C   UNL     1      43.882 -20.492   1.451  1.00  0.00     0.002 A 
HETATM   18  C   UNL     1      43.468 -19.207   1.807  1.00  0.00     0.013 A 
ENDBRANCH  11  12
ENDBRANCH   7  10
ENDBRANCH   5   6
BRANCH   1  19
HETATM   19  C   UNL     1      43.151 -13.430   5.885  1.00  0.00     0.296 C 
BRANCH  19  20
HETATM   20  N   UNL     1      43.745 -14.211   7.046  1.00  0.00    -0.066 N 
HETATM   21  H   UNL     1      43.054 -14.173   7.808  1.00  0.00     0.280 HD
BRANCH  20  22
HETATM   22  C   UNL     1      45.019 -13.544   7.553  1.00  0.00     0.231 C 
HETATM   23  C   UNL     1      44.738 -12.654   8.750  1.00  0.00     0.034 C 
ENDBRANCH  20  22
BRANCH  20  24
HETATM   24  C   UNL     1      43.994 -15.672   6.696  1.00  0.00     0.231 C 
HETATM   25  C   UNL     1      43.562 -16.586   7.831  1.00  0.00     0.034 C 
ENDBRANCH  20  24
ENDBRANCH  19  20
ENDBRANCH   1  19
BRANCH   2  26
HETATM   26  C   UNL     1      41.412 -10.916   6.654  1.00  0.00     0.225 A 
HETATM   27  N   UNL     1      41.888 -10.868   7.902  1.00  0.00    -0.081 NA
HETATM   28  O   UNL     1      42.221  -9.520   8.075  1.00  0.00    -0.103 OA
HETATM   29  N   UNL     1      41.914  -8.778   6.945  1.00  0.00    -0.083 NA
HETATM   30  C   UNL     1      41.409  -9.641   6.064  1.00  0.00     0.201 A 
BRANCH  30  31
HETATM   31  N   UNL     1      40.991  -9.315   4.832  1.00  0.00    -0.379 N 
HETATM   32  H   UNL     1      41.119  -9.962   4.058  1.00  0.00     0.158 HD
HETATM   33  H   UNL     1      40.695  -8.380   4.560  1.00  0.00     0.158 HD
ENDBRANCH  30  31
ENDBRANCH   2  26
TORSDOF 9
ENDMDL
MODEL 5
REMARK VINA RESULT:      -7.3      7.576      9.847
REMARK  9 active torsions:
REMARK  status: ('A' for Active; 'I' for Inactive)
REMARK    1  A    between atoms: C_2  and  N_3 
REMARK    2  A    between atoms: N_3  and  C_5 
REMARK    3  A    between atoms: N_3  and  C_29 
REMARK    4  A    between atoms: C_5  and  C_6 
REMARK    5  A    between atoms: N_7  and  C_8 
REMARK    6  A    between atoms: C_12  and  N_13 
REMARK    7  A    between atoms: C_16  and  C_17 
REMARK       I    between atoms: C_17  and  N_18 
REMARK    8  A    between atoms: N_18  and  N_19 
REMARK    9  A    between atoms: C_20  and  C_21 
ROOT
HETATM    1  C   UNL     1      39.932 -13.539  -0.485  1.00  0.00     0.096 A 
HETATM    2  N   UNL     1      38.831 -12.954  -1.105  1.00  0.00    -0.215 N 
HETATM    3  N   UNL     1      37.700 -13.417  -0.510  1.00  0.00     0.012 NA
HETATM    4  N   UNL     1      38.028 -14.189   0.514  1.00  0.00    -0.152 NA
HETATM    5  C   UNL     1      39.388 -14.276   0.558  1.00  0.00     0.170 A 
ENDROOT
BRANCH   5   6
HETATM    6  C   UNL     1      40.124 -15.031   1.564  1.00  0.00     0.293 C 
HETATM    7  N   UNL     1      40.307 -16.364   1.250  1.00  0.00    -0.242 N 
HETATM    8  H   UNL     1      39.946 -16.745   0.380  1.00  0.00     0.192 HD
HETATM    9  O   UNL     1      40.499 -14.477   2.594  1.00  0.00    -0.264 OA
BRANCH   7  10
HETATM   10  N   UNL     1      41.019 -17.152   2.101  1.00  0.00    -0.184 NA
HETATM   11  C   UNL     1      42.112 -17.665   1.635  1.00  0.00     0.150 C 
BRANCH  11  12
HETATM   12  C   UNL     1      42.977 -18.513   2.479  1.00  0.00    -0.016 A 
HETATM   13  C   UNL     1      43.343 -18.097   3.764  1.00  0.00     0.031 A 
HETATM   14  C   UNL     1      44.171 -18.909   4.537  1.00  0.00     0.007 A 
HETATM   15  I   UNL     1      44.730 -18.294   6.443  1.00  0.00    -0.045 I 
HETATM   16  C   UNL     1      44.630 -20.130   4.041  1.00  0.00     0.018 A 
HETATM   17  C   UNL     1      44.259 -20.541   2.758  1.00  0.00     0.002 A 
HETATM   18  C   UNL     1      43.433 -19.733   1.973  1.00  0.00     0.013 A 
ENDBRANCH  11  12
ENDBRANCH   7  10
ENDBRANCH   5   6
BRANCH   1  19
HETATM   19  C   UNL     1      41.339 -13.445  -0.948  1.00  0.00     0.296 C 
BRANCH  19  20
HETATM   20  N   UNL     1      41.725 -14.351  -2.106  1.00  0.00    -0.066 N 
HETATM   21  H   UNL     1      42.709 -14.615  -1.955  1.00  0.00     0.280 HD
BRANCH  20  22
HETATM   22  C   UNL     1      41.652 -13.601  -3.430  1.00  0.00     0.231 C 
HETATM   23  C   UNL     1      42.328 -12.244  -3.335  1.00  0.00     0.034 C 
ENDBRANCH  20  22
BRANCH  20  24
HETATM   24  C   UNL     1      40.889 -15.623  -2.152  1.00  0.00     0.231 C 
HETATM   25  C   UNL     1      40.120 -15.724  -3.459  1.00  0.00     0.034 C 
ENDBRANCH  20  24
ENDBRANCH  19  20
ENDBRANCH   1  19
BRANCH   2  26
HETATM   26  C   UNL     1      38.809 -11.991  -2.140  1.00  0.00     0.225 A 
HETATM   27  N   UNL     1      39.312 -10.771  -1.924  1.00  0.00    -0.081 NA
HETATM   28  O   UNL     1      39.099 -10.110  -3.140  1.00  0.00    -0.103 OA
HETATM   29  N   UNL     1      38.450 -10.929  -4.050  1.00  0.00    -0.083 NA
HETATM   30  C   UNL     1      38.266 -12.095  -3.432  1.00  0.00     0.201 A 
BRANCH  30  31
HETATM   31  N   UNL     1      37.672 -13.164  -3.982  1.00  0.00    -0.379 N 
HETATM   32  H   UNL     1      38.127 -14.073  -3.961  1.00  0.00     0.158 HD
HETATM   33  H   UNL     1      36.852 -13.113  -4.583  1.00  0.00     0.158 HD
ENDBRANCH  30  31
ENDBRANCH   2  26
TORSDOF 9
ENDMDL
MODEL 6
REMARK VINA RESULT:      -7.2      7.048     10.065
REMARK  9 active torsions:
REMARK  status: ('A' for Active; 'I' for Inactive)
REMARK    1  A    between atoms: C_2  and  N_3 
REMARK    2  A    between atoms: N_3  and  C_5 
REMARK    3  A    between atoms: N_3  and  C_29 
REMARK    4  A    between atoms: C_5  and  C_6 
REMARK    5  A    between atoms: N_7  and  C_8 
REMARK    6  A    between atoms: C_12  and  N_13 
REMARK    7  A    between atoms: C_16  and  C_17 
REMARK       I    between atoms: C_17  and  N_18 
REMARK    8  A    between atoms: N_18  and  N_19 
REMARK    9  A    between atoms: C_20  and  C_21 
ROOT
HETATM    1  C   UNL     1      40.901 -13.938  -1.356  1.00  0.00     0.096 A 
HETATM    2  N   UNL     1      40.665 -13.825  -2.724  1.00  0.00    -0.215 N 
HETATM    3  N   UNL     1      40.858 -15.041  -3.300  1.00  0.00     0.012 NA
HETATM    4  N   UNL     1      41.109 -15.937  -2.360  1.00  0.00    -0.152 NA
HETATM    5  C   UNL     1      41.134 -15.292  -1.158  1.00  0.00     0.170 A 
ENDROOT
BRANCH   5   6
HETATM    6  C   UNL     1      41.367 -15.956   0.118  1.00  0.00     0.293 C 
HETATM    7  N   UNL     1      42.634 -16.491   0.254  1.00  0.00    -0.242 N 
HETATM    8  H   UNL     1      43.316 -16.406  -0.494  1.00  0.00     0.192 HD
HETATM    9  O   UNL     1      40.465 -16.022   0.948  1.00  0.00    -0.264 OA
BRANCH   7  10
HETATM   10  N   UNL     1      42.973 -17.098   1.425  1.00  0.00    -0.184 NA
HETATM   11  C   UNL     1      43.467 -18.291   1.334  1.00  0.00     0.150 C 
BRANCH  11  12
HETATM   12  C   UNL     1      43.895 -19.032   2.537  1.00  0.00    -0.016 A 
HETATM   13  C   UNL     1      43.952 -18.395   3.781  1.00  0.00     0.031 A 
HETATM   14  C   UNL     1      44.371 -19.112   4.900  1.00  0.00     0.007 A 
HETATM   15  I   UNL     1      44.470 -18.169   6.751  1.00  0.00    -0.045 I 
HETATM   16  C   UNL     1      44.729 -20.456   4.787  1.00  0.00     0.018 A 
HETATM   17  C   UNL     1      44.668 -21.088   3.542  1.00  0.00     0.002 A 
HETATM   18  C   UNL     1      44.253 -20.378   2.414  1.00  0.00     0.013 A 
ENDBRANCH  11  12
ENDBRANCH   7  10
ENDBRANCH   5   6
BRANCH   1  19
HETATM   19  C   UNL     1      40.979 -12.811  -0.394  1.00  0.00     0.296 C 
BRANCH  19  20
HETATM   20  N   UNL     1      39.912 -12.778   0.688  1.00  0.00    -0.066 N 
HETATM   21  H   UNL     1      40.078 -13.599   1.287  1.00  0.00     0.280 HD
BRANCH  20  22
HETATM   22  C   UNL     1      38.521 -12.930   0.083  1.00  0.00     0.231 C 
HETATM   23  C   UNL     1      37.684 -13.928   0.864  1.00  0.00     0.034 C 
ENDBRANCH  20  22
BRANCH  20  24
HETATM   24  C   UNL     1      39.999 -11.527   1.552  1.00  0.00     0.231 C 
HETATM   25  C   UNL     1      40.911 -11.752   2.747  1.00  0.00     0.034 C 
ENDBRANCH  20  24
ENDBRANCH  19  20
ENDBRANCH   1  19
BRANCH   2  26
HETATM   26  C   UNL     1      40.239 -12.693  -3.455  1.00  0.00     0.225 A 
HETATM   27  N   UNL     1      38.935 -12.415  -3.551  1.00  0.00    -0.081 NA
HETATM   28  O   UNL     1      38.902 -11.264  -4.346  1.00  0.00    -0.103 OA
HETATM   29  N   UNL     1      40.178 -10.888  -4.737  1.00  0.00    -0.083 NA
HETATM   30  C   UNL     1      41.008 -11.774  -4.189  1.00  0.00     0.201 A 
BRANCH  30  31
HETATM   31  N   UNL     1      42.342 -11.754  -4.326  1.00  0.00    -0.379 N 
HETATM   32  H   UNL     1      42.807 -12.432  -4.925  1.00  0.00     0.158 HD
HETATM   33  H   UNL     1      42.967 -11.207  -3.737  1.00  0.00     0.158 HD
ENDBRANCH  30  31
ENDBRANCH   2  26
TORSDOF 9
ENDMDL
MODEL 7
REMARK VINA RESULT:      -7.0      1.831      3.513
REMARK  9 active torsions:
REMARK  status: ('A' for Active; 'I' for Inactive)
REMARK    1  A    between atoms: C_2  and  N_3 
REMARK    2  A    between atoms: N_3  and  C_5 
REMARK    3  A    between atoms: N_3  and  C_29 
REMARK    4  A    between atoms: C_5  and  C_6 
REMARK    5  A    between atoms: N_7  and  C_8 
REMARK    6  A    between atoms: C_12  and  N_13 
REMARK    7  A    between atoms: C_16  and  C_17 
REMARK       I    between atoms: C_17  and  N_18 
REMARK    8  A    between atoms: N_18  and  N_19 
REMARK    9  A    between atoms: C_20  and  C_21 
ROOT
HETATM    1  C   UNL     1      43.426 -11.465   9.529  1.00  0.00     0.096 A 
HETATM    2  N   UNL     1      43.394 -11.249  10.904  1.00  0.00    -0.215 N 
HETATM    3  N   UNL     1      44.127 -12.217  11.515  1.00  0.00     0.012 NA
HETATM    4  N   UNL     1      44.700 -12.978  10.596  1.00  0.00    -0.152 NA
HETATM    5  C   UNL     1      44.295 -12.537   9.370  1.00  0.00     0.170 A 
ENDROOT
BRANCH   5   6
HETATM    6  C   UNL     1      44.732 -13.122   8.109  1.00  0.00     0.293 C 
HETATM    7  N   UNL     1      43.807 -13.967   7.527  1.00  0.00    -0.242 N 
HETATM    8  H   UNL     1      42.909 -14.138   7.971  1.00  0.00     0.192 HD
HETATM    9  O   UNL     1      45.849 -12.865   7.669  1.00  0.00    -0.264 OA
BRANCH   7  10
HETATM   10  N   UNL     1      44.096 -14.535   6.324  1.00  0.00    -0.184 NA
HETATM   11  C   UNL     1      43.210 -15.346   5.841  1.00  0.00     0.150 C 
BRANCH  11  12
HETATM   12  C   UNL     1      43.406 -15.998   4.531  1.00  0.00    -0.016 A 
HETATM   13  C   UNL     1      43.664 -17.371   4.453  1.00  0.00     0.031 A 
HETATM   14  C   UNL     1      43.858 -17.961   3.205  1.00  0.00     0.007 A 
HETATM   15  I   UNL     1      44.254 -19.999   3.080  1.00  0.00    -0.045 I 
HETATM   16  C   UNL     1      43.793 -17.195   2.041  1.00  0.00     0.018 A 
HETATM   17  C   UNL     1      43.533 -15.825   2.125  1.00  0.00     0.002 A 
HETATM   18  C   UNL     1      43.340 -15.222   3.370  1.00  0.00     0.013 A 
ENDBRANCH  11  12
ENDBRANCH   7  10
ENDBRANCH   5   6
BRANCH   1  19
HETATM   19  C   UNL     1      42.609 -10.749   8.519  1.00  0.00     0.296 C 
BRANCH  19  20
HETATM   20  N   UNL     1      41.279 -11.388   8.157  1.00  0.00    -0.066 N 
HETATM   21  H   UNL     1      41.293 -12.338   8.556  1.00  0.00     0.280 HD
BRANCH  20  22
HETATM   22  C   UNL     1      41.139 -11.532   6.646  1.00  0.00     0.231 C 
HETATM   23  C   UNL     1      39.686 -11.452   6.215  1.00  0.00     0.034 C 
ENDBRANCH  20  22
BRANCH  20  24
HETATM   24  C   UNL     1      40.093 -10.637   8.747  1.00  0.00     0.231 C 
HETATM   25  C   UNL     1      40.447  -9.183   9.015  1.00  0.00     0.034 C 
ENDBRANCH  20  24
ENDBRANCH  19  20
ENDBRANCH   1  19
BRANCH   2  26
HETATM   26  C   UNL     1      42.779 -10.194  11.617  1.00  0.00     0.225 A 
HETATM   27  N   UNL     1      43.250  -8.949  11.502  1.00  0.00    -0.081 NA
HETATM   28  O   UNL     1      42.420  -8.204  12.347  1.00  0.00    -0.103 OA
HETATM   29  N   UNL     1      41.486  -9.014  12.974  1.00  0.00    -0.083 NA
HETATM   30  C   UNL     1      41.709 -10.249  12.526  1.00  0.00     0.201 A 
BRANCH  30  31
HETATM   31  N   UNL     1      41.006 -11.331  12.893  1.00  0.00    -0.379 N 
HETATM   32  H   UNL     1      40.046 -11.235  13.215  1.00  0.00     0.158 HD
HETATM   33  H   UNL     1      41.414 -12.252  13.038  1.00  0.00     0.158 HD
ENDBRANCH  30  31
ENDBRANCH   2  26
TORSDOF 9
ENDMDL
MODEL 8
REMARK VINA RESULT:      -6.9      7.406     10.159
REMARK  9 active torsions:
REMARK  status: ('A' for Active; 'I' for Inactive)
REMARK    1  A    between atoms: C_2  and  N_3 
REMARK    2  A    between atoms: N_3  and  C_5 
REMARK    3  A    between atoms: N_3  and  C_29 
REMARK    4  A    between atoms: C_5  and  C_6 
REMARK    5  A    between atoms: N_7  and  C_8 
REMARK    6  A    between atoms: C_12  and  N_13 
REMARK    7  A    between atoms: C_16  and  C_17 
REMARK       I    between atoms: C_17  and  N_18 
REMARK    8  A    between atoms: N_18  and  N_19 
REMARK    9  A    between atoms: C_20  and  C_21 
ROOT
HETATM    1  C   UNL     1      39.986 -14.132  -1.344  1.00  0.00     0.096 A 
HETATM    2  N   UNL     1      39.611 -14.152  -2.685  1.00  0.00    -0.215 N 
HETATM    3  N   UNL     1      40.378 -15.064  -3.339  1.00  0.00     0.012 NA
HETATM    4  N   UNL     1      41.152 -15.690  -2.467  1.00  0.00    -0.152 NA
HETATM    5  C   UNL     1      40.929 -15.146  -1.237  1.00  0.00     0.170 A 
ENDROOT
BRANCH   5   6
HETATM    6  C   UNL     1      41.592 -15.590  -0.017  1.00  0.00     0.293 C 
HETATM    7  N   UNL     1      41.329 -16.902   0.326  1.00  0.00    -0.242 N 
HETATM    8  H   UNL     1      40.720 -17.475  -0.251  1.00  0.00     0.192 HD
HETATM    9  O   UNL     1      42.293 -14.806   0.619  1.00  0.00    -0.264 OA
BRANCH   7  10
HETATM   10  N   UNL     1      41.932 -17.431   1.425  1.00  0.00    -0.184 NA
HETATM   11  C   UNL     1      42.648 -18.493   1.235  1.00  0.00     0.150 C 
BRANCH  11  12
HETATM   12  C   UNL     1      43.370 -19.136   2.351  1.00  0.00    -0.016 A 
HETATM   13  C   UNL     1      43.551 -18.460   3.562  1.00  0.00     0.031 A 
HETATM   14  C   UNL     1      44.247 -19.083   4.597  1.00  0.00     0.007 A 
HETATM   15  I   UNL     1      44.531 -18.081   6.397  1.00  0.00    -0.045 I 
HETATM   16  C   UNL     1      44.758 -20.371   4.432  1.00  0.00     0.018 A 
HETATM   17  C   UNL     1      44.572 -21.042   3.221  1.00  0.00     0.002 A 
HETATM   18  C   UNL     1      43.879 -20.426   2.176  1.00  0.00     0.013 A 
ENDBRANCH  11  12
ENDBRANCH   7  10
ENDBRANCH   5   6
BRANCH   1  19
HETATM   19  C   UNL     1      39.527 -13.152  -0.330  1.00  0.00     0.296 C 
BRANCH  19  20
HETATM   20  N   UNL     1      38.677 -13.706   0.801  1.00  0.00    -0.066 N 
HETATM   21  H   UNL     1      38.697 -14.732   0.706  1.00  0.00     0.280 HD
BRANCH  20  22
HETATM   22  C   UNL     1      37.225 -13.265   0.656  1.00  0.00     0.231 C 
HETATM   23  C   UNL     1      37.110 -12.018  -0.202  1.00  0.00     0.034 C 
ENDBRANCH  20  22
BRANCH  20  24
HETATM   24  C   UNL     1      39.225 -13.341   2.174  1.00  0.00     0.231 C 
HETATM   25  C   UNL     1      39.721 -14.575   2.909  1.00  0.00     0.034 C 
ENDBRANCH  20  24
ENDBRANCH  19  20
ENDBRANCH   1  19
BRANCH   2  26
HETATM   26  C   UNL     1      38.580 -13.425  -3.324  1.00  0.00     0.225 A 
HETATM   27  N   UNL     1      38.703 -12.105  -3.492  1.00  0.00    -0.081 NA
HETATM   28  O   UNL     1      37.509 -11.742  -4.126  1.00  0.00    -0.103 OA
HETATM   29  N   UNL     1      36.681 -12.840  -4.302  1.00  0.00    -0.083 NA
HETATM   30  C   UNL     1      37.341 -13.883  -3.802  1.00  0.00     0.201 A 
BRANCH  30  31
HETATM   31  N   UNL     1      36.877 -15.142  -3.786  1.00  0.00    -0.379 N 
HETATM   32  H   UNL     1      36.181 -15.442  -4.464  1.00  0.00     0.158 HD
HETATM   33  H   UNL     1      37.043 -15.800  -3.028  1.00  0.00     0.158 HD
ENDBRANCH  30  31
ENDBRANCH   2  26
TORSDOF 9
ENDMDL
MODEL 9
REMARK VINA RESULT:      -6.9      6.159      8.693
REMARK  9 active torsions:
REMARK  status: ('A' for Active; 'I' for Inactive)
REMARK    1  A    between atoms: C_2  and  N_3 
REMARK    2  A    between atoms: N_3  and  C_5 
REMARK    3  A    between atoms: N_3  and  C_29 
REMARK    4  A    between atoms: C_5  and  C_6 
REMARK    5  A    between atoms: N_7  and  C_8 
REMARK    6  A    between atoms: C_12  and  N_13 
REMARK    7  A    between atoms: C_16  and  C_17 
REMARK       I    between atoms: C_17  and  N_18 
REMARK    8  A    between atoms: N_18  and  N_19 
REMARK    9  A    between atoms: C_20  and  C_21 
ROOT
HETATM    1  C   UNL     1      42.892 -16.762   4.628  1.00  0.00     0.096 A 
HETATM    2  N   UNL     1      43.546 -17.052   5.822  1.00  0.00    -0.215 N 
HETATM    3  N   UNL     1      43.976 -15.888   6.377  1.00  0.00     0.012 NA
HETATM    4  N   UNL     1      43.546 -14.870   5.649  1.00  0.00    -0.152 NA
HETATM    5  C   UNL     1      42.873 -15.374   4.575  1.00  0.00     0.170 A 
ENDROOT
BRANCH   5   6
HETATM    6  C   UNL     1      42.240 -14.552   3.551  1.00  0.00     0.293 C 
HETATM    7  N   UNL     1      40.862 -14.641   3.526  1.00  0.00    -0.242 N 
HETATM    8  H   UNL     1      40.369 -15.239   4.184  1.00  0.00     0.192 HD
HETATM    9  O   UNL     1      42.932 -13.880   2.791  1.00  0.00    -0.264 OA
BRANCH   7  10
HETATM   10  N   UNL     1      40.167 -13.882   2.636  1.00  0.00    -0.184 NA
HETATM   11  C   UNL     1      39.743 -14.484   1.571  1.00  0.00     0.150 C 
BRANCH  11  12
HETATM   12  C   UNL     1      38.954 -13.765   0.551  1.00  0.00    -0.016 A 
HETATM   13  C   UNL     1      37.968 -12.849   0.932  1.00  0.00     0.031 A 
HETATM   14  C   UNL     1      37.227 -12.191  -0.049  1.00  0.00     0.007 A 
HETATM   15  I   UNL     1      35.751 -10.837   0.509  1.00  0.00    -0.045 I 
HETATM   16  C   UNL     1      37.466 -12.439  -1.401  1.00  0.00     0.018 A 
HETATM   17  C   UNL     1      38.454 -13.353  -1.776  1.00  0.00     0.002 A 
HETATM   18  C   UNL     1      39.199 -14.020  -0.801  1.00  0.00     0.013 A 
ENDBRANCH  11  12
ENDBRANCH   7  10
ENDBRANCH   5   6
BRANCH   1  19
HETATM   19  C   UNL     1      42.436 -17.756   3.625  1.00  0.00     0.296 C 
BRANCH  19  20
HETATM   20  N   UNL     1      43.515 -18.356   2.738  1.00  0.00    -0.066 N 
HETATM   21  H   UNL     1      44.324 -18.541   3.348  1.00  0.00     0.280 HD
BRANCH  20  22
HETATM   22  C   UNL     1      43.963 -17.358   1.677  1.00  0.00     0.231 C 
HETATM   23  C   UNL     1      42.817 -16.976   0.757  1.00  0.00     0.034 C 
ENDBRANCH  20  22
BRANCH  20  24
HETATM   24  C   UNL     1      43.081 -19.671   2.104  1.00  0.00     0.231 C 
HETATM   25  C   UNL     1      44.150 -20.738   2.275  1.00  0.00     0.034 C 
ENDBRANCH  20  24
ENDBRANCH  19  20
ENDBRANCH   1  19
BRANCH   2  26
HETATM   26  C   UNL     1      43.724 -18.307   6.449  1.00  0.00     0.225 A 
HETATM   27  N   UNL     1      43.883 -19.405   5.705  1.00  0.00    -0.081 NA
HETATM   28  O   UNL     1      44.007 -20.429   6.652  1.00  0.00    -0.103 OA
HETATM   29  N   UNL     1      43.891 -19.934   7.942  1.00  0.00    -0.083 NA
HETATM   30  C   UNL     1      43.712 -18.620   7.819  1.00  0.00     0.201 A 
BRANCH  30  31
HETATM   31  N   UNL     1      43.562 -17.772   8.847  1.00  0.00    -0.379 N 
HETATM   32  H   UNL     1      44.370 -17.465   9.382  1.00  0.00     0.158 HD
HETATM   33  H   UNL     1      42.663 -17.526   9.256  1.00  0.00     0.158 HD
ENDBRANCH  30  31
ENDBRANCH   2  26
TORSDOF 9
ENDMDL
MODEL 10
REMARK VINA RESULT:      -6.9      6.112      9.808
REMARK  9 active torsions:
REMARK  status: ('A' for Active; 'I' for Inactive)
REMARK    1  A    between atoms: C_2  and  N_3 
REMARK    2  A    between atoms: N_3  and  C_5 
REMARK    3  A    between atoms: N_3  and  C_29 
REMARK    4  A    between atoms: C_5  and  C_6 
REMARK    5  A    between atoms: N_7  and  C_8 
REMARK    6  A    between atoms: C_12  and  N_13 
REMARK    7  A    between atoms: C_16  and  C_17 
REMARK       I    between atoms: C_17  and  N_18 
REMARK    8  A    between atoms: N_18  and  N_19 
REMARK    9  A    between atoms: C_20  and  C_21 
ROOT
HETATM    1  C   UNL     1      43.374 -18.314   3.629  1.00  0.00     0.096 A 
HETATM    2  N   UNL     1      43.994 -19.329   2.906  1.00  0.00    -0.215 N 
HETATM    3  N   UNL     1      44.289 -18.861   1.664  1.00  0.00     0.012 NA
HETATM    4  N   UNL     1      43.975 -17.578   1.594  1.00  0.00    -0.152 NA
HETATM    5  C   UNL     1      43.420 -17.213   2.785  1.00  0.00     0.170 A 
ENDROOT
BRANCH   5   6
HETATM    6  C   UNL     1      42.961 -15.864   3.090  1.00  0.00     0.293 C 
HETATM    7  N   UNL     1      41.906 -15.434   2.309  1.00  0.00    -0.242 N 
HETATM    8  H   UNL     1      41.510 -16.039   1.595  1.00  0.00     0.192 HD
HETATM    9  O   UNL     1      43.525 -15.207   3.962  1.00  0.00    -0.264 OA
BRANCH   7  10
HETATM   10  N   UNL     1      41.371 -14.204   2.539  1.00  0.00    -0.184 NA
HETATM   11  C   UNL     1      40.278 -14.170   3.232  1.00  0.00     0.150 C 
BRANCH  11  12
HETATM   12  C   UNL     1      39.626 -12.888   3.566  1.00  0.00    -0.016 A 
HETATM   13  C   UNL     1      38.840 -12.224   2.618  1.00  0.00     0.031 A 
HETATM   14  C   UNL     1      38.245 -11.008   2.951  1.00  0.00     0.007 A 
HETATM   15  I   UNL     1      37.086 -10.008   1.545  1.00  0.00    -0.045 I 
HETATM   16  C   UNL     1      38.425 -10.456   4.220  1.00  0.00     0.018 A 
HETATM   17  C   UNL     1      39.208 -11.126   5.164  1.00  0.00     0.002 A 
HETATM   18  C   UNL     1      39.813 -12.342   4.839  1.00  0.00     0.013 A 
ENDBRANCH  11  12
ENDBRANCH   7  10
ENDBRANCH   5   6
BRANCH   1  19
HETATM   19  C   UNL     1      42.730 -18.464   4.958  1.00  0.00     0.296 C 
BRANCH  19  20
HETATM   20  N   UNL     1      43.213 -17.521   6.047  1.00  0.00    -0.066 N 
HETATM   21  H   UNL     1      43.603 -16.697   5.568  1.00  0.00     0.280 HD
BRANCH  20  22
HETATM   22  C   UNL     1      44.341 -18.156   6.853  1.00  0.00     0.231 C 
HETATM   23  C   UNL     1      43.835 -19.309   7.700  1.00  0.00     0.034 C 
ENDBRANCH  20  22
BRANCH  20  24
HETATM   24  C   UNL     1      42.084 -17.057   6.958  1.00  0.00     0.231 C 
HETATM   25  C   UNL     1      40.811 -16.812   6.165  1.00  0.00     0.034 C 
ENDBRANCH  20  24
ENDBRANCH  19  20
ENDBRANCH   1  19
BRANCH   2  26
HETATM   26  C   UNL     1      44.347 -20.629   3.335  1.00  0.00     0.225 A 
HETATM   27  N   UNL     1      44.859 -20.811   4.556  1.00  0.00    -0.081 NA
HETATM   28  O   UNL     1      45.095 -22.189   4.612  1.00  0.00    -0.103 OA
HETATM   29  N   UNL     1      44.749 -22.806   3.419  1.00  0.00    -0.083 NA
HETATM   30  C   UNL     1      44.289 -21.840   2.625  1.00  0.00     0.201 A 
BRANCH  30  31
HETATM   31  N   UNL     1      43.843 -22.030   1.374  1.00  0.00    -0.379 N 
HETATM   32  H   UNL     1      42.964 -21.619   1.073  1.00  0.00     0.158 HD
HETATM   33  H   UNL     1      44.240 -22.707   0.725  1.00  0.00     0.158 HD
ENDBRANCH  30  31
ENDBRANCH   2  26
TORSDOF 9
ENDMDL
