MODEL 1
REMARK VINA RESULT:      -8.5      0.000      0.000
REMARK  3 active torsions:
REMARK  status: ('A' for Active; 'I' for Inactive)
REMARK    1  A    between atoms: C_7  and  C_8 
REMARK    2  A    between atoms: N_9  and  C_11 
REMARK    3  A    between atoms: C_11  and  C_12 
ROOT
HETATM    1  C   UNL     1      43.395 -16.949   6.183  1.00  0.00     0.238 C 
HETATM    2  N   UNL     1      42.669 -16.108   5.148  1.00  0.00    -0.056 N 
HETATM    3  H   UNL     1      43.313 -16.055   4.352  1.00  0.00     0.281 HD
HETATM    4  C   UNL     1      42.433 -14.684   5.597  1.00  0.00     0.236 C 
HETATM    5  C   UNL     1      43.749 -14.017   5.955  1.00  0.00     0.028 C 
HETATM    6  C   UNL     1      44.450 -14.788   7.059  1.00  0.00     0.004 C 
HETATM    7  C   UNL     1      44.683 -16.228   6.629  1.00  0.00     0.040 C 
ENDROOT
BRANCH   2   8
HETATM    8  C   UNL     1      41.403 -16.740   4.579  1.00  0.00     0.294 C 
BRANCH   8   9
HETATM    9  C   UNL     1      41.170 -16.506   3.138  1.00  0.00     0.061 A 
HETATM   10  N   UNL     1      40.472 -15.440   2.605  1.00  0.00    -0.305 N 
HETATM   11  C   UNL     1      40.542 -15.567   1.240  1.00  0.00     0.151 A 
HETATM   12  C   UNL     1      39.793 -14.366   3.157  1.00  0.00     0.118 A 
HETATM   13  C   UNL     1      39.948 -14.548   0.416  1.00  0.00     0.167 A 
HETATM   14  N   UNL     1      41.160 -16.661   0.864  1.00  0.00    -0.239 NA
HETATM   15  N   UNL     1      39.342 -13.519   0.944  1.00  0.00    -0.268 NA
HETATM   16  C   UNL     1      39.255 -13.456   2.324  1.00  0.00     0.134 A 
HETATM   17  C   UNL     1      41.502 -17.278   2.034  1.00  0.00     0.146 A 
ENDBRANCH   8   9
ENDBRANCH   2   8
BRANCH   1  18
HETATM   18  C   UNL     1      43.777 -18.293   5.646  1.00  0.00     0.041 A 
HETATM   19  N   UNL     1      43.878 -18.533   4.291  1.00  0.00    -0.357 N 
HETATM   20  C   UNL     1      44.200 -19.850   4.058  1.00  0.00     0.042 A 
HETATM   21  H   UNL     1      43.726 -17.861   3.548  1.00  0.00     0.166 HD
HETATM   22  C   UNL     1      44.276 -20.485   5.296  1.00  0.00    -0.008 A 
HETATM   23  C   UNL     1      44.407 -20.528   2.851  1.00  0.00     0.030 A 
HETATM   24  C   UNL     1      44.566 -21.861   5.340  1.00  0.00     0.014 A 
HETATM   25  C   UNL     1      43.999 -19.503   6.284  1.00  0.00     0.040 A 
HETATM   26  C   UNL     1      44.773 -22.554   4.143  1.00  0.00     0.001 A 
HETATM   27  C   UNL     1      44.695 -21.894   2.918  1.00  0.00     0.002 A 
ENDBRANCH   1  18
TORSDOF 3
ENDMDL
MODEL 2
REMARK VINA RESULT:      -8.4      1.006      2.068
REMARK  3 active torsions:
REMARK  status: ('A' for Active; 'I' for Inactive)
REMARK    1  A    between atoms: C_7  and  C_8 
REMARK    2  A    between atoms: N_9  and  C_11 
REMARK    3  A    between atoms: C_11  and  C_12 
ROOT
HETATM    1  C   UNL     1      43.319 -17.067   5.782  1.00  0.00     0.238 C 
HETATM    2  N   UNL     1      42.578 -15.982   5.021  1.00  0.00    -0.056 N 
HETATM    3  H   UNL     1      43.161 -15.793   4.198  1.00  0.00     0.281 HD
HETATM    4  C   UNL     1      42.483 -14.680   5.782  1.00  0.00     0.236 C 
HETATM    5  C   UNL     1      43.867 -14.180   6.150  1.00  0.00     0.028 C 
HETATM    6  C   UNL     1      44.594 -15.210   6.997  1.00  0.00     0.004 C 
HETATM    7  C   UNL     1      44.688 -16.532   6.251  1.00  0.00     0.040 C 
ENDROOT
BRANCH   2   8
HETATM    8  C   UNL     1      41.229 -16.406   4.449  1.00  0.00     0.294 C 
BRANCH   8   9
HETATM    9  C   UNL     1      40.648 -15.486   3.449  1.00  0.00     0.061 A 
HETATM   10  N   UNL     1      40.893 -15.526   2.090  1.00  0.00    -0.305 N 
HETATM   11  C   UNL     1      40.117 -14.546   1.520  1.00  0.00     0.151 A 
HETATM   12  C   UNL     1      41.696 -16.315   1.283  1.00  0.00     0.118 A 
HETATM   13  C   UNL     1      40.123 -14.400   0.090  1.00  0.00     0.167 A 
HETATM   14  N   UNL     1      39.460 -13.841   2.409  1.00  0.00    -0.239 NA
HETATM   15  N   UNL     1      40.856 -15.172  -0.666  1.00  0.00    -0.268 NA
HETATM   16  C   UNL     1      41.656 -16.115  -0.047  1.00  0.00     0.134 A 
HETATM   17  C   UNL     1      39.827 -14.379   3.611  1.00  0.00     0.146 A 
ENDBRANCH   8   9
ENDBRANCH   2   8
BRANCH   1  18
HETATM   18  C   UNL     1      43.559 -18.281   4.940  1.00  0.00     0.041 A 
HETATM   19  N   UNL     1      44.065 -19.449   5.473  1.00  0.00    -0.357 N 
HETATM   20  C   UNL     1      44.230 -20.395   4.490  1.00  0.00     0.042 A 
HETATM   21  H   UNL     1      44.306 -19.611   6.444  1.00  0.00     0.166 HD
HETATM   22  C   UNL     1      43.854 -19.812   3.282  1.00  0.00    -0.008 A 
HETATM   23  C   UNL     1      44.705 -21.710   4.574  1.00  0.00     0.030 A 
HETATM   24  C   UNL     1      43.956 -20.565   2.099  1.00  0.00     0.014 A 
HETATM   25  C   UNL     1      43.444 -18.483   3.573  1.00  0.00     0.040 A 
HETATM   26  C   UNL     1      44.430 -21.880   2.165  1.00  0.00     0.001 A 
HETATM   27  C   UNL     1      44.797 -22.441   3.386  1.00  0.00     0.002 A 
ENDBRANCH   1  18
TORSDOF 3
ENDMDL
MODEL 3
REMARK VINA RESULT:      -8.3      1.959      4.017
REMARK  3 active torsions:
REMARK  status: ('A' for Active; 'I' for Inactive)
REMARK    1  A    between atoms: C_7  and  C_8 
REMARK    2  A    between atoms: N_9  and  C_11 
REMARK    3  A    between atoms: C_11  and  C_12 
ROOT
HETATM    1  C   UNL     1      42.785 -16.957   2.278  1.00  0.00     0.238 C 
HETATM    2  N   UNL     1      41.449 -16.619   2.917  1.00  0.00    -0.056 N 
HETATM    3  H   UNL     1      40.859 -17.439   2.742  1.00  0.00     0.281 HD
HETATM    4  C   UNL     1      40.754 -15.448   2.260  1.00  0.00     0.236 C 
HETATM    5  C   UNL     1      40.551 -15.716   0.780  1.00  0.00     0.028 C 
HETATM    6  C   UNL     1      41.886 -15.961   0.098  1.00  0.00     0.004 C 
HETATM    7  C   UNL     1      42.605 -17.128   0.756  1.00  0.00     0.040 C 
ENDROOT
BRANCH   2   8
HETATM    8  C   UNL     1      41.479 -16.481   4.435  1.00  0.00     0.294 C 
BRANCH   8   9
HETATM    9  C   UNL     1      42.015 -15.201   4.944  1.00  0.00     0.061 A 
HETATM   10  N   UNL     1      41.255 -14.142   5.401  1.00  0.00    -0.305 N 
HETATM   11  C   UNL     1      42.136 -13.183   5.835  1.00  0.00     0.151 A 
HETATM   12  C   UNL     1      39.893 -13.910   5.497  1.00  0.00     0.118 A 
HETATM   13  C   UNL     1      41.617 -11.980   6.427  1.00  0.00     0.167 A 
HETATM   14  N   UNL     1      43.388 -13.513   5.624  1.00  0.00    -0.239 NA
HETATM   15  N   UNL     1      40.331 -11.785   6.547  1.00  0.00    -0.268 NA
HETATM   16  C   UNL     1      39.480 -12.757   6.054  1.00  0.00     0.134 A 
HETATM   17  C   UNL     1      43.321 -14.737   5.021  1.00  0.00     0.146 A 
ENDBRANCH   8   9
ENDBRANCH   2   8
BRANCH   1  18
HETATM   18  C   UNL     1      43.363 -18.225   2.824  1.00  0.00     0.041 A 
HETATM   19  N   UNL     1      43.352 -19.400   2.100  1.00  0.00    -0.357 N 
HETATM   20  C   UNL     1      43.903 -20.423   2.835  1.00  0.00     0.042 A 
HETATM   21  H   UNL     1      42.983 -19.527   1.165  1.00  0.00     0.166 HD
HETATM   22  C   UNL     1      44.248 -19.902   4.080  1.00  0.00    -0.008 A 
HETATM   23  C   UNL     1      44.099 -21.769   2.503  1.00  0.00     0.030 A 
HETATM   24  C   UNL     1      44.811 -20.757   5.045  1.00  0.00     0.014 A 
HETATM   25  C   UNL     1      43.897 -18.526   4.066  1.00  0.00     0.040 A 
HETATM   26  C   UNL     1      45.013 -22.105   4.730  1.00  0.00     0.001 A 
HETATM   27  C   UNL     1      44.661 -22.600   3.475  1.00  0.00     0.002 A 
ENDBRANCH   1  18
TORSDOF 3
ENDMDL
MODEL 4
REMARK VINA RESULT:      -8.2      1.430      4.919
REMARK  3 active torsions:
REMARK  status: ('A' for Active; 'I' for Inactive)
REMARK    1  A    between atoms: C_7  and  C_8 
REMARK    2  A    between atoms: N_9  and  C_11 
REMARK    3  A    between atoms: C_11  and  C_12 
ROOT
HETATM    1  C   UNL     1      42.167 -16.309   1.797  1.00  0.00     0.238 C 
HETATM    2  N   UNL     1      40.791 -16.068   2.392  1.00  0.00    -0.056 N 
HETATM    3  H   UNL     1      40.202 -16.811   2.002  1.00  0.00     0.281 HD
HETATM    4  C   UNL     1      40.173 -14.760   1.952  1.00  0.00     0.236 C 
HETATM    5  C   UNL     1      40.084 -14.700   0.438  1.00  0.00     0.028 C 
HETATM    6  C   UNL     1      41.465 -14.842  -0.179  1.00  0.00     0.004 C 
HETATM    7  C   UNL     1      42.107 -16.147   0.264  1.00  0.00     0.040 C 
ENDROOT
BRANCH   2   8
HETATM    8  C   UNL     1      40.702 -16.258   3.903  1.00  0.00     0.294 C 
BRANCH   8   9
HETATM    9  C   UNL     1      41.701 -15.509   4.695  1.00  0.00     0.061 A 
HETATM   10  N   UNL     1      42.297 -15.957   5.857  1.00  0.00    -0.305 N 
HETATM   11  C   UNL     1      43.198 -14.993   6.235  1.00  0.00     0.151 A 
HETATM   12  C   UNL     1      42.164 -17.104   6.623  1.00  0.00     0.118 A 
HETATM   13  C   UNL     1      44.019 -15.224   7.393  1.00  0.00     0.167 A 
HETATM   14  N   UNL     1      43.170 -13.940   5.453  1.00  0.00    -0.239 NA
HETATM   15  N   UNL     1      43.913 -16.325   8.088  1.00  0.00    -0.268 NA
HETATM   16  C   UNL     1      42.960 -17.248   7.698  1.00  0.00     0.134 A 
HETATM   17  C   UNL     1      42.204 -14.227   4.530  1.00  0.00     0.146 A 
ENDBRANCH   8   9
ENDBRANCH   2   8
BRANCH   1  18
HETATM   18  C   UNL     1      42.677 -17.684   2.099  1.00  0.00     0.041 A 
HETATM   19  N   UNL     1      43.508 -17.932   3.172  1.00  0.00    -0.357 N 
HETATM   20  C   UNL     1      43.866 -19.259   3.207  1.00  0.00     0.042 A 
HETATM   21  H   UNL     1      43.838 -17.252   3.847  1.00  0.00     0.166 HD
HETATM   22  C   UNL     1      43.278 -19.878   2.106  1.00  0.00    -0.008 A 
HETATM   23  C   UNL     1      44.681 -19.950   4.112  1.00  0.00     0.030 A 
HETATM   24  C   UNL     1      43.512 -21.248   1.888  1.00  0.00     0.014 A 
HETATM   25  C   UNL     1      42.543 -18.880   1.412  1.00  0.00     0.040 A 
HETATM   26  C   UNL     1      44.325 -21.953   2.781  1.00  0.00     0.001 A 
HETATM   27  C   UNL     1      44.899 -21.311   3.877  1.00  0.00     0.002 A 
ENDBRANCH   1  18
TORSDOF 3
ENDMDL
MODEL 5
REMARK VINA RESULT:      -8.2      1.703      5.892
REMARK  3 active torsions:
REMARK  status: ('A' for Active; 'I' for Inactive)
REMARK    1  A    between atoms: C_7  and  C_8 
REMARK    2  A    between atoms: N_9  and  C_11 
REMARK    3  A    between atoms: C_11  and  C_12 
ROOT
HETATM    1  C   UNL     1      42.356 -18.535   3.159  1.00  0.00     0.238 C 
HETATM    2  N   UNL     1      43.094 -18.074   4.404  1.00  0.00    -0.056 N 
HETATM    3  H   UNL     1      43.780 -17.392   4.065  1.00  0.00     0.281 HD
HETATM    4  C   UNL     1      43.884 -19.177   5.070  1.00  0.00     0.236 C 
HETATM    5  C   UNL     1      44.875 -19.782   4.093  1.00  0.00     0.028 C 
HETATM    6  C   UNL     1      44.149 -20.340   2.881  1.00  0.00     0.004 C 
HETATM    7  C   UNL     1      43.337 -19.246   2.205  1.00  0.00     0.040 C 
ENDROOT
BRANCH   2   8
HETATM    8  C   UNL     1      42.242 -17.301   5.406  1.00  0.00     0.294 C 
BRANCH   8   9
HETATM    9  C   UNL     1      42.577 -15.868   5.548  1.00  0.00     0.061 A 
HETATM   10  N   UNL     1      41.662 -14.833   5.582  1.00  0.00    -0.305 N 
HETATM   11  C   UNL     1      42.379 -13.680   5.785  1.00  0.00     0.151 A 
HETATM   12  C   UNL     1      40.283 -14.769   5.469  1.00  0.00     0.118 A 
HETATM   13  C   UNL     1      41.669 -12.437   5.927  1.00  0.00     0.167 A 
HETATM   14  N   UNL     1      43.674 -13.886   5.808  1.00  0.00    -0.239 NA
HETATM   15  N   UNL     1      40.366 -12.391   5.856  1.00  0.00    -0.268 NA
HETATM   16  C   UNL     1      39.688 -13.570   5.604  1.00  0.00     0.134 A 
HETATM   17  C   UNL     1      43.808 -15.231   5.605  1.00  0.00     0.146 A 
ENDBRANCH   8   9
ENDBRANCH   2   8
BRANCH   1  18
HETATM   18  C   UNL     1      41.733 -17.392   2.419  1.00  0.00     0.041 A 
HETATM   19  N   UNL     1      40.468 -16.933   2.722  1.00  0.00    -0.357 N 
HETATM   20  C   UNL     1      40.112 -15.909   1.876  1.00  0.00     0.042 A 
HETATM   21  H   UNL     1      39.856 -17.289   3.447  1.00  0.00     0.166 HD
HETATM   22  C   UNL     1      41.163 -15.725   0.980  1.00  0.00    -0.008 A 
HETATM   23  C   UNL     1      38.937 -15.150   1.821  1.00  0.00     0.030 A 
HETATM   24  C   UNL     1      41.043 -14.745  -0.023  1.00  0.00     0.014 A 
HETATM   25  C   UNL     1      42.170 -16.666   1.323  1.00  0.00     0.040 A 
HETATM   26  C   UNL     1      39.873 -13.980  -0.093  1.00  0.00     0.001 A 
HETATM   27  C   UNL     1      38.838 -14.182   0.818  1.00  0.00     0.002 A 
ENDBRANCH   1  18
TORSDOF 3
ENDMDL
MODEL 6
REMARK VINA RESULT:      -8.0      2.107      2.900
REMARK  3 active torsions:
REMARK  status: ('A' for Active; 'I' for Inactive)
REMARK    1  A    between atoms: C_7  and  C_8 
REMARK    2  A    between atoms: N_9  and  C_11 
REMARK    3  A    between atoms: C_11  and  C_12 
ROOT
HETATM    1  C   UNL     1      41.427 -15.822   4.079  1.00  0.00     0.238 C 
HETATM    2  N   UNL     1      42.188 -14.542   3.784  1.00  0.00    -0.056 N 
HETATM    3  H   UNL     1      42.999 -14.567   4.411  1.00  0.00     0.281 HD
HETATM    4  C   UNL     1      41.414 -13.293   4.141  1.00  0.00     0.236 C 
HETATM    5  C   UNL     1      41.018 -13.317   5.606  1.00  0.00     0.028 C 
HETATM    6  C   UNL     1      40.172 -14.542   5.905  1.00  0.00     0.004 C 
HETATM    7  C   UNL     1      40.930 -15.808   5.539  1.00  0.00     0.040 C 
ENDROOT
BRANCH   2   8
HETATM    8  C   UNL     1      42.785 -14.458   2.383  1.00  0.00     0.294 C 
BRANCH   8   9
HETATM    9  C   UNL     1      41.809 -14.268   1.289  1.00  0.00     0.061 A 
HETATM   10  N   UNL     1      41.572 -13.078   0.628  1.00  0.00    -0.305 N 
HETATM   11  C   UNL     1      40.645 -13.348  -0.348  1.00  0.00     0.151 A 
HETATM   12  C   UNL     1      42.069 -11.792   0.761  1.00  0.00     0.118 A 
HETATM   13  C   UNL     1      40.251 -12.293  -1.242  1.00  0.00     0.167 A 
HETATM   14  N   UNL     1      40.221 -14.588  -0.314  1.00  0.00    -0.239 NA
HETATM   15  N   UNL     1      40.752 -11.091  -1.133  1.00  0.00    -0.268 NA
HETATM   16  C   UNL     1      41.648 -10.853  -0.106  1.00  0.00     0.134 A 
HETATM   17  C   UNL     1      40.894 -15.150   0.734  1.00  0.00     0.146 A 
ENDBRANCH   8   9
ENDBRANCH   2   8
BRANCH   1  18
HETATM   18  C   UNL     1      42.279 -17.039   3.890  1.00  0.00     0.041 A 
HETATM   19  N   UNL     1      42.151 -17.851   2.781  1.00  0.00    -0.357 N 
HETATM   20  C   UNL     1      43.014 -18.918   2.865  1.00  0.00     0.042 A 
HETATM   21  H   UNL     1      41.511 -17.716   2.007  1.00  0.00     0.166 HD
HETATM   22  C   UNL     1      43.693 -18.811   4.077  1.00  0.00    -0.008 A 
HETATM   23  C   UNL     1      43.227 -19.978   1.975  1.00  0.00     0.030 A 
HETATM   24  C   UNL     1      44.626 -19.804   4.427  1.00  0.00     0.014 A 
HETATM   25  C   UNL     1      43.218 -17.635   4.716  1.00  0.00     0.040 A 
HETATM   26  C   UNL     1      44.849 -20.871   3.549  1.00  0.00     0.001 A 
HETATM   27  C   UNL     1      44.159 -20.953   2.341  1.00  0.00     0.002 A 
ENDBRANCH   1  18
TORSDOF 3
ENDMDL
MODEL 7
REMARK VINA RESULT:      -7.9      6.724      9.282
REMARK  3 active torsions:
REMARK  status: ('A' for Active; 'I' for Inactive)
REMARK    1  A    between atoms: C_7  and  C_8 
REMARK    2  A    between atoms: N_9  and  C_11 
REMARK    3  A    between atoms: C_11  and  C_12 
ROOT
HETATM    1  C   UNL     1      42.219 -10.467  11.849  1.00  0.00     0.238 C 
HETATM    2  N   UNL     1      41.859  -8.996  11.735  1.00  0.00    -0.056 N 
HETATM    3  H   UNL     1      42.741  -8.496  11.888  1.00  0.00     0.281 HD
HETATM    4  C   UNL     1      40.914  -8.530  12.819  1.00  0.00     0.236 C 
HETATM    5  C   UNL     1      41.506  -8.798  14.190  1.00  0.00     0.028 C 
HETATM    6  C   UNL     1      41.786 -10.281  14.364  1.00  0.00     0.004 C 
HETATM    7  C   UNL     1      42.725 -10.770  13.273  1.00  0.00     0.040 C 
ENDROOT
BRANCH   2   8
HETATM    8  C   UNL     1      41.398  -8.552  10.351  1.00  0.00     0.294 C 
BRANCH   8   9
HETATM    9  C   UNL     1      40.421  -9.445   9.692  1.00  0.00     0.061 A 
HETATM   10  N   UNL     1      40.625 -10.112   8.501  1.00  0.00    -0.305 N 
HETATM   11  C   UNL     1      39.504 -10.873   8.278  1.00  0.00     0.151 A 
HETATM   12  C   UNL     1      41.669 -10.152   7.590  1.00  0.00     0.118 A 
HETATM   13  C   UNL     1      39.465 -11.732   7.125  1.00  0.00     0.167 A 
HETATM   14  N   UNL     1      38.578 -10.687   9.187  1.00  0.00    -0.239 NA
HETATM   15  N   UNL     1      40.469 -11.790   6.291  1.00  0.00    -0.268 NA
HETATM   16  C   UNL     1      41.559 -10.973   6.530  1.00  0.00     0.134 A 
HETATM   17  C   UNL     1      39.114  -9.760  10.036  1.00  0.00     0.146 A 
ENDBRANCH   8   9
ENDBRANCH   2   8
BRANCH   1  18
HETATM   18  C   UNL     1      43.292 -10.859  10.881  1.00  0.00     0.041 A 
HETATM   19  N   UNL     1      43.156 -11.948  10.045  1.00  0.00    -0.357 N 
HETATM   20  C   UNL     1      44.290 -12.119   9.287  1.00  0.00     0.042 A 
HETATM   21  H   UNL     1      42.353 -12.564   9.986  1.00  0.00     0.166 HD
HETATM   22  C   UNL     1      45.197 -11.133   9.668  1.00  0.00    -0.008 A 
HETATM   23  C   UNL     1      44.589 -13.080   8.314  1.00  0.00     0.030 A 
HETATM   24  C   UNL     1      46.466 -11.100   9.060  1.00  0.00     0.014 A 
HETATM   25  C   UNL     1      44.566 -10.354  10.675  1.00  0.00     0.040 A 
HETATM   26  C   UNL     1      46.781 -12.055   8.087  1.00  0.00     0.001 A 
HETATM   27  C   UNL     1      45.854 -13.029   7.722  1.00  0.00     0.002 A 
ENDBRANCH   1  18
TORSDOF 3
ENDMDL
MODEL 8
REMARK VINA RESULT:      -7.9      2.151      3.481
REMARK  3 active torsions:
REMARK  status: ('A' for Active; 'I' for Inactive)
REMARK    1  A    between atoms: C_7  and  C_8 
REMARK    2  A    between atoms: N_9  and  C_11 
REMARK    3  A    between atoms: C_11  and  C_12 
ROOT
HETATM    1  C   UNL     1      41.236 -15.316   4.002  1.00  0.00     0.238 C 
HETATM    2  N   UNL     1      42.181 -14.128   3.941  1.00  0.00    -0.056 N 
HETATM    3  H   UNL     1      42.922 -14.347   4.615  1.00  0.00     0.281 HD
HETATM    4  C   UNL     1      41.547 -12.839   4.411  1.00  0.00     0.236 C 
HETATM    5  C   UNL     1      41.022 -12.993   5.827  1.00  0.00     0.028 C 
HETATM    6  C   UNL     1      39.999 -14.114   5.893  1.00  0.00     0.004 C 
HETATM    7  C   UNL     1      40.617 -15.417   5.411  1.00  0.00     0.040 C 
ENDROOT
BRANCH   2   8
HETATM    8  C   UNL     1      42.907 -13.952   2.612  1.00  0.00     0.294 C 
BRANCH   8   9
HETATM    9  C   UNL     1      42.125 -13.288   1.547  1.00  0.00     0.061 A 
HETATM   10  N   UNL     1      41.606 -13.913   0.430  1.00  0.00    -0.305 N 
HETATM   11  C   UNL     1      40.905 -12.959  -0.265  1.00  0.00     0.151 A 
HETATM   12  C   UNL     1      41.657 -15.210  -0.054  1.00  0.00     0.118 A 
HETATM   13  C   UNL     1      40.197 -13.347  -1.455  1.00  0.00     0.167 A 
HETATM   14  N   UNL     1      40.998 -11.768   0.276  1.00  0.00    -0.239 NA
HETATM   15  N   UNL     1      40.219 -14.580  -1.884  1.00  0.00    -0.268 NA
HETATM   16  C   UNL     1      40.976 -15.498  -1.179  1.00  0.00     0.134 A 
HETATM   17  C   UNL     1      41.799 -11.952   1.367  1.00  0.00     0.146 A 
ENDBRANCH   8   9
ENDBRANCH   2   8
BRANCH   1  18
HETATM   18  C   UNL     1      41.936 -16.606   3.707  1.00  0.00     0.041 A 
HETATM   19  N   UNL     1      42.913 -17.110   4.541  1.00  0.00    -0.357 N 
HETATM   20  C   UNL     1      43.427 -18.279   4.030  1.00  0.00     0.042 A 
HETATM   21  H   UNL     1      43.240 -16.693   5.405  1.00  0.00     0.166 HD
HETATM   22  C   UNL     1      42.787 -18.518   2.816  1.00  0.00    -0.008 A 
HETATM   23  C   UNL     1      44.420 -19.125   4.537  1.00  0.00     0.030 A 
HETATM   24  C   UNL     1      43.152 -19.650   2.064  1.00  0.00     0.014 A 
HETATM   25  C   UNL     1      41.862 -17.459   2.618  1.00  0.00     0.040 A 
HETATM   26  C   UNL     1      44.145 -20.505   2.555  1.00  0.00     0.001 A 
HETATM   27  C   UNL     1      44.767 -20.244   3.774  1.00  0.00     0.002 A 
ENDBRANCH   1  18
TORSDOF 3
ENDMDL
MODEL 9
REMARK VINA RESULT:      -7.7      1.941      6.894
REMARK  3 active torsions:
REMARK  status: ('A' for Active; 'I' for Inactive)
REMARK    1  A    between atoms: C_7  and  C_8 
REMARK    2  A    between atoms: N_9  and  C_11 
REMARK    3  A    between atoms: C_11  and  C_12 
ROOT
HETATM    1  C   UNL     1      41.440 -17.617   2.420  1.00  0.00     0.238 C 
HETATM    2  N   UNL     1      42.134 -17.456   3.762  1.00  0.00    -0.056 N 
HETATM    3  H   UNL     1      42.804 -16.692   3.621  1.00  0.00     0.281 HD
HETATM    4  C   UNL     1      42.948 -18.666   4.160  1.00  0.00     0.236 C 
HETATM    5  C   UNL     1      43.980 -18.984   3.094  1.00  0.00     0.028 C 
HETATM    6  C   UNL     1      43.301 -19.246   1.761  1.00  0.00     0.004 C 
HETATM    7  C   UNL     1      42.467 -18.042   1.351  1.00  0.00     0.040 C 
ENDROOT
BRANCH   2   8
HETATM    8  C   UNL     1      41.235 -16.977   4.897  1.00  0.00     0.294 C 
BRANCH   8   9
HETATM    9  C   UNL     1      41.458 -15.584   5.337  1.00  0.00     0.061 A 
HETATM   10  N   UNL     1      42.589 -15.120   5.980  1.00  0.00    -0.305 N 
HETATM   11  C   UNL     1      42.417 -13.769   6.155  1.00  0.00     0.151 A 
HETATM   12  C   UNL     1      43.755 -15.723   6.424  1.00  0.00     0.118 A 
HETATM   13  C   UNL     1      43.480 -13.006   6.751  1.00  0.00     0.167 A 
HETATM   14  N   UNL     1      41.244 -13.351   5.744  1.00  0.00    -0.239 NA
HETATM   15  N   UNL     1      44.591 -13.576   7.132  1.00  0.00    -0.268 NA
HETATM   16  C   UNL     1      44.702 -14.946   6.980  1.00  0.00     0.134 A 
HETATM   17  C   UNL     1      40.620 -14.478   5.289  1.00  0.00     0.146 A 
ENDBRANCH   8   9
ENDBRANCH   2   8
BRANCH   1  18
HETATM   18  C   UNL     1      40.795 -16.345   1.965  1.00  0.00     0.041 A 
HETATM   19  N   UNL     1      39.423 -16.200   1.922  1.00  0.00    -0.357 N 
HETATM   20  C   UNL     1      39.085 -14.961   1.432  1.00  0.00     0.042 A 
HETATM   21  H   UNL     1      38.736 -16.896   2.190  1.00  0.00     0.166 HD
HETATM   22  C   UNL     1      40.271 -14.300   1.118  1.00  0.00    -0.008 A 
HETATM   23  C   UNL     1      37.826 -14.387   1.221  1.00  0.00     0.030 A 
HETATM   24  C   UNL     1      40.206 -13.008   0.565  1.00  0.00     0.014 A 
HETATM   25  C   UNL     1      41.336 -15.179   1.447  1.00  0.00     0.040 A 
HETATM   26  C   UNL     1      38.955 -12.420   0.347  1.00  0.00     0.001 A 
HETATM   27  C   UNL     1      37.784 -13.102   0.672  1.00  0.00     0.002 A 
ENDBRANCH   1  18
TORSDOF 3
ENDMDL
MODEL 10
REMARK VINA RESULT:      -7.6      2.925      6.401
REMARK  3 active torsions:
REMARK  status: ('A' for Active; 'I' for Inactive)
REMARK    1  A    between atoms: C_7  and  C_8 
REMARK    2  A    between atoms: N_9  and  C_11 
REMARK    3  A    between atoms: C_11  and  C_12 
ROOT
HETATM    1  C   UNL     1      44.472 -15.349   5.997  1.00  0.00     0.238 C 
HETATM    2  N   UNL     1      43.258 -14.948   5.177  1.00  0.00    -0.056 N 
HETATM    3  H   UNL     1      42.525 -14.755   5.868  1.00  0.00     0.281 HD
HETATM    4  C   UNL     1      42.734 -16.066   4.305  1.00  0.00     0.236 C 
HETATM    5  C   UNL     1      42.393 -17.280   5.149  1.00  0.00     0.028 C 
HETATM    6  C   UNL     1      43.619 -17.760   5.905  1.00  0.00     0.004 C 
HETATM    7  C   UNL     1      44.168 -16.643   6.779  1.00  0.00     0.040 C 
ENDROOT
BRANCH   2   8
HETATM    8  C   UNL     1      43.409 -13.645   4.399  1.00  0.00     0.294 C 
BRANCH   8   9
HETATM    9  C   UNL     1      42.159 -13.100   3.827  1.00  0.00     0.061 A 
HETATM   10  N   UNL     1      41.035 -12.752   4.551  1.00  0.00    -0.305 N 
HETATM   11  C   UNL     1      40.133 -12.237   3.653  1.00  0.00     0.151 A 
HETATM   12  C   UNL     1      40.701 -12.815   5.894  1.00  0.00     0.118 A 
HETATM   13  C   UNL     1      38.880 -11.728   4.142  1.00  0.00     0.167 A 
HETATM   14  N   UNL     1      40.560 -12.298   2.415  1.00  0.00    -0.239 NA
HETATM   15  N   UNL     1      38.588 -11.758   5.415  1.00  0.00    -0.268 NA
HETATM   16  C   UNL     1      39.507 -12.328   6.277  1.00  0.00     0.134 A 
HETATM   17  C   UNL     1      41.791 -12.884   2.507  1.00  0.00     0.146 A 
ENDBRANCH   8   9
ENDBRANCH   2   8
BRANCH   1  18
HETATM   18  C   UNL     1      44.858 -14.290   6.982  1.00  0.00     0.041 A 
HETATM   19  N   UNL     1      44.082 -14.007   8.087  1.00  0.00    -0.357 N 
HETATM   20  C   UNL     1      44.629 -12.972   8.808  1.00  0.00     0.042 A 
HETATM   21  H   UNL     1      43.217 -14.467   8.349  1.00  0.00     0.166 HD
HETATM   22  C   UNL     1      45.772 -12.552   8.131  1.00  0.00    -0.008 A 
HETATM   23  C   UNL     1      44.189 -12.363   9.990  1.00  0.00     0.030 A 
HETATM   24  C   UNL     1      46.513 -11.473   8.647  1.00  0.00     0.014 A 
HETATM   25  C   UNL     1      45.901 -13.378   6.983  1.00  0.00     0.040 A 
HETATM   26  C   UNL     1      46.086 -10.852   9.826  1.00  0.00     0.001 A 
HETATM   27  C   UNL     1      44.940 -11.294  10.485  1.00  0.00     0.002 A 
ENDBRANCH   1  18
TORSDOF 3
ENDMDL
