MODEL 1
REMARK VINA RESULT:      -8.9      0.000      0.000
REMARK  8 active torsions:
REMARK  status: ('A' for Active; 'I' for Inactive)
REMARK    1  A    between atoms: C_2  and  N_3 
REMARK    2  A    between atoms: N_3  and  N_4 
REMARK       I    between atoms: N_4  and  C_5 
REMARK    3  A    between atoms: C_5  and  C_6 
REMARK       I    between atoms: C_6  and  N_7 
REMARK    4  A    between atoms: N_7  and  C_8 
REMARK    5  A    between atoms: C_8  and  C_9 
REMARK    6  A    between atoms: C_17  and  C_18 
REMARK       I    between atoms: C_18  and  N_19 
REMARK    7  A    between atoms: N_19  and  C_20 
REMARK    8  A    between atoms: C_21  and  O_22 
ROOT
HETATM    1  N   UNL     1      41.603 -14.846   5.898  1.00  0.00    -0.302 N 
HETATM    2  H   UNL     1      41.457 -14.093   5.214  1.00  0.00     0.186 HD
ENDROOT
BRANCH   1   3
HETATM    3  C   UNL     1      41.165 -16.092   5.483  1.00  0.00     0.027 C 
HETATM    4  C   UNL     1      40.329 -16.812   6.525  1.00  0.00     0.070 C 
HETATM    5  C   UNL     1      41.411 -16.744   4.328  1.00  0.00     0.100 C 
BRANCH   5   6
HETATM    6  C   UNL     1      42.277 -16.314   3.195  1.00  0.00     0.247 C 
HETATM    7  N   UNL     1      43.426 -17.014   2.953  1.00  0.00    -0.321 N 
HETATM    8  H   UNL     1      44.096 -16.479   2.408  1.00  0.00     0.169 HD
HETATM    9  O   UNL     1      42.070 -15.280   2.561  1.00  0.00    -0.268 OA
BRANCH   7  10
HETATM   10  C   UNL     1      43.849 -18.307   3.311  1.00  0.00     0.070 A 
HETATM   11  C   UNL     1      44.365 -18.494   4.605  1.00  0.00     0.095 A 
HETATM   12  C   UNL     1      44.884 -19.725   5.005  1.00  0.00     0.041 A 
HETATM   13  C   UNL     1      44.874 -20.798   4.115  1.00  0.00     0.026 A 
HETATM   14  C   UNL     1      44.367 -20.620   2.829  1.00  0.00     0.036 A 
HETATM   15 CL   UNL     1      44.383 -21.939   1.722  1.00  0.00    -0.084 Cl
HETATM   16  C   UNL     1      43.864 -19.381   2.419  1.00  0.00     0.056 A 
BRANCH  11  17
HETATM   17  O   UNL     1      44.393 -17.472   5.521  1.00  0.00    -0.354 OA
HETATM   18  C   UNL     1      44.173 -17.966   6.846  1.00  0.00     0.210 C 
ENDBRANCH  11  17
ENDBRANCH   7  10
ENDBRANCH   5   6
ENDBRANCH   1   3
BRANCH   1  19
HETATM   19  N   UNL     1      42.772 -14.652   6.638  1.00  0.00    -0.262 N 
HETATM   20  C   UNL     1      43.785 -13.930   6.042  1.00  0.00     0.327 C 
HETATM   21  O   UNL     1      43.835 -13.619   4.855  1.00  0.00    -0.261 OA
HETATM   22  H   UNL     1      42.682 -14.657   7.662  1.00  0.00     0.190 HD
BRANCH  20  23
HETATM   23  C   UNL     1      44.907 -13.495   7.004  1.00  0.00     0.311 C 
HETATM   24  N   UNL     1      44.439 -13.012   8.204  1.00  0.00    -0.349 N 
HETATM   25  H   UNL     1      43.437 -13.057   8.369  1.00  0.00     0.163 HD
HETATM   26  O   UNL     1      46.083 -13.593   6.689  1.00  0.00    -0.262 OA
BRANCH  24  27
HETATM   27  C   UNL     1      45.332 -12.620   9.262  1.00  0.00     0.161 C 
BRANCH  27  28
HETATM   28  C   UNL     1      44.597 -11.884  10.348  1.00  0.00    -0.041 A 
HETATM   29  C   UNL     1      44.478 -10.488  10.315  1.00  0.00     0.009 A 
HETATM   30  C   UNL     1      43.804  -9.811  11.334  1.00  0.00     0.001 A 
HETATM   31  C   UNL     1      43.249 -10.520  12.396  1.00  0.00     0.000 A 
HETATM   32  C   UNL     1      43.367 -11.908  12.445  1.00  0.00     0.001 A 
HETATM   33  C   UNL     1      44.039 -12.586  11.427  1.00  0.00     0.009 A 
ENDBRANCH  27  28
ENDBRANCH  24  27
ENDBRANCH  20  23
ENDBRANCH   1  19
TORSDOF 8
ENDMDL
MODEL 2
REMARK VINA RESULT:      -8.7      2.441      3.439
REMARK  8 active torsions:
REMARK  status: ('A' for Active; 'I' for Inactive)
REMARK    1  A    between atoms: C_2  and  N_3 
REMARK    2  A    between atoms: N_3  and  N_4 
REMARK       I    between atoms: N_4  and  C_5 
REMARK    3  A    between atoms: C_5  and  C_6 
REMARK       I    between atoms: C_6  and  N_7 
REMARK    4  A    between atoms: N_7  and  C_8 
REMARK    5  A    between atoms: C_8  and  C_9 
REMARK    6  A    between atoms: C_17  and  C_18 
REMARK       I    between atoms: C_18  and  N_19 
REMARK    7  A    between atoms: N_19  and  C_20 
REMARK    8  A    between atoms: C_21  and  O_22 
ROOT
HETATM    1  N   UNL     1      44.406 -14.419   7.437  1.00  0.00    -0.302 N 
HETATM    2  H   UNL     1      44.712 -15.189   8.045  1.00  0.00     0.186 HD
ENDROOT
BRANCH   1   3
HETATM    3  C   UNL     1      43.781 -14.822   6.270  1.00  0.00     0.027 C 
HETATM    4  C   UNL     1      43.381 -13.665   5.373  1.00  0.00     0.070 C 
HETATM    5  C   UNL     1      43.454 -16.065   5.859  1.00  0.00     0.100 C 
BRANCH   5   6
HETATM    6  C   UNL     1      43.634 -17.351   6.589  1.00  0.00     0.247 C 
HETATM    7  N   UNL     1      43.398 -18.519   5.917  1.00  0.00    -0.321 N 
HETATM    8  H   UNL     1      43.221 -19.296   6.546  1.00  0.00     0.169 HD
HETATM    9  O   UNL     1      43.850 -17.399   7.799  1.00  0.00    -0.268 OA
BRANCH   7  10
HETATM   10  C   UNL     1      43.351 -18.839   4.548  1.00  0.00     0.070 A 
HETATM   11  C   UNL     1      44.309 -19.739   4.051  1.00  0.00     0.095 A 
HETATM   12  C   UNL     1      44.381 -20.039   2.690  1.00  0.00     0.041 A 
HETATM   13  C   UNL     1      43.474 -19.455   1.809  1.00  0.00     0.026 A 
HETATM   14  C   UNL     1      42.522 -18.559   2.293  1.00  0.00     0.036 A 
HETATM   15 CL   UNL     1      41.422 -17.816   1.197  1.00  0.00    -0.084 Cl
HETATM   16  C   UNL     1      42.461 -18.241   3.654  1.00  0.00     0.056 A 
BRANCH  11  17
HETATM   17  O   UNL     1      45.222 -20.346   4.878  1.00  0.00    -0.354 OA
HETATM   18  C   UNL     1      44.910 -21.731   5.054  1.00  0.00     0.210 C 
ENDBRANCH  11  17
ENDBRANCH   7  10
ENDBRANCH   5   6
ENDBRANCH   1   3
BRANCH   1  19
HETATM   19  N   UNL     1      44.003 -13.305   8.177  1.00  0.00    -0.262 N 
HETATM   20  C   UNL     1      44.991 -12.558   8.784  1.00  0.00     0.327 C 
HETATM   21  O   UNL     1      46.166 -12.893   8.903  1.00  0.00    -0.261 OA
HETATM   22  H   UNL     1      43.119 -12.858   7.903  1.00  0.00     0.190 HD
BRANCH  20  23
HETATM   23  C   UNL     1      44.518 -11.193   9.320  1.00  0.00     0.311 C 
HETATM   24  N   UNL     1      43.159 -11.130   9.527  1.00  0.00    -0.349 N 
HETATM   25  H   UNL     1      42.623 -11.982   9.385  1.00  0.00     0.163 HD
HETATM   26  O   UNL     1      45.310 -10.287   9.530  1.00  0.00    -0.262 OA
BRANCH  24  27
HETATM   27  C   UNL     1      42.533  -9.964  10.089  1.00  0.00     0.161 C 
BRANCH  27  28
HETATM   28  C   UNL     1      42.452 -10.059  11.588  1.00  0.00    -0.041 A 
HETATM   29  C   UNL     1      41.412 -10.766  12.207  1.00  0.00     0.009 A 
HETATM   30  C   UNL     1      41.339 -10.841  13.600  1.00  0.00     0.001 A 
HETATM   31  C   UNL     1      42.297 -10.207  14.386  1.00  0.00     0.000 A 
HETATM   32  C   UNL     1      43.332  -9.494  13.783  1.00  0.00     0.001 A 
HETATM   33  C   UNL     1      43.409  -9.420  12.392  1.00  0.00     0.009 A 
ENDBRANCH  27  28
ENDBRANCH  24  27
ENDBRANCH  20  23
ENDBRANCH   1  19
TORSDOF 8
ENDMDL
MODEL 3
REMARK VINA RESULT:      -8.6      1.785      2.722
REMARK  8 active torsions:
REMARK  status: ('A' for Active; 'I' for Inactive)
REMARK    1  A    between atoms: C_2  and  N_3 
REMARK    2  A    between atoms: N_3  and  N_4 
REMARK       I    between atoms: N_4  and  C_5 
REMARK    3  A    between atoms: C_5  and  C_6 
REMARK       I    between atoms: C_6  and  N_7 
REMARK    4  A    between atoms: N_7  and  C_8 
REMARK    5  A    between atoms: C_8  and  C_9 
REMARK    6  A    between atoms: C_17  and  C_18 
REMARK       I    between atoms: C_18  and  N_19 
REMARK    7  A    between atoms: N_19  and  C_20 
REMARK    8  A    between atoms: C_21  and  O_22 
ROOT
HETATM    1  N   UNL     1      42.816 -15.112   6.211  1.00  0.00    -0.302 N 
HETATM    2  H   UNL     1      43.257 -14.877   5.314  1.00  0.00     0.186 HD
ENDROOT
BRANCH   1   3
HETATM    3  C   UNL     1      42.199 -16.351   6.241  1.00  0.00     0.027 C 
HETATM    4  C   UNL     1      40.684 -16.269   6.194  1.00  0.00     0.070 C 
HETATM    5  C   UNL     1      42.749 -17.578   6.345  1.00  0.00     0.100 C 
BRANCH   5   6
HETATM    6  C   UNL     1      44.187 -17.930   6.513  1.00  0.00     0.247 C 
HETATM    7  N   UNL     1      44.755 -18.792   5.617  1.00  0.00    -0.321 N 
HETATM    8  H   UNL     1      45.600 -19.224   5.979  1.00  0.00     0.169 HD
HETATM    9  O   UNL     1      44.840 -17.587   7.498  1.00  0.00    -0.268 OA
BRANCH   7  10
HETATM   10  C   UNL     1      44.397 -19.188   4.316  1.00  0.00     0.070 A 
HETATM   11  C   UNL     1      44.492 -20.553   3.995  1.00  0.00     0.095 A 
HETATM   12  C   UNL     1      44.238 -21.012   2.703  1.00  0.00     0.041 A 
HETATM   13  C   UNL     1      43.860 -20.106   1.714  1.00  0.00     0.026 A 
HETATM   14  C   UNL     1      43.765 -18.751   2.022  1.00  0.00     0.036 A 
HETATM   15 CL   UNL     1      43.327 -17.630   0.791  1.00  0.00    -0.084 Cl
HETATM   16  C   UNL     1      44.039 -18.285   3.312  1.00  0.00     0.056 A 
BRANCH  11  17
HETATM   17  O   UNL     1      44.855 -21.488   4.934  1.00  0.00    -0.354 OA
HETATM   18  C   UNL     1      44.763 -22.812   4.401  1.00  0.00     0.210 C 
ENDBRANCH  11  17
ENDBRANCH   7  10
ENDBRANCH   5   6
ENDBRANCH   1   3
BRANCH   1  19
HETATM   19  N   UNL     1      43.528 -14.585   7.291  1.00  0.00    -0.262 N 
HETATM   20  C   UNL     1      44.605 -13.772   7.001  1.00  0.00     0.327 C 
HETATM   21  O   UNL     1      45.116 -13.635   5.894  1.00  0.00    -0.261 OA
HETATM   22  H   UNL     1      43.014 -14.457   8.172  1.00  0.00     0.190 HD
BRANCH  20  23
HETATM   23  C   UNL     1      45.152 -12.988   8.209  1.00  0.00     0.311 C 
HETATM   24  N   UNL     1      44.244 -12.863   9.235  1.00  0.00    -0.349 N 
HETATM   25  H   UNL     1      43.356 -13.347   9.137  1.00  0.00     0.163 HD
HETATM   26  O   UNL     1      46.290 -12.543   8.212  1.00  0.00    -0.262 OA
BRANCH  24  27
HETATM   27  C   UNL     1      44.589 -12.224  10.477  1.00  0.00     0.161 C 
BRANCH  27  28
HETATM   28  C   UNL     1      43.683 -11.055  10.757  1.00  0.00    -0.041 A 
HETATM   29  C   UNL     1      42.687 -10.685   9.844  1.00  0.00     0.009 A 
HETATM   30  C   UNL     1      41.857  -9.593  10.106  1.00  0.00     0.001 A 
HETATM   31  C   UNL     1      42.020  -8.856  11.277  1.00  0.00     0.000 A 
HETATM   32  C   UNL     1      43.013  -9.210  12.190  1.00  0.00     0.001 A 
HETATM   33  C   UNL     1      43.841 -10.303  11.931  1.00  0.00     0.009 A 
ENDBRANCH  27  28
ENDBRANCH  24  27
ENDBRANCH  20  23
ENDBRANCH   1  19
TORSDOF 8
ENDMDL
MODEL 4
REMARK VINA RESULT:      -8.6      5.435      8.989
REMARK  8 active torsions:
REMARK  status: ('A' for Active; 'I' for Inactive)
REMARK    1  A    between atoms: C_2  and  N_3 
REMARK    2  A    between atoms: N_3  and  N_4 
REMARK       I    between atoms: N_4  and  C_5 
REMARK    3  A    between atoms: C_5  and  C_6 
REMARK       I    between atoms: C_6  and  N_7 
REMARK    4  A    between atoms: N_7  and  C_8 
REMARK    5  A    between atoms: C_8  and  C_9 
REMARK    6  A    between atoms: C_17  and  C_18 
REMARK       I    between atoms: C_18  and  N_19 
REMARK    7  A    between atoms: N_19  and  C_20 
REMARK    8  A    between atoms: C_21  and  O_22 
ROOT
HETATM    1  N   UNL     1      39.137 -15.815   1.985  1.00  0.00    -0.302 N 
HETATM    2  H   UNL     1      38.302 -15.880   2.579  1.00  0.00     0.186 HD
ENDROOT
BRANCH   1   3
HETATM    3  C   UNL     1      39.148 -14.732   1.123  1.00  0.00     0.027 C 
HETATM    4  C   UNL     1      37.972 -13.793   1.323  1.00  0.00     0.070 C 
HETATM    5  C   UNL     1      40.018 -14.433   0.135  1.00  0.00     0.100 C 
BRANCH   5   6
HETATM    6  C   UNL     1      41.184 -15.231  -0.336  1.00  0.00     0.247 C 
HETATM    7  N   UNL     1      41.915 -14.756  -1.389  1.00  0.00    -0.321 N 
HETATM    8  H   UNL     1      42.456 -15.486  -1.843  1.00  0.00     0.169 HD
HETATM    9  O   UNL     1      41.430 -16.358   0.094  1.00  0.00    -0.268 OA
BRANCH   7  10
HETATM   10  C   UNL     1      42.053 -13.475  -1.954  1.00  0.00     0.070 A 
HETATM   11  C   UNL     1      41.546 -13.271  -3.249  1.00  0.00     0.095 A 
HETATM   12  C   UNL     1      41.721 -12.055  -3.910  1.00  0.00     0.041 A 
HETATM   13  C   UNL     1      42.391 -11.014  -3.269  1.00  0.00     0.026 A 
HETATM   14  C   UNL     1      42.899 -11.209  -1.986  1.00  0.00     0.036 A 
HETATM   15 CL   UNL     1      43.752  -9.932  -1.208  1.00  0.00    -0.084 Cl
HETATM   16  C   UNL     1      42.742 -12.434  -1.329  1.00  0.00     0.056 A 
BRANCH  11  17
HETATM   17  O   UNL     1      40.874 -14.261  -3.922  1.00  0.00    -0.354 OA
HETATM   18  C   UNL     1      39.479 -14.238  -3.606  1.00  0.00     0.210 C 
ENDBRANCH  11  17
ENDBRANCH   7  10
ENDBRANCH   5   6
ENDBRANCH   1   3
BRANCH   1  19
HETATM   19  N   UNL     1      40.278 -16.280   2.645  1.00  0.00    -0.262 N 
HETATM   20  C   UNL     1      40.603 -15.677   3.843  1.00  0.00     0.327 C 
HETATM   21  O   UNL     1      40.106 -14.642   4.278  1.00  0.00    -0.261 OA
HETATM   22  H   UNL     1      40.553 -17.255   2.472  1.00  0.00     0.190 HD
BRANCH  20  23
HETATM   23  C   UNL     1      41.674 -16.425   4.660  1.00  0.00     0.311 C 
HETATM   24  N   UNL     1      42.596 -17.082   3.879  1.00  0.00    -0.349 N 
HETATM   25  H   UNL     1      42.533 -16.955   2.872  1.00  0.00     0.163 HD
HETATM   26  O   UNL     1      41.667 -16.404   5.882  1.00  0.00    -0.262 OA
BRANCH  24  27
HETATM   27  C   UNL     1      43.714 -17.781   4.454  1.00  0.00     0.161 C 
BRANCH  27  28
HETATM   28  C   UNL     1      43.932 -19.107   3.777  1.00  0.00    -0.041 A 
HETATM   29  C   UNL     1      43.419 -19.353   2.497  1.00  0.00     0.009 A 
HETATM   30  C   UNL     1      43.617 -20.590   1.880  1.00  0.00     0.001 A 
HETATM   31  C   UNL     1      44.322 -21.595   2.539  1.00  0.00     0.000 A 
HETATM   32  C   UNL     1      44.831 -21.366   3.817  1.00  0.00     0.001 A 
HETATM   33  C   UNL     1      44.636 -20.129   4.433  1.00  0.00     0.009 A 
ENDBRANCH  27  28
ENDBRANCH  24  27
ENDBRANCH  20  23
ENDBRANCH   1  19
TORSDOF 8
ENDMDL
MODEL 5
REMARK VINA RESULT:      -8.4      5.985      8.673
REMARK  8 active torsions:
REMARK  status: ('A' for Active; 'I' for Inactive)
REMARK    1  A    between atoms: C_2  and  N_3 
REMARK    2  A    between atoms: N_3  and  N_4 
REMARK       I    between atoms: N_4  and  C_5 
REMARK    3  A    between atoms: C_5  and  C_6 
REMARK       I    between atoms: C_6  and  N_7 
REMARK    4  A    between atoms: N_7  and  C_8 
REMARK    5  A    between atoms: C_8  and  C_9 
REMARK    6  A    between atoms: C_17  and  C_18 
REMARK       I    between atoms: C_18  and  N_19 
REMARK    7  A    between atoms: N_19  and  C_20 
REMARK    8  A    between atoms: C_21  and  O_22 
ROOT
HETATM    1  N   UNL     1      38.956 -15.719   2.033  1.00  0.00    -0.302 N 
HETATM    2  H   UNL     1      38.167 -16.152   2.528  1.00  0.00     0.186 HD
ENDROOT
BRANCH   1   3
HETATM    3  C   UNL     1      38.694 -14.461   1.521  1.00  0.00     0.027 C 
HETATM    4  C   UNL     1      37.277 -14.308   0.998  1.00  0.00     0.070 C 
HETATM    5  C   UNL     1      39.518 -13.400   1.393  1.00  0.00     0.100 C 
BRANCH   5   6
HETATM    6  C   UNL     1      40.968 -13.317   1.723  1.00  0.00     0.247 C 
HETATM    7  N   UNL     1      41.875 -13.691   0.771  1.00  0.00    -0.321 N 
HETATM    8  H   UNL     1      42.781 -13.917   1.169  1.00  0.00     0.169 HD
HETATM    9  O   UNL     1      41.373 -13.058   2.856  1.00  0.00    -0.268 OA
BRANCH   7  10
HETATM   10  C   UNL     1      41.790 -13.824  -0.627  1.00  0.00     0.070 A 
HETATM   11  C   UNL     1      42.357 -12.810  -1.418  1.00  0.00     0.095 A 
HETATM   12  C   UNL     1      42.238 -12.826  -2.808  1.00  0.00     0.041 A 
HETATM   13  C   UNL     1      41.565 -13.877  -3.428  1.00  0.00     0.026 A 
HETATM   14  C   UNL     1      40.998 -14.885  -2.651  1.00  0.00     0.036 A 
HETATM   15 CL   UNL     1      40.141 -16.167  -3.418  1.00  0.00    -0.084 Cl
HETATM   16  C   UNL     1      41.098 -14.861  -1.256  1.00  0.00     0.056 A 
BRANCH  11  17
HETATM   17  O   UNL     1      43.035 -11.756  -0.857  1.00  0.00    -0.354 OA
HETATM   18  C   UNL     1      42.693 -10.526  -1.503  1.00  0.00     0.210 C 
ENDBRANCH  11  17
ENDBRANCH   7  10
ENDBRANCH   5   6
ENDBRANCH   1   3
BRANCH   1  19
HETATM   19  N   UNL     1      40.181 -16.073   2.605  1.00  0.00    -0.262 N 
HETATM   20  C   UNL     1      40.981 -16.946   1.895  1.00  0.00     0.327 C 
HETATM   21  O   UNL     1      40.631 -17.594   0.913  1.00  0.00    -0.261 OA
HETATM   22  H   UNL     1      40.609 -15.396   3.248  1.00  0.00     0.190 HD
BRANCH  20  23
HETATM   23  C   UNL     1      42.425 -17.056   2.422  1.00  0.00     0.311 C 
HETATM   24  N   UNL     1      42.607 -18.099   3.300  1.00  0.00    -0.349 N 
HETATM   25  H   UNL     1      41.820 -18.723   3.456  1.00  0.00     0.163 HD
HETATM   26  O   UNL     1      43.291 -16.273   2.061  1.00  0.00    -0.262 OA
BRANCH  24  27
HETATM   27  C   UNL     1      43.900 -18.409   3.848  1.00  0.00     0.161 C 
BRANCH  27  28
HETATM   28  C   UNL     1      44.197 -19.880   3.741  1.00  0.00    -0.041 A 
HETATM   29  C   UNL     1      44.040 -20.556   2.523  1.00  0.00     0.009 A 
HETATM   30  C   UNL     1      44.308 -21.924   2.434  1.00  0.00     0.001 A 
HETATM   31  C   UNL     1      44.727 -22.630   3.560  1.00  0.00     0.000 A 
HETATM   32  C   UNL     1      44.878 -21.970   4.779  1.00  0.00     0.001 A 
HETATM   33  C   UNL     1      44.614 -20.603   4.869  1.00  0.00     0.009 A 
ENDBRANCH  27  28
ENDBRANCH  24  27
ENDBRANCH  20  23
ENDBRANCH   1  19
TORSDOF 8
ENDMDL
MODEL 6
REMARK VINA RESULT:      -8.3      4.799      8.584
REMARK  8 active torsions:
REMARK  status: ('A' for Active; 'I' for Inactive)
REMARK    1  A    between atoms: C_2  and  N_3 
REMARK    2  A    between atoms: N_3  and  N_4 
REMARK       I    between atoms: N_4  and  C_5 
REMARK    3  A    between atoms: C_5  and  C_6 
REMARK       I    between atoms: C_6  and  N_7 
REMARK    4  A    between atoms: N_7  and  C_8 
REMARK    5  A    between atoms: C_8  and  C_9 
REMARK    6  A    between atoms: C_17  and  C_18 
REMARK       I    between atoms: C_18  and  N_19 
REMARK    7  A    between atoms: N_19  and  C_20 
REMARK    8  A    between atoms: C_21  and  O_22 
ROOT
HETATM    1  N   UNL     1      39.863 -15.462   5.702  1.00  0.00    -0.302 N 
HETATM    2  H   UNL     1      39.598 -15.221   6.665  1.00  0.00     0.186 HD
ENDROOT
BRANCH   1   3
HETATM    3  C   UNL     1      39.917 -14.386   4.833  1.00  0.00     0.027 C 
HETATM    4  C   UNL     1      39.795 -13.044   5.531  1.00  0.00     0.070 C 
HETATM    5  C   UNL     1      40.019 -14.377   3.488  1.00  0.00     0.100 C 
BRANCH   5   6
HETATM    6  C   UNL     1      40.046 -15.541   2.560  1.00  0.00     0.247 C 
HETATM    7  N   UNL     1      39.366 -15.448   1.377  1.00  0.00    -0.321 N 
HETATM    8  H   UNL     1      39.162 -16.358   0.976  1.00  0.00     0.169 HD
HETATM    9  O   UNL     1      40.539 -16.625   2.873  1.00  0.00    -0.268 OA
BRANCH   7  10
HETATM   10  C   UNL     1      38.900 -14.351   0.629  1.00  0.00     0.070 A 
HETATM   11  C   UNL     1      39.708 -13.882  -0.421  1.00  0.00     0.095 A 
HETATM   12  C   UNL     1      39.356 -12.747  -1.151  1.00  0.00     0.041 A 
HETATM   13  C   UNL     1      38.171 -12.077  -0.853  1.00  0.00     0.026 A 
HETATM   14  C   UNL     1      37.366 -12.534   0.189  1.00  0.00     0.036 A 
HETATM   15 CL   UNL     1      35.918 -11.686   0.575  1.00  0.00    -0.084 Cl
HETATM   16  C   UNL     1      37.726 -13.660   0.936  1.00  0.00     0.056 A 
BRANCH  11  17
HETATM   17  O   UNL     1      40.882 -14.509  -0.759  1.00  0.00    -0.354 OA
HETATM   18  C   UNL     1      41.067 -14.516  -2.178  1.00  0.00     0.210 C 
ENDBRANCH  11  17
ENDBRANCH   7  10
ENDBRANCH   5   6
ENDBRANCH   1   3
BRANCH   1  19
HETATM   19  N   UNL     1      40.775 -16.521   5.667  1.00  0.00    -0.262 N 
HETATM   20  C   UNL     1      42.069 -16.253   6.061  1.00  0.00     0.327 C 
HETATM   21  O   UNL     1      42.542 -15.135   6.244  1.00  0.00    -0.261 OA
HETATM   22  H   UNL     1      40.393 -17.469   5.775  1.00  0.00     0.190 HD
BRANCH  20  23
HETATM   23  C   UNL     1      42.936 -17.507   6.290  1.00  0.00     0.311 C 
HETATM   24  N   UNL     1      43.690 -17.856   5.194  1.00  0.00    -0.349 N 
HETATM   25  H   UNL     1      43.664 -17.234   4.389  1.00  0.00     0.163 HD
HETATM   26  O   UNL     1      42.926 -18.096   7.360  1.00  0.00    -0.262 OA
BRANCH  24  27
HETATM   27  C   UNL     1      44.615 -18.957   5.231  1.00  0.00     0.161 C 
BRANCH  27  28
HETATM   28  C   UNL     1      44.384 -19.901   4.083  1.00  0.00    -0.041 A 
HETATM   29  C   UNL     1      43.761 -19.461   2.907  1.00  0.00     0.009 A 
HETATM   30  C   UNL     1      43.540 -20.347   1.850  1.00  0.00     0.001 A 
HETATM   31  C   UNL     1      43.934 -21.679   1.959  1.00  0.00     0.000 A 
HETATM   32  C   UNL     1      44.548 -22.129   3.126  1.00  0.00     0.001 A 
HETATM   33  C   UNL     1      44.772 -21.246   4.183  1.00  0.00     0.009 A 
ENDBRANCH  27  28
ENDBRANCH  24  27
ENDBRANCH  20  23
ENDBRANCH   1  19
TORSDOF 8
ENDMDL
MODEL 7
REMARK VINA RESULT:      -8.2      3.504      6.875
REMARK  8 active torsions:
REMARK  status: ('A' for Active; 'I' for Inactive)
REMARK    1  A    between atoms: C_2  and  N_3 
REMARK    2  A    between atoms: N_3  and  N_4 
REMARK       I    between atoms: N_4  and  C_5 
REMARK    3  A    between atoms: C_5  and  C_6 
REMARK       I    between atoms: C_6  and  N_7 
REMARK    4  A    between atoms: N_7  and  C_8 
REMARK    5  A    between atoms: C_8  and  C_9 
REMARK    6  A    between atoms: C_17  and  C_18 
REMARK       I    between atoms: C_18  and  N_19 
REMARK    7  A    between atoms: N_19  and  C_20 
REMARK    8  A    between atoms: C_21  and  O_22 
ROOT
HETATM    1  N   UNL     1      43.300 -14.054   5.347  1.00  0.00    -0.302 N 
HETATM    2  H   UNL     1      44.051 -13.775   4.703  1.00  0.00     0.186 HD
ENDROOT
BRANCH   1   3
HETATM    3  C   UNL     1      42.059 -13.518   5.050  1.00  0.00     0.027 C 
HETATM    4  C   UNL     1      42.096 -12.022   4.796  1.00  0.00     0.070 C 
HETATM    5  C   UNL     1      40.855 -14.124   5.000  1.00  0.00     0.100 C 
BRANCH   5   6
HETATM    6  C   UNL     1      40.527 -15.544   5.309  1.00  0.00     0.247 C 
HETATM    7  N   UNL     1      40.526 -16.449   4.285  1.00  0.00    -0.321 N 
HETATM    8  H   UNL     1      39.988 -17.282   4.507  1.00  0.00     0.169 HD
HETATM    9  O   UNL     1      40.128 -15.904   6.416  1.00  0.00    -0.268 OA
BRANCH   7  10
HETATM   10  C   UNL     1      41.111 -16.444   3.006  1.00  0.00     0.070 A 
HETATM   11  C   UNL     1      40.314 -16.040   1.921  1.00  0.00     0.095 A 
HETATM   12  C   UNL     1      40.795 -16.090   0.612  1.00  0.00     0.041 A 
HETATM   13  C   UNL     1      42.097 -16.527   0.375  1.00  0.00     0.026 A 
HETATM   14  C   UNL     1      42.893 -16.933   1.445  1.00  0.00     0.036 A 
HETATM   15 CL   UNL     1      44.490 -17.501   1.145  1.00  0.00    -0.084 Cl
HETATM   16  C   UNL     1      42.406 -16.902   2.756  1.00  0.00     0.056 A 
BRANCH  11  17
HETATM   17  O   UNL     1      39.027 -15.595   2.101  1.00  0.00    -0.354 OA
HETATM   18  C   UNL     1      38.893 -14.234   1.683  1.00  0.00     0.210 C 
ENDBRANCH  11  17
ENDBRANCH   7  10
ENDBRANCH   5   6
ENDBRANCH   1   3
BRANCH   1  19
HETATM   19  N   UNL     1      43.479 -15.358   5.814  1.00  0.00    -0.262 N 
HETATM   20  C   UNL     1      43.910 -15.509   7.117  1.00  0.00     0.327 C 
HETATM   21  O   UNL     1      44.343 -14.610   7.832  1.00  0.00    -0.261 OA
HETATM   22  H   UNL     1      42.911 -16.093   5.376  1.00  0.00     0.190 HD
BRANCH  20  23
HETATM   23  C   UNL     1      43.796 -16.946   7.662  1.00  0.00     0.311 C 
HETATM   24  N   UNL     1      43.993 -17.910   6.701  1.00  0.00    -0.349 N 
HETATM   25  H   UNL     1      44.262 -17.598   5.771  1.00  0.00     0.163 HD
HETATM   26  O   UNL     1      43.557 -17.158   8.841  1.00  0.00    -0.262 OA
BRANCH  24  27
HETATM   27  C   UNL     1      43.995 -19.312   7.026  1.00  0.00     0.161 C 
BRANCH  27  28
HETATM   28  C   UNL     1      44.247 -20.152   5.803  1.00  0.00    -0.041 A 
HETATM   29  C   UNL     1      44.270 -19.574   4.527  1.00  0.00     0.009 A 
HETATM   30  C   UNL     1      44.494 -20.363   3.397  1.00  0.00     0.001 A 
HETATM   31  C   UNL     1      44.690 -21.736   3.530  1.00  0.00     0.000 A 
HETATM   32  C   UNL     1      44.661 -22.324   4.793  1.00  0.00     0.001 A 
HETATM   33  C   UNL     1      44.440 -21.537   5.924  1.00  0.00     0.009 A 
ENDBRANCH  27  28
ENDBRANCH  24  27
ENDBRANCH  20  23
ENDBRANCH   1  19
TORSDOF 8
ENDMDL
MODEL 8
REMARK VINA RESULT:      -8.2      4.516      8.299
REMARK  8 active torsions:
REMARK  status: ('A' for Active; 'I' for Inactive)
REMARK    1  A    between atoms: C_2  and  N_3 
REMARK    2  A    between atoms: N_3  and  N_4 
REMARK       I    between atoms: N_4  and  C_5 
REMARK    3  A    between atoms: C_5  and  C_6 
REMARK       I    between atoms: C_6  and  N_7 
REMARK    4  A    between atoms: N_7  and  C_8 
REMARK    5  A    between atoms: C_8  and  C_9 
REMARK    6  A    between atoms: C_17  and  C_18 
REMARK       I    between atoms: C_18  and  N_19 
REMARK    7  A    between atoms: N_19  and  C_20 
REMARK    8  A    between atoms: C_21  and  O_22 
ROOT
HETATM    1  N   UNL     1      40.328 -15.610   5.238  1.00  0.00    -0.302 N 
HETATM    2  H   UNL     1      40.031 -15.384   6.196  1.00  0.00     0.186 HD
ENDROOT
BRANCH   1   3
HETATM    3  C   UNL     1      40.114 -14.600   4.317  1.00  0.00     0.027 C 
HETATM    4  C   UNL     1      39.805 -13.258   4.956  1.00  0.00     0.070 C 
HETATM    5  C   UNL     1      40.106 -14.659   2.969  1.00  0.00     0.100 C 
BRANCH   5   6
HETATM    6  C   UNL     1      40.272 -15.858   2.100  1.00  0.00     0.247 C 
HETATM    7  N   UNL     1      40.163 -15.700   0.747  1.00  0.00    -0.321 N 
HETATM    8  H   UNL     1      39.960 -16.575   0.272  1.00  0.00     0.169 HD
HETATM    9  O   UNL     1      40.366 -16.996   2.557  1.00  0.00    -0.268 OA
BRANCH   7  10
HETATM   10  C   UNL     1      40.271 -14.579  -0.095  1.00  0.00     0.070 A 
HETATM   11  C   UNL     1      39.106 -13.838  -0.356  1.00  0.00     0.095 A 
HETATM   12  C   UNL     1      39.115 -12.766  -1.249  1.00  0.00     0.041 A 
HETATM   13  C   UNL     1      40.305 -12.406  -1.878  1.00  0.00     0.026 A 
HETATM   14  C   UNL     1      41.465 -13.136  -1.627  1.00  0.00     0.036 A 
HETATM   15 CL   UNL     1      42.928 -12.707  -2.428  1.00  0.00    -0.084 Cl
HETATM   16  C   UNL     1      41.454 -14.224  -0.748  1.00  0.00     0.056 A 
BRANCH  11  17
HETATM   17  O   UNL     1      37.909 -14.148   0.242  1.00  0.00    -0.354 OA
HETATM   18  C   UNL     1      37.224 -12.964   0.659  1.00  0.00     0.210 C 
ENDBRANCH  11  17
ENDBRANCH   7  10
ENDBRANCH   5   6
ENDBRANCH   1   3
BRANCH   1  19
HETATM   19  N   UNL     1      41.459 -16.430   5.228  1.00  0.00    -0.262 N 
HETATM   20  C   UNL     1      42.626 -15.902   5.742  1.00  0.00     0.327 C 
HETATM   21  O   UNL     1      42.813 -14.720   6.017  1.00  0.00    -0.261 OA
HETATM   22  H   UNL     1      41.301 -17.445   5.258  1.00  0.00     0.190 HD
BRANCH  20  23
HETATM   23  C   UNL     1      43.741 -16.938   5.981  1.00  0.00     0.311 C 
HETATM   24  N   UNL     1      43.673 -18.018   5.132  1.00  0.00    -0.349 N 
HETATM   25  H   UNL     1      42.966 -17.996   4.401  1.00  0.00     0.163 HD
HETATM   26  O   UNL     1      44.584 -16.771   6.849  1.00  0.00    -0.262 OA
BRANCH  24  27
HETATM   27  C   UNL     1      44.665 -19.060   5.151  1.00  0.00     0.161 C 
BRANCH  27  28
HETATM   28  C   UNL     1      44.439 -20.046   4.038  1.00  0.00    -0.041 A 
HETATM   29  C   UNL     1      43.834 -19.649   2.839  1.00  0.00     0.009 A 
HETATM   30  C   UNL     1      43.618 -20.573   1.814  1.00  0.00     0.001 A 
HETATM   31  C   UNL     1      43.998 -21.903   1.981  1.00  0.00     0.000 A 
HETATM   32  C   UNL     1      44.594 -22.313   3.173  1.00  0.00     0.001 A 
HETATM   33  C   UNL     1      44.813 -21.390   4.196  1.00  0.00     0.009 A 
ENDBRANCH  27  28
ENDBRANCH  24  27
ENDBRANCH  20  23
ENDBRANCH   1  19
TORSDOF 8
ENDMDL
MODEL 9
REMARK VINA RESULT:      -8.1      2.139      3.576
REMARK  8 active torsions:
REMARK  status: ('A' for Active; 'I' for Inactive)
REMARK    1  A    between atoms: C_2  and  N_3 
REMARK    2  A    between atoms: N_3  and  N_4 
REMARK       I    between atoms: N_4  and  C_5 
REMARK    3  A    between atoms: C_5  and  C_6 
REMARK       I    between atoms: C_6  and  N_7 
REMARK    4  A    between atoms: N_7  and  C_8 
REMARK    5  A    between atoms: C_8  and  C_9 
REMARK    6  A    between atoms: C_17  and  C_18 
REMARK       I    between atoms: C_18  and  N_19 
REMARK    7  A    between atoms: N_19  and  C_20 
REMARK    8  A    between atoms: C_21  and  O_22 
ROOT
HETATM    1  N   UNL     1      44.562 -14.303   7.297  1.00  0.00    -0.302 N 
HETATM    2  H   UNL     1      45.447 -14.616   7.715  1.00  0.00     0.186 HD
ENDROOT
BRANCH   1   3
HETATM    3  C   UNL     1      43.791 -15.317   6.755  1.00  0.00     0.027 C 
HETATM    4  C   UNL     1      43.577 -16.481   7.705  1.00  0.00     0.070 C 
HETATM    5  C   UNL     1      43.258 -15.419   5.520  1.00  0.00     0.100 C 
BRANCH   5   6
HETATM    6  C   UNL     1      43.406 -14.480   4.374  1.00  0.00     0.247 C 
HETATM    7  N   UNL     1      43.522 -15.001   3.115  1.00  0.00    -0.321 N 
HETATM    8  H   UNL     1      43.938 -14.344   2.463  1.00  0.00     0.169 HD
HETATM    9  O   UNL     1      43.563 -13.269   4.529  1.00  0.00    -0.268 OA
BRANCH   7  10
HETATM   10  C   UNL     1      43.185 -16.251   2.566  1.00  0.00     0.070 A 
HETATM   11  C   UNL     1      41.985 -16.348   1.840  1.00  0.00     0.095 A 
HETATM   12  C   UNL     1      41.540 -17.572   1.339  1.00  0.00     0.041 A 
HETATM   13  C   UNL     1      42.307 -18.717   1.541  1.00  0.00     0.026 A 
HETATM   14  C   UNL     1      43.497 -18.631   2.261  1.00  0.00     0.036 A 
HETATM   15 CL   UNL     1      44.428 -20.053   2.535  1.00  0.00    -0.084 Cl
HETATM   16  C   UNL     1      43.935 -17.409   2.782  1.00  0.00     0.056 A 
BRANCH  11  17
HETATM   17  O   UNL     1      41.195 -15.249   1.609  1.00  0.00    -0.354 OA
HETATM   18  C   UNL     1      41.160 -14.929   0.215  1.00  0.00     0.210 C 
ENDBRANCH  11  17
ENDBRANCH   7  10
ENDBRANCH   5   6
ENDBRANCH   1   3
BRANCH   1  19
HETATM   19  N   UNL     1      44.022 -13.215   7.987  1.00  0.00    -0.262 N 
HETATM   20  C   UNL     1      44.863 -12.523   8.833  1.00  0.00     0.327 C 
HETATM   21  O   UNL     1      45.977 -12.894   9.191  1.00  0.00    -0.261 OA
HETATM   22  H   UNL     1      43.228 -12.732   7.548  1.00  0.00     0.190 HD
BRANCH  20  23
HETATM   23  C   UNL     1      44.303 -11.173   9.322  1.00  0.00     0.311 C 
HETATM   24  N   UNL     1      42.933 -11.163   9.444  1.00  0.00    -0.349 N 
HETATM   25  H   UNL     1      42.441 -12.037   9.280  1.00  0.00     0.163 HD
HETATM   26  O   UNL     1      45.044 -10.233   9.569  1.00  0.00    -0.262 OA
BRANCH  24  27
HETATM   27  C   UNL     1      42.227 -10.017   9.951  1.00  0.00     0.161 C 
BRANCH  27  28
HETATM   28  C   UNL     1      42.433  -9.864  11.434  1.00  0.00    -0.041 A 
HETATM   29  C   UNL     1      42.779  -8.624  11.986  1.00  0.00     0.009 A 
HETATM   30  C   UNL     1      42.979  -8.493  13.362  1.00  0.00     0.001 A 
HETATM   31  C   UNL     1      42.842  -9.600  14.197  1.00  0.00     0.000 A 
HETATM   32  C   UNL     1      42.506 -10.841  13.659  1.00  0.00     0.001 A 
HETATM   33  C   UNL     1      42.303 -10.973  12.284  1.00  0.00     0.009 A 
ENDBRANCH  27  28
ENDBRANCH  24  27
ENDBRANCH  20  23
ENDBRANCH   1  19
TORSDOF 8
ENDMDL
MODEL 10
REMARK VINA RESULT:      -8.0      2.033      2.519
REMARK  8 active torsions:
REMARK  status: ('A' for Active; 'I' for Inactive)
REMARK    1  A    between atoms: C_2  and  N_3 
REMARK    2  A    between atoms: N_3  and  N_4 
REMARK       I    between atoms: N_4  and  C_5 
REMARK    3  A    between atoms: C_5  and  C_6 
REMARK       I    between atoms: C_6  and  N_7 
REMARK    4  A    between atoms: N_7  and  C_8 
REMARK    5  A    between atoms: C_8  and  C_9 
REMARK    6  A    between atoms: C_17  and  C_18 
REMARK       I    between atoms: C_18  and  N_19 
REMARK    7  A    between atoms: N_19  and  C_20 
REMARK    8  A    between atoms: C_21  and  O_22 
ROOT
HETATM    1  N   UNL     1      40.303 -15.166   5.195  1.00  0.00    -0.302 N 
HETATM    2  H   UNL     1      40.557 -14.766   4.284  1.00  0.00     0.186 HD
ENDROOT
BRANCH   1   3
HETATM    3  C   UNL     1      40.848 -16.412   5.449  1.00  0.00     0.027 C 
HETATM    4  C   UNL     1      40.201 -17.124   6.623  1.00  0.00     0.070 C 
HETATM    5  C   UNL     1      41.874 -17.038   4.834  1.00  0.00     0.100 C 
BRANCH   5   6
HETATM    6  C   UNL     1      42.741 -16.524   3.738  1.00  0.00     0.247 C 
HETATM    7  N   UNL     1      43.782 -17.301   3.312  1.00  0.00    -0.321 N 
HETATM    8  H   UNL     1      44.491 -16.763   2.824  1.00  0.00     0.169 HD
HETATM    9  O   UNL     1      42.640 -15.379   3.298  1.00  0.00    -0.268 OA
BRANCH   7  10
HETATM   10  C   UNL     1      44.053 -18.677   3.424  1.00  0.00     0.070 A 
HETATM   11  C   UNL     1      44.675 -19.130   4.600  1.00  0.00     0.095 A 
HETATM   12  C   UNL     1      45.054 -20.464   4.750  1.00  0.00     0.041 A 
HETATM   13  C   UNL     1      44.794 -21.372   3.725  1.00  0.00     0.026 A 
HETATM   14  C   UNL     1      44.180 -20.930   2.554  1.00  0.00     0.036 A 
HETATM   15 CL   UNL     1      43.887 -22.048   1.277  1.00  0.00    -0.084 Cl
HETATM   16  C   UNL     1      43.817 -19.589   2.393  1.00  0.00     0.056 A 
BRANCH  11  17
HETATM   17  O   UNL     1      44.948 -18.278   5.642  1.00  0.00    -0.354 OA
HETATM   18  C   UNL     1      44.350 -18.744   6.855  1.00  0.00     0.210 C 
ENDBRANCH  11  17
ENDBRANCH   7  10
ENDBRANCH   5   6
ENDBRANCH   1   3
BRANCH   1  19
HETATM   19  N   UNL     1      40.165 -14.177   6.173  1.00  0.00    -0.262 N 
HETATM   20  C   UNL     1      40.663 -12.924   5.879  1.00  0.00     0.327 C 
HETATM   21  O   UNL     1      41.392 -12.652   4.929  1.00  0.00    -0.261 OA
HETATM   22  H   UNL     1      39.378 -14.273   6.827  1.00  0.00     0.190 HD
BRANCH  20  23
HETATM   23  C   UNL     1      40.216 -11.817   6.853  1.00  0.00     0.311 C 
HETATM   24  N   UNL     1      41.203 -11.432   7.731  1.00  0.00    -0.349 N 
HETATM   25  H   UNL     1      42.125 -11.844   7.609  1.00  0.00     0.163 HD
HETATM   26  O   UNL     1      39.087 -11.354   6.809  1.00  0.00    -0.262 OA
BRANCH  24  27
HETATM   27  C   UNL     1      41.003 -10.365   8.673  1.00  0.00     0.161 C 
BRANCH  27  28
HETATM   28  C   UNL     1      42.104 -10.331   9.698  1.00  0.00    -0.041 A 
HETATM   29  C   UNL     1      43.334 -10.955   9.451  1.00  0.00     0.009 A 
HETATM   30  C   UNL     1      44.347 -10.928  10.412  1.00  0.00     0.001 A 
HETATM   31  C   UNL     1      44.139 -10.285  11.630  1.00  0.00     0.000 A 
HETATM   32  C   UNL     1      42.917  -9.667  11.891  1.00  0.00     0.001 A 
HETATM   33  C   UNL     1      41.905  -9.690  10.931  1.00  0.00     0.009 A 
ENDBRANCH  27  28
ENDBRANCH  24  27
ENDBRANCH  20  23
ENDBRANCH   1  19
TORSDOF 8
ENDMDL
