MODEL 1
REMARK VINA RESULT:      -8.8      0.000      0.000
REMARK  10 active torsions:
REMARK  status: ('A' for Active; 'I' for Inactive)
REMARK    1  A    between atoms: C_2  and  C_3 
REMARK    2  A    between atoms: C_3  and  C_4 
REMARK    3  A    between atoms: C_4  and  O_5 
REMARK    4  A    between atoms: O_5  and  C_6 
REMARK    5  A    between atoms: C_10  and  C_11 
REMARK       I    between atoms: C_11  and  N_12 
REMARK    6  A    between atoms: N_12  and  C_13 
REMARK    7  A    between atoms: C_13  and  N_14 
REMARK    8  A    between atoms: N_14  and  C_15 
REMARK    9  A    between atoms: N_18  and  C_20 
REMARK   10  A    between atoms: C_20  and  C_21 
ROOT
HETATM    1  C   UNL     1      40.388 -13.815   5.519  1.00  0.00     0.174 C 
HETATM    2  S   UNL     1      40.660 -13.306   3.949  1.00  0.00    -0.041 SA
ENDROOT
BRANCH   1   3
HETATM    3  N   UNL     1      40.404 -12.872   6.501  1.00  0.00    -0.300 N 
HETATM    4  C   UNL     1      39.642 -11.747   6.831  1.00  0.00     0.257 C 
HETATM    5  O   UNL     1      38.767 -11.232   6.146  1.00  0.00    -0.267 OA
HETATM    6  H   UNL     1      41.240 -12.982   7.066  1.00  0.00     0.171 HD
BRANCH   4   7
HETATM    7  C   UNL     1      40.022 -11.065   8.097  1.00  0.00     0.033 A 
HETATM    8  C   UNL     1      41.342 -11.012   8.550  1.00  0.00     0.039 A 
HETATM    9  C   UNL     1      41.632 -10.360   9.757  1.00  0.00     0.045 A 
HETATM   10  C   UNL     1      40.616  -9.768  10.526  1.00  0.00     0.086 A 
HETATM   11 BR   UNL     1      43.447 -10.326  10.321  1.00  0.00    -0.048 Br
HETATM   12  C   UNL     1      39.298  -9.846  10.069  1.00  0.00     0.039 A 
HETATM   13  C   UNL     1      39.003 -10.494   8.866  1.00  0.00     0.020 A 
BRANCH  10  14
HETATM   14  O   UNL     1      40.993  -9.139  11.683  1.00  0.00    -0.350 OA
BRANCH  14  15
HETATM   15  C   UNL     1      40.439  -9.617  12.912  1.00  0.00     0.176 C 
BRANCH  15  16
HETATM   16  C   UNL     1      41.340 -10.734  13.438  1.00  0.00     0.030 C 
BRANCH  16  17
HETATM   17  C   UNL     1      42.345 -10.254  14.499  1.00  0.00    -0.021 C 
HETATM   18  C   UNL     1      41.601  -9.622  15.676  1.00  0.00     0.009 C 
HETATM   19  C   UNL     1      43.352  -9.254  13.928  1.00  0.00     0.009 C 
ENDBRANCH  16  17
ENDBRANCH  15  16
ENDBRANCH  14  15
ENDBRANCH  10  14
ENDBRANCH   4   7
ENDBRANCH   1   3
BRANCH   1  20
HETATM   20  N   UNL     1      40.196 -15.135   5.700  1.00  0.00    -0.362 N 
HETATM   21  H   UNL     1      39.335 -15.433   5.252  1.00  0.00     0.162 HD
BRANCH  20  22
HETATM   22  C   UNL     1      41.065 -16.167   6.260  1.00  0.00     0.087 C 
HETATM   23  C   UNL     1      42.542 -15.754   6.192  1.00  0.00     0.053 C 
HETATM   24  C   UNL     1      43.187 -15.975   4.833  1.00  0.00     0.237 C 
HETATM   25  N   UNL     1      42.965 -17.402   4.408  1.00  0.00    -0.067 N 
HETATM   26  H   UNL     1      43.320 -18.005   5.161  1.00  0.00     0.280 HD
HETATM   27  C   UNL     1      41.499 -17.687   4.250  1.00  0.00     0.237 C 
HETATM   28  C   UNL     1      40.816 -17.527   5.594  1.00  0.00     0.053 C 
BRANCH  25  29
HETATM   29  C   UNL     1      43.761 -17.796   3.182  1.00  0.00     0.273 C 
BRANCH  29  30
HETATM   30  C   UNL     1      43.961 -19.285   3.077  1.00  0.00    -0.033 A 
HETATM   31  C   UNL     1      44.580 -19.997   4.118  1.00  0.00     0.009 A 
HETATM   32  C   UNL     1      44.810 -21.369   3.997  1.00  0.00     0.001 A 
HETATM   33  C   UNL     1      44.414 -22.043   2.845  1.00  0.00     0.000 A 
HETATM   34  C   UNL     1      43.781 -21.351   1.815  1.00  0.00     0.001 A 
HETATM   35  C   UNL     1      43.554 -19.978   1.929  1.00  0.00     0.009 A 
ENDBRANCH  29  30
ENDBRANCH  25  29
ENDBRANCH  20  22
ENDBRANCH   1  20
TORSDOF 10
ENDMDL
MODEL 2
REMARK VINA RESULT:      -8.6      5.700      9.260
REMARK  10 active torsions:
REMARK  status: ('A' for Active; 'I' for Inactive)
REMARK    1  A    between atoms: C_2  and  C_3 
REMARK    2  A    between atoms: C_3  and  C_4 
REMARK    3  A    between atoms: C_4  and  O_5 
REMARK    4  A    between atoms: O_5  and  C_6 
REMARK    5  A    between atoms: C_10  and  C_11 
REMARK       I    between atoms: C_11  and  N_12 
REMARK    6  A    between atoms: N_12  and  C_13 
REMARK    7  A    between atoms: C_13  and  N_14 
REMARK    8  A    between atoms: N_14  and  C_15 
REMARK    9  A    between atoms: N_18  and  C_20 
REMARK   10  A    between atoms: C_20  and  C_21 
ROOT
HETATM    1  C   UNL     1      39.909 -14.303   5.171  1.00  0.00     0.174 C 
HETATM    2  S   UNL     1      39.734 -12.984   6.185  1.00  0.00    -0.041 SA
ENDROOT
BRANCH   1   3
HETATM    3  N   UNL     1      39.807 -14.088   3.830  1.00  0.00    -0.300 N 
HETATM    4  C   UNL     1      39.765 -14.885   2.683  1.00  0.00     0.257 C 
HETATM    5  O   UNL     1      39.966 -16.092   2.625  1.00  0.00    -0.267 OA
HETATM    6  H   UNL     1      39.874 -13.094   3.638  1.00  0.00     0.171 HD
BRANCH   4   7
HETATM    7  C   UNL     1      39.555 -14.155   1.404  1.00  0.00     0.033 A 
HETATM    8  C   UNL     1      40.573 -13.431   0.780  1.00  0.00     0.039 A 
HETATM    9  C   UNL     1      40.306 -12.758  -0.420  1.00  0.00     0.045 A 
HETATM   10  C   UNL     1      39.028 -12.790  -1.004  1.00  0.00     0.086 A 
HETATM   11 BR   UNL     1      41.734 -11.787  -1.216  1.00  0.00    -0.048 Br
HETATM   12  C   UNL     1      38.015 -13.504  -0.359  1.00  0.00     0.039 A 
HETATM   13  C   UNL     1      38.275 -14.177   0.839  1.00  0.00     0.020 A 
BRANCH  10  14
HETATM   14  O   UNL     1      38.864 -12.117  -2.185  1.00  0.00    -0.350 OA
BRANCH  14  15
HETATM   15  C   UNL     1      38.467 -12.874  -3.332  1.00  0.00     0.176 C 
BRANCH  15  16
HETATM   16  C   UNL     1      39.640 -13.761  -3.747  1.00  0.00     0.030 C 
BRANCH  16  17
HETATM   17  C   UNL     1      39.495 -15.219  -3.279  1.00  0.00    -0.021 C 
HETATM   18  C   UNL     1      40.843 -15.747  -2.786  1.00  0.00     0.009 C 
HETATM   19  C   UNL     1      38.960 -16.128  -4.387  1.00  0.00     0.009 C 
ENDBRANCH  16  17
ENDBRANCH  15  16
ENDBRANCH  14  15
ENDBRANCH  10  14
ENDBRANCH   4   7
ENDBRANCH   1   3
BRANCH   1  20
HETATM   20  N   UNL     1      40.114 -15.495   5.762  1.00  0.00    -0.362 N 
HETATM   21  H   UNL     1      39.271 -16.060   5.723  1.00  0.00     0.162 HD
BRANCH  20  22
HETATM   22  C   UNL     1      41.333 -16.124   6.267  1.00  0.00     0.087 C 
HETATM   23  C   UNL     1      42.588 -15.400   5.760  1.00  0.00     0.053 C 
HETATM   24  C   UNL     1      42.998 -15.784   4.347  1.00  0.00     0.237 C 
HETATM   25  N   UNL     1      43.117 -17.283   4.259  1.00  0.00    -0.067 N 
HETATM   26  H   UNL     1      43.767 -17.583   4.997  1.00  0.00     0.280 HD
HETATM   27  C   UNL     1      41.792 -17.937   4.524  1.00  0.00     0.237 C 
HETATM   28  C   UNL     1      41.361 -17.623   5.943  1.00  0.00     0.053 C 
BRANCH  25  29
HETATM   29  C   UNL     1      43.744 -17.761   2.966  1.00  0.00     0.273 C 
BRANCH  29  30
HETATM   30  C   UNL     1      44.000 -19.245   2.964  1.00  0.00    -0.033 A 
HETATM   31  C   UNL     1      43.582 -20.041   1.884  1.00  0.00     0.009 A 
HETATM   32  C   UNL     1      43.774 -21.423   1.908  1.00  0.00     0.001 A 
HETATM   33  C   UNL     1      44.396 -22.021   3.001  1.00  0.00     0.000 A 
HETATM   34  C   UNL     1      44.833 -21.240   4.068  1.00  0.00     0.001 A 
HETATM   35  C   UNL     1      44.637 -19.858   4.052  1.00  0.00     0.009 A 
ENDBRANCH  29  30
ENDBRANCH  25  29
ENDBRANCH  20  22
ENDBRANCH   1  20
TORSDOF 10
ENDMDL
MODEL 3
REMARK VINA RESULT:      -8.5      1.405      2.071
REMARK  10 active torsions:
REMARK  status: ('A' for Active; 'I' for Inactive)
REMARK    1  A    between atoms: C_2  and  C_3 
REMARK    2  A    between atoms: C_3  and  C_4 
REMARK    3  A    between atoms: C_4  and  O_5 
REMARK    4  A    between atoms: O_5  and  C_6 
REMARK    5  A    between atoms: C_10  and  C_11 
REMARK       I    between atoms: C_11  and  N_12 
REMARK    6  A    between atoms: N_12  and  C_13 
REMARK    7  A    between atoms: C_13  and  N_14 
REMARK    8  A    between atoms: N_14  and  C_15 
REMARK    9  A    between atoms: N_18  and  C_20 
REMARK   10  A    between atoms: C_20  and  C_21 
ROOT
HETATM    1  C   UNL     1      40.302 -13.871   5.822  1.00  0.00     0.174 C 
HETATM    2  S   UNL     1      40.022 -13.561   4.202  1.00  0.00    -0.041 SA
ENDROOT
BRANCH   1   3
HETATM    3  N   UNL     1      40.317 -12.811   6.676  1.00  0.00    -0.300 N 
HETATM    4  C   UNL     1      39.584 -11.630   6.829  1.00  0.00     0.257 C 
HETATM    5  O   UNL     1      38.752 -11.182   6.050  1.00  0.00    -0.267 OA
HETATM    6  H   UNL     1      41.128 -12.872   7.282  1.00  0.00     0.171 HD
BRANCH   4   7
HETATM    7  C   UNL     1      39.943 -10.803   8.012  1.00  0.00     0.033 A 
HETATM    8  C   UNL     1      38.992 -10.374   8.941  1.00  0.00     0.039 A 
HETATM    9  C   UNL     1      39.396  -9.589  10.029  1.00  0.00     0.045 A 
HETATM   10  C   UNL     1      40.740  -9.215  10.199  1.00  0.00     0.086 A 
HETATM   11 BR   UNL     1      38.053  -9.035  11.256  1.00  0.00    -0.048 Br
HETATM   12  C   UNL     1      41.677  -9.636   9.251  1.00  0.00     0.039 A 
HETATM   13  C   UNL     1      41.280 -10.419   8.163  1.00  0.00     0.020 A 
BRANCH  10  14
HETATM   14  O   UNL     1      41.045  -8.461  11.300  1.00  0.00    -0.350 OA
BRANCH  14  15
HETATM   15  C   UNL     1      41.493  -9.146  12.473  1.00  0.00     0.176 C 
BRANCH  15  16
HETATM   16  C   UNL     1      43.014  -9.015  12.549  1.00  0.00     0.030 C 
BRANCH  16  17
HETATM   17  C   UNL     1      43.748 -10.359  12.407  1.00  0.00    -0.021 C 
HETATM   18  C   UNL     1      44.513 -10.400  11.083  1.00  0.00     0.009 C 
HETATM   19  C   UNL     1      42.790 -11.549  12.486  1.00  0.00     0.009 C 
ENDBRANCH  16  17
ENDBRANCH  15  16
ENDBRANCH  14  15
ENDBRANCH  10  14
ENDBRANCH   4   7
ENDBRANCH   1   3
BRANCH   1  20
HETATM   20  N   UNL     1      40.519 -15.156   6.161  1.00  0.00    -0.362 N 
HETATM   21  H   UNL     1      39.655 -15.687   6.112  1.00  0.00     0.162 HD
BRANCH  20  22
HETATM   22  C   UNL     1      41.758 -15.892   6.408  1.00  0.00     0.087 C 
HETATM   23  C   UNL     1      42.908 -15.357   5.544  1.00  0.00     0.053 C 
HETATM   24  C   UNL     1      42.906 -15.877   4.115  1.00  0.00     0.237 C 
HETATM   25  N   UNL     1      42.849 -17.381   4.138  1.00  0.00    -0.067 N 
HETATM   26  H   UNL     1      43.632 -17.709   4.719  1.00  0.00     0.280 HD
HETATM   27  C   UNL     1      41.577 -17.855   4.779  1.00  0.00     0.237 C 
HETATM   28  C   UNL     1      41.554 -17.401   6.226  1.00  0.00     0.053 C 
BRANCH  25  29
HETATM   29  C   UNL     1      43.077 -18.013   2.780  1.00  0.00     0.273 C 
BRANCH  29  30
HETATM   30  C   UNL     1      43.637 -19.407   2.880  1.00  0.00    -0.033 A 
HETATM   31  C   UNL     1      43.414 -20.342   1.855  1.00  0.00     0.009 A 
HETATM   32  C   UNL     1      43.891 -21.648   1.973  1.00  0.00     0.001 A 
HETATM   33  C   UNL     1      44.604 -22.029   3.106  1.00  0.00     0.000 A 
HETATM   34  C   UNL     1      44.850 -21.106   4.120  1.00  0.00     0.001 A 
HETATM   35  C   UNL     1      44.369 -19.800   4.009  1.00  0.00     0.009 A 
ENDBRANCH  29  30
ENDBRANCH  25  29
ENDBRANCH  20  22
ENDBRANCH   1  20
TORSDOF 10
ENDMDL
MODEL 4
REMARK VINA RESULT:      -8.4      6.002      8.959
REMARK  10 active torsions:
REMARK  status: ('A' for Active; 'I' for Inactive)
REMARK    1  A    between atoms: C_2  and  C_3 
REMARK    2  A    between atoms: C_3  and  C_4 
REMARK    3  A    between atoms: C_4  and  O_5 
REMARK    4  A    between atoms: O_5  and  C_6 
REMARK    5  A    between atoms: C_10  and  C_11 
REMARK       I    between atoms: C_11  and  N_12 
REMARK    6  A    between atoms: N_12  and  C_13 
REMARK    7  A    between atoms: C_13  and  N_14 
REMARK    8  A    between atoms: N_14  and  C_15 
REMARK    9  A    between atoms: N_18  and  C_20 
REMARK   10  A    between atoms: C_20  and  C_21 
ROOT
HETATM    1  C   UNL     1      39.839 -14.253   4.748  1.00  0.00     0.174 C 
HETATM    2  S   UNL     1      39.592 -12.889   5.684  1.00  0.00    -0.041 SA
ENDROOT
BRANCH   1   3
HETATM    3  N   UNL     1      39.833 -14.102   3.395  1.00  0.00    -0.300 N 
HETATM    4  C   UNL     1      39.769 -14.951   2.287  1.00  0.00     0.257 C 
HETATM    5  O   UNL     1      39.845 -16.173   2.299  1.00  0.00    -0.267 OA
HETATM    6  H   UNL     1      40.013 -13.132   3.160  1.00  0.00     0.171 HD
BRANCH   4   7
HETATM    7  C   UNL     1      39.706 -14.274   0.964  1.00  0.00     0.033 A 
HETATM    8  C   UNL     1      40.301 -14.810  -0.180  1.00  0.00     0.039 A 
HETATM    9  C   UNL     1      40.212 -14.116  -1.394  1.00  0.00     0.045 A 
HETATM   10  C   UNL     1      39.541 -12.884  -1.481  1.00  0.00     0.086 A 
HETATM   11 BR   UNL     1      41.048 -14.897  -2.913  1.00  0.00    -0.048 Br
HETATM   12  C   UNL     1      38.966 -12.351  -0.325  1.00  0.00     0.039 A 
HETATM   13  C   UNL     1      39.052 -13.039   0.890  1.00  0.00     0.020 A 
BRANCH  10  14
HETATM   14  O   UNL     1      39.490 -12.286  -2.712  1.00  0.00    -0.350 OA
BRANCH  14  15
HETATM   15  C   UNL     1      40.116 -11.008  -2.857  1.00  0.00     0.176 C 
BRANCH  15  16
HETATM   16  C   UNL     1      41.403 -11.197  -3.659  1.00  0.00     0.030 C 
BRANCH  16  17
HETATM   17  C   UNL     1      42.659 -10.714  -2.914  1.00  0.00    -0.021 C 
HETATM   18  C   UNL     1      42.927 -11.611  -1.705  1.00  0.00     0.009 C 
HETATM   19  C   UNL     1      42.534  -9.259  -2.460  1.00  0.00     0.009 C 
ENDBRANCH  16  17
ENDBRANCH  15  16
ENDBRANCH  14  15
ENDBRANCH  10  14
ENDBRANCH   4   7
ENDBRANCH   1   3
BRANCH   1  20
HETATM   20  N   UNL     1      40.001 -15.415   5.408  1.00  0.00    -0.362 N 
HETATM   21  H   UNL     1      39.155 -15.975   5.355  1.00  0.00     0.162 HD
BRANCH  20  22
HETATM   22  C   UNL     1      41.186 -16.028   6.005  1.00  0.00     0.087 C 
HETATM   23  C   UNL     1      42.471 -15.325   5.547  1.00  0.00     0.053 C 
HETATM   24  C   UNL     1      42.961 -15.759   4.174  1.00  0.00     0.237 C 
HETATM   25  N   UNL     1      43.080 -17.259   4.144  1.00  0.00    -0.067 N 
HETATM   26  H   UNL     1      43.684 -17.535   4.929  1.00  0.00     0.280 HD
HETATM   27  C   UNL     1      41.739 -17.902   4.355  1.00  0.00     0.237 C 
HETATM   28  C   UNL     1      41.228 -17.538   5.735  1.00  0.00     0.053 C 
BRANCH  25  29
HETATM   29  C   UNL     1      43.779 -17.784   2.908  1.00  0.00     0.273 C 
BRANCH  29  30
HETATM   30  C   UNL     1      43.982 -19.275   2.949  1.00  0.00    -0.033 A 
HETATM   31  C   UNL     1      44.620 -19.880   4.046  1.00  0.00     0.009 A 
HETATM   32  C   UNL     1      44.853 -21.256   4.059  1.00  0.00     0.001 A 
HETATM   33  C   UNL     1      44.442 -22.042   2.985  1.00  0.00     0.000 A 
HETATM   34  C   UNL     1      43.791 -21.457   1.901  1.00  0.00     0.001 A 
HETATM   35  C   UNL     1      43.561 -20.080   1.881  1.00  0.00     0.009 A 
ENDBRANCH  29  30
ENDBRANCH  25  29
ENDBRANCH  20  22
ENDBRANCH   1  20
TORSDOF 10
ENDMDL
MODEL 5
REMARK VINA RESULT:      -8.4      2.701     11.000
REMARK  10 active torsions:
REMARK  status: ('A' for Active; 'I' for Inactive)
REMARK    1  A    between atoms: C_2  and  C_3 
REMARK    2  A    between atoms: C_3  and  C_4 
REMARK    3  A    between atoms: C_4  and  O_5 
REMARK    4  A    between atoms: O_5  and  C_6 
REMARK    5  A    between atoms: C_10  and  C_11 
REMARK       I    between atoms: C_11  and  N_12 
REMARK    6  A    between atoms: N_12  and  C_13 
REMARK    7  A    between atoms: C_13  and  N_14 
REMARK    8  A    between atoms: N_14  and  C_15 
REMARK    9  A    between atoms: N_18  and  C_20 
REMARK   10  A    between atoms: C_20  and  C_21 
ROOT
HETATM    1  C   UNL     1      39.647 -12.628   6.508  1.00  0.00     0.174 C 
HETATM    2  S   UNL     1      38.942 -11.789   5.243  1.00  0.00    -0.041 SA
ENDROOT
BRANCH   1   3
HETATM    3  N   UNL     1      40.219 -13.831   6.229  1.00  0.00    -0.300 N 
HETATM    4  C   UNL     1      40.313 -14.667   5.112  1.00  0.00     0.257 C 
HETATM    5  O   UNL     1      39.715 -14.537   4.051  1.00  0.00    -0.267 OA
HETATM    6  H   UNL     1      40.579 -14.244   7.083  1.00  0.00     0.171 HD
BRANCH   4   7
HETATM    7  C   UNL     1      41.149 -15.884   5.292  1.00  0.00     0.033 A 
HETATM    8  C   UNL     1      41.857 -16.137   6.469  1.00  0.00     0.039 A 
HETATM    9  C   UNL     1      42.633 -17.300   6.570  1.00  0.00     0.045 A 
HETATM   10  C   UNL     1      42.722 -18.212   5.505  1.00  0.00     0.086 A 
HETATM   11 BR   UNL     1      43.576 -17.585   8.197  1.00  0.00    -0.048 Br
HETATM   12  C   UNL     1      42.023 -17.935   4.327  1.00  0.00     0.039 A 
HETATM   13  C   UNL     1      41.247 -16.777   4.219  1.00  0.00     0.020 A 
BRANCH  10  14
HETATM   14  O   UNL     1      43.491 -19.328   5.700  1.00  0.00    -0.350 OA
BRANCH  14  15
HETATM   15  C   UNL     1      44.618 -19.518   4.840  1.00  0.00     0.176 C 
BRANCH  15  16
HETATM   16  C   UNL     1      44.435 -20.843   4.101  1.00  0.00     0.030 C 
BRANCH  16  17
HETATM   17  C   UNL     1      44.630 -20.723   2.580  1.00  0.00    -0.021 C 
HETATM   18  C   UNL     1      43.597 -19.758   1.995  1.00  0.00     0.009 C 
HETATM   19  C   UNL     1      44.526 -22.077   1.878  1.00  0.00     0.009 C 
ENDBRANCH  16  17
ENDBRANCH  15  16
ENDBRANCH  14  15
ENDBRANCH  10  14
ENDBRANCH   4   7
ENDBRANCH   1   3
BRANCH   1  20
HETATM   20  N   UNL     1      39.573 -12.056   7.725  1.00  0.00    -0.362 N 
HETATM   21  H   UNL     1      39.440 -12.764   8.441  1.00  0.00     0.162 HD
BRANCH  20  22
HETATM   22  C   UNL     1      39.808 -10.682   8.161  1.00  0.00     0.087 C 
HETATM   23  C   UNL     1      41.212 -10.202   7.766  1.00  0.00     0.053 C 
HETATM   24  C   UNL     1      42.315 -10.668   8.703  1.00  0.00     0.237 C 
HETATM   25  N   UNL     1      41.951 -10.295  10.116  1.00  0.00    -0.067 N 
HETATM   26  H   UNL     1      41.768  -9.284  10.129  1.00  0.00     0.280 HD
HETATM   27  C   UNL     1      40.690 -10.991  10.541  1.00  0.00     0.237 C 
HETATM   28  C   UNL     1      39.546 -10.522   9.664  1.00  0.00     0.053 C 
BRANCH  25  29
HETATM   29  C   UNL     1      43.081 -10.502  11.103  1.00  0.00     0.273 C 
BRANCH  29  30
HETATM   30  C   UNL     1      42.809  -9.855  12.435  1.00  0.00    -0.033 A 
HETATM   31  C   UNL     1      42.661 -10.636  13.593  1.00  0.00     0.009 A 
HETATM   32  C   UNL     1      42.358 -10.038  14.817  1.00  0.00     0.001 A 
HETATM   33  C   UNL     1      42.212  -8.655  14.899  1.00  0.00     0.000 A 
HETATM   34  C   UNL     1      42.376  -7.868  13.761  1.00  0.00     0.001 A 
HETATM   35  C   UNL     1      42.673  -8.463  12.534  1.00  0.00     0.009 A 
ENDBRANCH  29  30
ENDBRANCH  25  29
ENDBRANCH  20  22
ENDBRANCH   1  20
TORSDOF 10
ENDMDL
MODEL 6
REMARK VINA RESULT:      -8.3      5.693      9.199
REMARK  10 active torsions:
REMARK  status: ('A' for Active; 'I' for Inactive)
REMARK    1  A    between atoms: C_2  and  C_3 
REMARK    2  A    between atoms: C_3  and  C_4 
REMARK    3  A    between atoms: C_4  and  O_5 
REMARK    4  A    between atoms: O_5  and  C_6 
REMARK    5  A    between atoms: C_10  and  C_11 
REMARK       I    between atoms: C_11  and  N_12 
REMARK    6  A    between atoms: N_12  and  C_13 
REMARK    7  A    between atoms: C_13  and  N_14 
REMARK    8  A    between atoms: N_14  and  C_15 
REMARK    9  A    between atoms: N_18  and  C_20 
REMARK   10  A    between atoms: C_20  and  C_21 
ROOT
HETATM    1  C   UNL     1      40.779 -14.478   5.303  1.00  0.00     0.174 C 
HETATM    2  S   UNL     1      39.702 -13.460   6.080  1.00  0.00    -0.041 SA
ENDROOT
BRANCH   1   3
HETATM    3  N   UNL     1      40.782 -14.474   3.941  1.00  0.00    -0.300 N 
HETATM    4  C   UNL     1      41.741 -14.628   2.936  1.00  0.00     0.257 C 
HETATM    5  O   UNL     1      42.955 -14.676   3.087  1.00  0.00    -0.267 OA
HETATM    6  H   UNL     1      39.868 -14.196   3.599  1.00  0.00     0.171 HD
BRANCH   4   7
HETATM    7  C   UNL     1      41.215 -14.628   1.544  1.00  0.00     0.033 A 
HETATM    8  C   UNL     1      40.133 -13.836   1.154  1.00  0.00     0.039 A 
HETATM    9  C   UNL     1      39.681 -13.889  -0.172  1.00  0.00     0.045 A 
HETATM   10  C   UNL     1      40.292 -14.732  -1.115  1.00  0.00     0.086 A 
HETATM   11 BR   UNL     1      38.201 -12.790  -0.638  1.00  0.00    -0.048 Br
HETATM   12  C   UNL     1      41.362 -15.532  -0.706  1.00  0.00     0.039 A 
HETATM   13  C   UNL     1      41.817 -15.484   0.615  1.00  0.00     0.020 A 
BRANCH  10  14
HETATM   14  O   UNL     1      39.795 -14.706  -2.391  1.00  0.00    -0.350 OA
BRANCH  14  15
HETATM   15  C   UNL     1      40.689 -14.343  -3.446  1.00  0.00     0.176 C 
BRANCH  15  16
HETATM   16  C   UNL     1      40.780 -12.818  -3.490  1.00  0.00     0.030 C 
BRANCH  16  17
HETATM   17  C   UNL     1      42.220 -12.291  -3.376  1.00  0.00    -0.021 C 
HETATM   18  C   UNL     1      42.540 -11.954  -1.919  1.00  0.00     0.009 C 
HETATM   19  C   UNL     1      42.454 -11.061  -4.254  1.00  0.00     0.009 C 
ENDBRANCH  16  17
ENDBRANCH  15  16
ENDBRANCH  14  15
ENDBRANCH  10  14
ENDBRANCH   4   7
ENDBRANCH   1   3
BRANCH   1  20
HETATM   20  N   UNL     1      41.551 -15.251   6.088  1.00  0.00    -0.362 N 
HETATM   21  H   UNL     1      42.252 -14.688   6.561  1.00  0.00     0.162 HD
BRANCH  20  22
HETATM   22  C   UNL     1      41.436 -16.657   6.470  1.00  0.00     0.087 C 
HETATM   23  C   UNL     1      42.532 -17.057   7.467  1.00  0.00     0.053 C 
HETATM   24  C   UNL     1      43.876 -17.361   6.824  1.00  0.00     0.237 C 
HETATM   25  N   UNL     1      43.682 -18.383   5.735  1.00  0.00    -0.067 N 
HETATM   26  H   UNL     1      43.207 -19.193   6.156  1.00  0.00     0.280 HD
HETATM   27  C   UNL     1      42.790 -17.844   4.655  1.00  0.00     0.237 C 
HETATM   28  C   UNL     1      41.417 -17.569   5.236  1.00  0.00     0.053 C 
BRANCH  25  29
HETATM   29  C   UNL     1      44.982 -18.932   5.185  1.00  0.00     0.273 C 
BRANCH  29  30
HETATM   30  C   UNL     1      44.790 -20.220   4.430  1.00  0.00    -0.033 A 
HETATM   31  C   UNL     1      44.785 -21.451   5.107  1.00  0.00     0.009 A 
HETATM   32  C   UNL     1      44.658 -22.647   4.398  1.00  0.00     0.001 A 
HETATM   33  C   UNL     1      44.525 -22.625   3.012  1.00  0.00     0.000 A 
HETATM   34  C   UNL     1      44.509 -21.410   2.332  1.00  0.00     0.001 A 
HETATM   35  C   UNL     1      44.641 -20.211   3.036  1.00  0.00     0.009 A 
ENDBRANCH  29  30
ENDBRANCH  25  29
ENDBRANCH  20  22
ENDBRANCH   1  20
TORSDOF 10
ENDMDL
MODEL 7
REMARK VINA RESULT:      -8.1      1.386      1.927
REMARK  10 active torsions:
REMARK  status: ('A' for Active; 'I' for Inactive)
REMARK    1  A    between atoms: C_2  and  C_3 
REMARK    2  A    between atoms: C_3  and  C_4 
REMARK    3  A    between atoms: C_4  and  O_5 
REMARK    4  A    between atoms: O_5  and  C_6 
REMARK    5  A    between atoms: C_10  and  C_11 
REMARK       I    between atoms: C_11  and  N_12 
REMARK    6  A    between atoms: N_12  and  C_13 
REMARK    7  A    between atoms: C_13  and  N_14 
REMARK    8  A    between atoms: N_14  and  C_15 
REMARK    9  A    between atoms: N_18  and  C_20 
REMARK   10  A    between atoms: C_20  and  C_21 
ROOT
HETATM    1  C   UNL     1      40.710 -12.981   5.571  1.00  0.00     0.174 C 
HETATM    2  S   UNL     1      39.714 -12.132   4.529  1.00  0.00    -0.041 SA
ENDROOT
BRANCH   1   3
HETATM    3  N   UNL     1      41.248 -12.305   6.624  1.00  0.00    -0.300 N 
HETATM    4  C   UNL     1      41.550 -10.972   6.916  1.00  0.00     0.257 C 
HETATM    5  O   UNL     1      41.509 -10.027   6.138  1.00  0.00    -0.267 OA
HETATM    6  H   UNL     1      41.590 -12.965   7.314  1.00  0.00     0.171 HD
BRANCH   4   7
HETATM    7  C   UNL     1      42.070 -10.720   8.287  1.00  0.00     0.033 A 
HETATM    8  C   UNL     1      43.342 -11.131   8.692  1.00  0.00     0.039 A 
HETATM    9  C   UNL     1      43.767 -10.869  10.001  1.00  0.00     0.045 A 
HETATM   10  C   UNL     1      42.933 -10.208  10.919  1.00  0.00     0.086 A 
HETATM   11 BR   UNL     1      45.507 -11.458  10.492  1.00  0.00    -0.048 Br
HETATM   12  C   UNL     1      41.657  -9.819  10.505  1.00  0.00     0.039 A 
HETATM   13  C   UNL     1      41.226 -10.078   9.200  1.00  0.00     0.020 A 
BRANCH  10  14
HETATM   14  O   UNL     1      43.439  -9.980  12.172  1.00  0.00    -0.350 OA
BRANCH  14  15
HETATM   15  C   UNL     1      42.646 -10.381  13.292  1.00  0.00     0.176 C 
BRANCH  15  16
HETATM   16  C   UNL     1      42.990  -9.468  14.469  1.00  0.00     0.030 C 
BRANCH  16  17
HETATM   17  C   UNL     1      41.789  -8.652  14.976  1.00  0.00    -0.021 C 
HETATM   18  C   UNL     1      41.335  -9.179  16.338  1.00  0.00     0.009 C 
HETATM   19  C   UNL     1      40.616  -8.684  13.994  1.00  0.00     0.009 C 
ENDBRANCH  16  17
ENDBRANCH  15  16
ENDBRANCH  14  15
ENDBRANCH  10  14
ENDBRANCH   4   7
ENDBRANCH   1   3
BRANCH   1  20
HETATM   20  N   UNL     1      40.929 -14.276   5.274  1.00  0.00    -0.362 N 
HETATM   21  H   UNL     1      40.267 -14.596   4.573  1.00  0.00     0.162 HD
BRANCH  20  22
HETATM   22  C   UNL     1      42.009 -15.183   5.655  1.00  0.00     0.087 C 
HETATM   23  C   UNL     1      43.213 -15.048   4.712  1.00  0.00     0.053 C 
HETATM   24  C   UNL     1      43.064 -15.806   3.402  1.00  0.00     0.237 C 
HETATM   25  N   UNL     1      42.719 -17.241   3.700  1.00  0.00    -0.067 N 
HETATM   26  H   UNL     1      43.442 -17.606   4.333  1.00  0.00     0.280 HD
HETATM   27  C   UNL     1      41.401 -17.333   4.413  1.00  0.00     0.237 C 
HETATM   28  C   UNL     1      41.512 -16.631   5.752  1.00  0.00     0.053 C 
BRANCH  25  29
HETATM   29  C   UNL     1      42.775 -18.139   2.481  1.00  0.00     0.273 C 
BRANCH  29  30
HETATM   30  C   UNL     1      43.476 -19.443   2.758  1.00  0.00    -0.033 A 
HETATM   31  C   UNL     1      43.419 -20.496   1.830  1.00  0.00     0.009 A 
HETATM   32  C   UNL     1      44.026 -21.721   2.111  1.00  0.00     0.001 A 
HETATM   33  C   UNL     1      44.705 -21.902   3.313  1.00  0.00     0.000 A 
HETATM   34  C   UNL     1      44.786 -20.858   4.233  1.00  0.00     0.001 A 
HETATM   35  C   UNL     1      44.175 -19.633   3.958  1.00  0.00     0.009 A 
ENDBRANCH  29  30
ENDBRANCH  25  29
ENDBRANCH  20  22
ENDBRANCH   1  20
TORSDOF 10
ENDMDL
MODEL 8
REMARK VINA RESULT:      -8.0      5.724      9.069
REMARK  10 active torsions:
REMARK  status: ('A' for Active; 'I' for Inactive)
REMARK    1  A    between atoms: C_2  and  C_3 
REMARK    2  A    between atoms: C_3  and  C_4 
REMARK    3  A    between atoms: C_4  and  O_5 
REMARK    4  A    between atoms: O_5  and  C_6 
REMARK    5  A    between atoms: C_10  and  C_11 
REMARK       I    between atoms: C_11  and  N_12 
REMARK    6  A    between atoms: N_12  and  C_13 
REMARK    7  A    between atoms: C_13  and  N_14 
REMARK    8  A    between atoms: N_14  and  C_15 
REMARK    9  A    between atoms: N_18  and  C_20 
REMARK   10  A    between atoms: C_20  and  C_21 
ROOT
HETATM    1  C   UNL     1      42.036 -14.450   5.463  1.00  0.00     0.174 C 
HETATM    2  S   UNL     1      43.516 -13.846   5.958  1.00  0.00    -0.041 SA
ENDROOT
BRANCH   1   3
HETATM    3  N   UNL     1      41.597 -14.108   4.221  1.00  0.00    -0.300 N 
HETATM    4  C   UNL     1      42.188 -13.809   2.990  1.00  0.00     0.257 C 
HETATM    5  O   UNL     1      43.383 -13.644   2.775  1.00  0.00    -0.267 OA
HETATM    6  H   UNL     1      40.595 -13.947   4.246  1.00  0.00     0.171 HD
BRANCH   4   7
HETATM    7  C   UNL     1      41.243 -13.571   1.867  1.00  0.00     0.033 A 
HETATM    8  C   UNL     1      41.531 -12.691   0.820  1.00  0.00     0.039 A 
HETATM    9  C   UNL     1      40.592 -12.506  -0.204  1.00  0.00     0.045 A 
HETATM   10  C   UNL     1      39.360 -13.181  -0.193  1.00  0.00     0.086 A 
HETATM   11 BR   UNL     1      41.044 -11.292  -1.596  1.00  0.00    -0.048 Br
HETATM   12  C   UNL     1      39.078 -14.043   0.870  1.00  0.00     0.039 A 
HETATM   13  C   UNL     1      40.010 -14.233   1.894  1.00  0.00     0.020 A 
BRANCH  10  14
HETATM   14  O   UNL     1      38.512 -12.950  -1.243  1.00  0.00    -0.350 OA
BRANCH  14  15
HETATM   15  C   UNL     1      38.228 -14.043  -2.121  1.00  0.00     0.176 C 
BRANCH  15  16
HETATM   16  C   UNL     1      39.091 -13.885  -3.372  1.00  0.00     0.030 C 
BRANCH  16  17
HETATM   17  C   UNL     1      39.887 -15.152  -3.726  1.00  0.00    -0.021 C 
HETATM   18  C   UNL     1      38.931 -16.269  -4.149  1.00  0.00     0.009 C 
HETATM   19  C   UNL     1      40.755 -15.630  -2.561  1.00  0.00     0.009 C 
ENDBRANCH  16  17
ENDBRANCH  15  16
ENDBRANCH  14  15
ENDBRANCH  10  14
ENDBRANCH   4   7
ENDBRANCH   1   3
BRANCH   1  20
HETATM   20  N   UNL     1      41.371 -15.215   6.349  1.00  0.00    -0.362 N 
HETATM   21  H   UNL     1      40.791 -14.638   6.951  1.00  0.00     0.162 HD
BRANCH  20  22
HETATM   22  C   UNL     1      41.235 -16.666   6.459  1.00  0.00     0.087 C 
HETATM   23  C   UNL     1      42.328 -17.264   7.355  1.00  0.00     0.053 C 
HETATM   24  C   UNL     1      43.665 -17.461   6.656  1.00  0.00     0.237 C 
HETATM   25  N   UNL     1      43.449 -18.256   5.395  1.00  0.00    -0.067 N 
HETATM   26  H   UNL     1      42.963 -19.123   5.658  1.00  0.00     0.280 HD
HETATM   27  C   UNL     1      42.561 -17.509   4.442  1.00  0.00     0.237 C 
HETATM   28  C   UNL     1      41.196 -17.328   5.076  1.00  0.00     0.053 C 
BRANCH  25  29
HETATM   29  C   UNL     1      44.737 -18.711   4.742  1.00  0.00     0.273 C 
BRANCH  29  30
HETATM   30  C   UNL     1      44.581 -20.013   4.003  1.00  0.00    -0.033 A 
HETATM   31  C   UNL     1      44.783 -21.237   4.663  1.00  0.00     0.009 A 
HETATM   32  C   UNL     1      44.687 -22.442   3.964  1.00  0.00     0.001 A 
HETATM   33  C   UNL     1      44.379 -22.436   2.606  1.00  0.00     0.000 A 
HETATM   34  C   UNL     1      44.158 -21.230   1.945  1.00  0.00     0.001 A 
HETATM   35  C   UNL     1      44.257 -20.023   2.639  1.00  0.00     0.009 A 
ENDBRANCH  29  30
ENDBRANCH  25  29
ENDBRANCH  20  22
ENDBRANCH   1  20
TORSDOF 10
ENDMDL
MODEL 9
REMARK VINA RESULT:      -7.8      5.630      9.158
REMARK  10 active torsions:
REMARK  status: ('A' for Active; 'I' for Inactive)
REMARK    1  A    between atoms: C_2  and  C_3 
REMARK    2  A    between atoms: C_3  and  C_4 
REMARK    3  A    between atoms: C_4  and  O_5 
REMARK    4  A    between atoms: O_5  and  C_6 
REMARK    5  A    between atoms: C_10  and  C_11 
REMARK       I    between atoms: C_11  and  N_12 
REMARK    6  A    between atoms: N_12  and  C_13 
REMARK    7  A    between atoms: C_13  and  N_14 
REMARK    8  A    between atoms: N_14  and  C_15 
REMARK    9  A    between atoms: N_18  and  C_20 
REMARK   10  A    between atoms: C_20  and  C_21 
ROOT
HETATM    1  C   UNL     1      40.982 -14.432   5.350  1.00  0.00     0.174 C 
HETATM    2  S   UNL     1      39.772 -13.491   6.019  1.00  0.00    -0.041 SA
ENDROOT
BRANCH   1   3
HETATM    3  N   UNL     1      41.190 -14.334   4.008  1.00  0.00    -0.300 N 
HETATM    4  C   UNL     1      42.297 -14.367   3.155  1.00  0.00     0.257 C 
HETATM    5  O   UNL     1      43.475 -14.361   3.488  1.00  0.00    -0.267 OA
HETATM    6  H   UNL     1      40.322 -14.083   3.546  1.00  0.00     0.171 HD
BRANCH   4   7
HETATM    7  C   UNL     1      41.987 -14.299   1.701  1.00  0.00     0.033 A 
HETATM    8  C   UNL     1      42.091 -13.114   0.970  1.00  0.00     0.039 A 
HETATM    9  C   UNL     1      41.776 -13.116  -0.396  1.00  0.00     0.045 A 
HETATM   10  C   UNL     1      41.348 -14.288  -1.042  1.00  0.00     0.086 A 
HETATM   11 BR   UNL     1      41.933 -11.469  -1.334  1.00  0.00    -0.048 Br
HETATM   12  C   UNL     1      41.232 -15.462  -0.294  1.00  0.00     0.039 A 
HETATM   13  C   UNL     1      41.544 -15.466   1.069  1.00  0.00     0.020 A 
BRANCH  10  14
HETATM   14  O   UNL     1      41.078 -14.200  -2.382  1.00  0.00    -0.350 OA
BRANCH  14  15
HETATM   15  C   UNL     1      39.755 -14.525  -2.817  1.00  0.00     0.176 C 
BRANCH  15  16
HETATM   16  C   UNL     1      38.778 -13.585  -2.113  1.00  0.00     0.030 C 
BRANCH  16  17
HETATM   17  C   UNL     1      38.031 -12.649  -3.079  1.00  0.00    -0.021 C 
HETATM   18  C   UNL     1      39.025 -11.723  -3.782  1.00  0.00     0.009 C 
HETATM   19  C   UNL     1      36.967 -11.814  -2.364  1.00  0.00     0.009 C 
ENDBRANCH  16  17
ENDBRANCH  15  16
ENDBRANCH  14  15
ENDBRANCH  10  14
ENDBRANCH   4   7
ENDBRANCH   1   3
BRANCH   1  20
HETATM   20  N   UNL     1      41.650 -15.243   6.191  1.00  0.00    -0.362 N 
HETATM   21  H   UNL     1      42.280 -14.704   6.778  1.00  0.00     0.162 HD
BRANCH  20  22
HETATM   22  C   UNL     1      41.494 -16.666   6.486  1.00  0.00     0.087 C 
HETATM   23  C   UNL     1      42.537 -17.143   7.506  1.00  0.00     0.053 C 
HETATM   24  C   UNL     1      43.903 -17.437   6.906  1.00  0.00     0.237 C 
HETATM   25  N   UNL     1      43.740 -18.391   5.753  1.00  0.00    -0.067 N 
HETATM   26  H   UNL     1      43.234 -19.214   6.105  1.00  0.00     0.280 HD
HETATM   27  C   UNL     1      42.907 -17.775   4.667  1.00  0.00     0.237 C 
HETATM   28  C   UNL     1      41.515 -17.506   5.203  1.00  0.00     0.053 C 
BRANCH  25  29
HETATM   29  C   UNL     1      45.054 -18.934   5.230  1.00  0.00     0.273 C 
BRANCH  29  30
HETATM   30  C   UNL     1      44.883 -20.213   4.456  1.00  0.00    -0.033 A 
HETATM   31  C   UNL     1      44.729 -20.188   3.059  1.00  0.00     0.009 A 
HETATM   32  C   UNL     1      44.519 -21.371   2.349  1.00  0.00     0.001 A 
HETATM   33  C   UNL     1      44.472 -22.589   3.023  1.00  0.00     0.000 A 
HETATM   34  C   UNL     1      44.642 -22.629   4.405  1.00  0.00     0.001 A 
HETATM   35  C   UNL     1      44.847 -21.447   5.120  1.00  0.00     0.009 A 
ENDBRANCH  29  30
ENDBRANCH  25  29
ENDBRANCH  20  22
ENDBRANCH   1  20
TORSDOF 10
ENDMDL
MODEL 10
REMARK VINA RESULT:      -7.8      1.956      2.698
REMARK  10 active torsions:
REMARK  status: ('A' for Active; 'I' for Inactive)
REMARK    1  A    between atoms: C_2  and  C_3 
REMARK    2  A    between atoms: C_3  and  C_4 
REMARK    3  A    between atoms: C_4  and  O_5 
REMARK    4  A    between atoms: O_5  and  C_6 
REMARK    5  A    between atoms: C_10  and  C_11 
REMARK       I    between atoms: C_11  and  N_12 
REMARK    6  A    between atoms: N_12  and  C_13 
REMARK    7  A    between atoms: C_13  and  N_14 
REMARK    8  A    between atoms: N_14  and  C_15 
REMARK    9  A    between atoms: N_18  and  C_20 
REMARK   10  A    between atoms: C_20  and  C_21 
ROOT
HETATM    1  C   UNL     1      40.455 -14.746   5.658  1.00  0.00     0.174 C 
HETATM    2  S   UNL     1      41.593 -15.852   6.188  1.00  0.00    -0.041 SA
ENDROOT
BRANCH   1   3
HETATM    3  N   UNL     1      40.317 -13.591   6.366  1.00  0.00    -0.300 N 
HETATM    4  C   UNL     1      39.456 -12.490   6.341  1.00  0.00     0.257 C 
HETATM    5  O   UNL     1      38.617 -12.240   5.484  1.00  0.00    -0.267 OA
HETATM    6  H   UNL     1      41.101 -13.485   7.001  1.00  0.00     0.171 HD
BRANCH   4   7
HETATM    7  C   UNL     1      39.669 -11.486   7.416  1.00  0.00     0.033 A 
HETATM    8  C   UNL     1      40.152 -10.201   7.154  1.00  0.00     0.039 A 
HETATM    9  C   UNL     1      40.339  -9.305   8.215  1.00  0.00     0.045 A 
HETATM   10  C   UNL     1      40.059  -9.677   9.541  1.00  0.00     0.086 A 
HETATM   11 BR   UNL     1      41.002  -7.573   7.793  1.00  0.00    -0.048 Br
HETATM   12  C   UNL     1      39.595 -10.971   9.790  1.00  0.00     0.039 A 
HETATM   13  C   UNL     1      39.406 -11.871   8.735  1.00  0.00     0.020 A 
BRANCH  10  14
HETATM   14  O   UNL     1      40.256  -8.731  10.511  1.00  0.00    -0.350 OA
BRANCH  14  15
HETATM   15  C   UNL     1      41.047  -9.095  11.646  1.00  0.00     0.176 C 
BRANCH  15  16
HETATM   16  C   UNL     1      42.509  -9.158  11.206  1.00  0.00     0.030 C 
BRANCH  16  17
HETATM   17  C   UNL     1      43.400  -9.958  12.172  1.00  0.00    -0.021 C 
HETATM   18  C   UNL     1      42.964 -11.424  12.193  1.00  0.00     0.009 C 
HETATM   19  C   UNL     1      43.366  -9.389  13.591  1.00  0.00     0.009 C 
ENDBRANCH  16  17
ENDBRANCH  15  16
ENDBRANCH  14  15
ENDBRANCH  10  14
ENDBRANCH   4   7
ENDBRANCH   1   3
BRANCH   1  20
HETATM   20  N   UNL     1      39.735 -15.094   4.575  1.00  0.00    -0.362 N 
HETATM   21  H   UNL     1      38.932 -15.654   4.848  1.00  0.00     0.162 HD
BRANCH  20  22
HETATM   22  C   UNL     1      39.830 -14.676   3.178  1.00  0.00     0.087 C 
HETATM   23  C   UNL     1      39.645 -15.865   2.225  1.00  0.00     0.053 C 
HETATM   24  C   UNL     1      40.895 -16.711   2.037  1.00  0.00     0.237 C 
HETATM   25  N   UNL     1      42.039 -15.818   1.636  1.00  0.00    -0.067 N 
HETATM   26  H   UNL     1      41.740 -15.293   0.804  1.00  0.00     0.280 HD
HETATM   27  C   UNL     1      42.341 -14.823   2.718  1.00  0.00     0.237 C 
HETATM   28  C   UNL     1      41.138 -13.921   2.911  1.00  0.00     0.053 C 
BRANCH  25  29
HETATM   29  C   UNL     1      43.272 -16.580   1.197  1.00  0.00     0.273 C 
BRANCH  29  30
HETATM   30  C   UNL     1      43.581 -17.745   2.099  1.00  0.00    -0.033 A 
HETATM   31  C   UNL     1      43.572 -19.059   1.599  1.00  0.00     0.009 A 
HETATM   32  C   UNL     1      43.808 -20.141   2.448  1.00  0.00     0.001 A 
HETATM   33  C   UNL     1      44.068 -19.922   3.799  1.00  0.00     0.000 A 
HETATM   34  C   UNL     1      44.100 -18.624   4.302  1.00  0.00     0.001 A 
HETATM   35  C   UNL     1      43.858 -17.539   3.458  1.00  0.00     0.009 A 
ENDBRANCH  29  30
ENDBRANCH  25  29
ENDBRANCH  20  22
ENDBRANCH   1  20
TORSDOF 10
ENDMDL
