MODEL 1
REMARK VINA RESULT:      -8.1      0.000      0.000
REMARK  3 active torsions:
REMARK  status: ('A' for Active; 'I' for Inactive)
REMARK    1  A    between atoms: C_2  and  N_3 
REMARK       I    between atoms: N_3  and  C_4 
REMARK    2  A    between atoms: C_4  and  C_5 
REMARK    3  A    between atoms: C_5  and  C_6 
ROOT
HETATM    1  C   UNL     1      41.411 -16.654   5.663  1.00  0.00     0.286 C 
HETATM    2  N   UNL     1      41.529 -17.842   4.701  1.00  0.00    -0.056 N 
HETATM    3  H   UNL     1      41.671 -18.707   5.255  1.00  0.00     0.278 HD
HETATM    4  H   UNL     1      40.635 -17.959   4.204  1.00  0.00     0.278 HD
HETATM    5  C   UNL     1      42.662 -17.747   3.712  1.00  0.00     0.209 C 
HETATM    6  C   UNL     1      42.616 -16.378   3.010  1.00  0.00     0.115 C 
HETATM    7  N   UNL     1      42.653 -15.293   3.975  1.00  0.00    -0.353 N 
HETATM    8  C   UNL     1      41.919 -15.303   5.132  1.00  0.00     0.249 C 
HETATM    9  O   UNL     1      41.711 -14.255   5.734  1.00  0.00    -0.271 OA
HETATM   10  C   UNL     1      42.561 -18.891   2.707  1.00  0.00     0.035 C 
HETATM   11  C   UNL     1      43.687 -18.790   1.677  1.00  0.00     0.002 C 
HETATM   12  C   UNL     1      43.727 -17.421   0.998  1.00  0.00     0.002 C 
HETATM   13  C   UNL     1      43.766 -16.272   2.006  1.00  0.00     0.027 C 
HETATM   14  H   UNL     1      42.881 -14.353   3.654  1.00  0.00     0.163 HD
ENDROOT
BRANCH   1  15
HETATM   15  C   UNL     1      41.973 -16.961   7.055  1.00  0.00     0.146 C 
BRANCH  15  16
HETATM   16  C   UNL     1      43.460 -16.790   7.102  1.00  0.00     0.224 C 
HETATM   17  N   UNL     1      44.385 -17.731   6.814  1.00  0.00    -0.327 N 
HETATM   18  H   UNL     1      45.317 -17.340   6.931  1.00  0.00     0.169 HD
HETATM   19  O   UNL     1      43.869 -15.714   7.569  1.00  0.00    -0.273 OA
BRANCH  17  20
HETATM   20  C   UNL     1      44.382 -19.080   6.411  1.00  0.00     0.034 A 
HETATM   21  C   UNL     1      43.753 -20.142   7.058  1.00  0.00     0.032 A 
HETATM   22  C   UNL     1      43.861 -21.448   6.560  1.00  0.00     0.044 A 
HETATM   23  C   UNL     1      44.593 -21.698   5.409  1.00  0.00     0.116 A 
HETATM   24  C   UNL     1      45.216 -20.660   4.738  1.00  0.00     0.044 A 
HETATM   25  F   UNL     1      44.695 -22.947   4.944  1.00  0.00    -0.206 F 
HETATM   26  C   UNL     1      45.108 -19.358   5.236  1.00  0.00     0.032 A 
ENDBRANCH  17  20
ENDBRANCH  15  16
ENDBRANCH   1  15
TORSDOF 3
ENDMDL
MODEL 2
REMARK VINA RESULT:      -8.1      2.625      4.384
REMARK  3 active torsions:
REMARK  status: ('A' for Active; 'I' for Inactive)
REMARK    1  A    between atoms: C_2  and  N_3 
REMARK       I    between atoms: N_3  and  C_4 
REMARK    2  A    between atoms: C_4  and  C_5 
REMARK    3  A    between atoms: C_5  and  C_6 
ROOT
HETATM    1  C   UNL     1      41.449 -16.461   4.549  1.00  0.00     0.286 C 
HETATM    2  N   UNL     1      40.901 -15.451   3.534  1.00  0.00    -0.056 N 
HETATM    3  H   UNL     1      41.577 -15.363   2.753  1.00  0.00     0.278 HD
HETATM    4  H   UNL     1      40.033 -15.825   3.126  1.00  0.00     0.278 HD
HETATM    5  C   UNL     1      40.661 -14.068   4.082  1.00  0.00     0.209 C 
HETATM    6  C   UNL     1      39.830 -14.166   5.375  1.00  0.00     0.115 C 
HETATM    7  N   UNL     1      40.478 -15.026   6.350  1.00  0.00    -0.353 N 
HETATM    8  C   UNL     1      41.056 -16.223   6.018  1.00  0.00     0.249 C 
HETATM    9  O   UNL     1      41.279 -17.059   6.887  1.00  0.00    -0.271 OA
HETATM   10  C   UNL     1      39.955 -13.217   3.032  1.00  0.00     0.035 C 
HETATM   11  C   UNL     1      39.675 -11.819   3.584  1.00  0.00     0.002 C 
HETATM   12  C   UNL     1      38.909 -11.863   4.907  1.00  0.00     0.002 C 
HETATM   13  C   UNL     1      39.584 -12.766   5.940  1.00  0.00     0.027 C 
HETATM   14  H   UNL     1      40.179 -14.983   7.323  1.00  0.00     0.163 HD
ENDROOT
BRANCH   1  15
HETATM   15  C   UNL     1      42.955 -16.696   4.398  1.00  0.00     0.146 C 
BRANCH  15  16
HETATM   16  C   UNL     1      43.347 -16.867   2.963  1.00  0.00     0.224 C 
HETATM   17  N   UNL     1      43.791 -18.002   2.383  1.00  0.00    -0.327 N 
HETATM   18  H   UNL     1      43.985 -17.829   1.399  1.00  0.00     0.169 HD
HETATM   19  O   UNL     1      43.380 -15.828   2.282  1.00  0.00    -0.273 OA
BRANCH  17  20
HETATM   20  C   UNL     1      44.052 -19.325   2.788  1.00  0.00     0.034 A 
HETATM   21  C   UNL     1      44.590 -19.733   4.006  1.00  0.00     0.032 A 
HETATM   22  C   UNL     1      44.828 -21.091   4.265  1.00  0.00     0.044 A 
HETATM   23  C   UNL     1      44.523 -22.047   3.308  1.00  0.00     0.116 A 
HETATM   24  C   UNL     1      43.974 -21.672   2.094  1.00  0.00     0.044 A 
HETATM   25  F   UNL     1      44.758 -23.339   3.562  1.00  0.00    -0.206 F 
HETATM   26  C   UNL     1      43.738 -20.317   1.838  1.00  0.00     0.032 A 
ENDBRANCH  17  20
ENDBRANCH  15  16
ENDBRANCH   1  15
TORSDOF 3
ENDMDL
MODEL 3
REMARK VINA RESULT:      -8.0      1.910      2.645
REMARK  3 active torsions:
REMARK  status: ('A' for Active; 'I' for Inactive)
REMARK    1  A    between atoms: C_2  and  N_3 
REMARK       I    between atoms: N_3  and  C_4 
REMARK    2  A    between atoms: C_4  and  C_5 
REMARK    3  A    between atoms: C_5  and  C_6 
ROOT
HETATM    1  C   UNL     1      43.538 -16.331   6.377  1.00  0.00     0.286 C 
HETATM    2  N   UNL     1      42.420 -16.913   5.504  1.00  0.00    -0.056 N 
HETATM    3  H   UNL     1      42.564 -17.937   5.417  1.00  0.00     0.278 HD
HETATM    4  H   UNL     1      41.520 -16.787   5.986  1.00  0.00     0.278 HD
HETATM    5  C   UNL     1      42.345 -16.348   4.110  1.00  0.00     0.209 C 
HETATM    6  C   UNL     1      42.343 -14.809   4.181  1.00  0.00     0.115 C 
HETATM    7  N   UNL     1      43.506 -14.318   4.898  1.00  0.00    -0.353 N 
HETATM    8  C   UNL     1      43.958 -14.886   6.060  1.00  0.00     0.249 C 
HETATM    9  O   UNL     1      44.705 -14.255   6.801  1.00  0.00    -0.271 OA
HETATM   10  C   UNL     1      41.094 -16.872   3.412  1.00  0.00     0.035 C 
HETATM   11  C   UNL     1      40.985 -16.282   2.006  1.00  0.00     0.002 C 
HETATM   12  C   UNL     1      41.048 -14.754   2.015  1.00  0.00     0.002 C 
HETATM   13  C   UNL     1      42.270 -14.226   2.768  1.00  0.00     0.027 C 
HETATM   14  H   UNL     1      43.766 -13.336   4.805  1.00  0.00     0.163 HD
ENDROOT
BRANCH   1  15
HETATM   15  C   UNL     1      44.751 -17.261   6.485  1.00  0.00     0.146 C 
BRANCH  15  16
HETATM   16  C   UNL     1      44.403 -18.549   7.166  1.00  0.00     0.224 C 
HETATM   17  N   UNL     1      44.264 -19.755   6.577  1.00  0.00    -0.327 N 
HETATM   18  H   UNL     1      44.022 -20.452   7.278  1.00  0.00     0.169 HD
HETATM   19  O   UNL     1      44.095 -18.463   8.367  1.00  0.00    -0.273 OA
BRANCH  17  20
HETATM   20  C   UNL     1      44.359 -20.275   5.271  1.00  0.00     0.034 A 
HETATM   21  C   UNL     1      44.198 -19.569   4.080  1.00  0.00     0.032 A 
HETATM   22  C   UNL     1      44.288 -20.224   2.843  1.00  0.00     0.044 A 
HETATM   23  C   UNL     1      44.546 -21.585   2.792  1.00  0.00     0.116 A 
HETATM   24  C   UNL     1      44.725 -22.308   3.959  1.00  0.00     0.044 A 
HETATM   25  F   UNL     1      44.626 -22.203   1.608  1.00  0.00    -0.206 F 
HETATM   26  C   UNL     1      44.634 -21.654   5.191  1.00  0.00     0.032 A 
ENDBRANCH  17  20
ENDBRANCH  15  16
ENDBRANCH   1  15
TORSDOF 3
ENDMDL
MODEL 4
REMARK VINA RESULT:      -7.9      3.478      5.925
REMARK  3 active torsions:
REMARK  status: ('A' for Active; 'I' for Inactive)
REMARK    1  A    between atoms: C_2  and  N_3 
REMARK       I    between atoms: N_3  and  C_4 
REMARK    2  A    between atoms: C_4  and  C_5 
REMARK    3  A    between atoms: C_5  and  C_6 
ROOT
HETATM    1  C   UNL     1      43.910 -17.205   4.336  1.00  0.00     0.286 C 
HETATM    2  N   UNL     1      43.851 -17.966   3.006  1.00  0.00    -0.056 N 
HETATM    3  H   UNL     1      43.059 -17.597   2.446  1.00  0.00     0.278 HD
HETATM    4  H   UNL     1      44.705 -17.767   2.468  1.00  0.00     0.278 HD
HETATM    5  C   UNL     1      43.656 -19.455   3.135  1.00  0.00     0.209 C 
HETATM    6  C   UNL     1      44.685 -20.021   4.132  1.00  0.00     0.115 C 
HETATM    7  N   UNL     1      44.590 -19.353   5.418  1.00  0.00    -0.353 N 
HETATM    8  C   UNL     1      44.446 -17.996   5.542  1.00  0.00     0.249 C 
HETATM    9  O   UNL     1      44.711 -17.446   6.606  1.00  0.00    -0.271 OA
HETATM   10  C   UNL     1      43.794 -20.110   1.764  1.00  0.00     0.035 C 
HETATM   11  C   UNL     1      43.631 -21.626   1.883  1.00  0.00     0.002 C 
HETATM   12  C   UNL     1      44.585 -22.230   2.914  1.00  0.00     0.002 C 
HETATM   13  C   UNL     1      44.493 -21.532   4.272  1.00  0.00     0.027 C 
HETATM   14  H   UNL     1      45.023 -19.785   6.233  1.00  0.00     0.163 HD
ENDROOT
BRANCH   1  15
HETATM   15  C   UNL     1      42.598 -16.489   4.669  1.00  0.00     0.146 C 
BRANCH  15  16
HETATM   16  C   UNL     1      41.406 -17.327   4.321  1.00  0.00     0.224 C 
HETATM   17  N   UNL     1      40.608 -17.179   3.242  1.00  0.00    -0.327 N 
HETATM   18  H   UNL     1      39.876 -17.885   3.260  1.00  0.00     0.169 HD
HETATM   19  O   UNL     1      41.057 -18.157   5.178  1.00  0.00    -0.273 OA
BRANCH  17  20
HETATM   20  C   UNL     1      40.534 -16.311   2.135  1.00  0.00     0.034 A 
HETATM   21  C   UNL     1      39.755 -15.161   2.029  1.00  0.00     0.032 A 
HETATM   22  C   UNL     1      39.753 -14.405   0.848  1.00  0.00     0.044 A 
HETATM   23  C   UNL     1      40.535 -14.793  -0.230  1.00  0.00     0.116 A 
HETATM   24  C   UNL     1      41.329 -15.923  -0.147  1.00  0.00     0.044 A 
HETATM   25  F   UNL     1      40.523 -14.069  -1.354  1.00  0.00    -0.206 F 
HETATM   26  C   UNL     1      41.329 -16.676   1.031  1.00  0.00     0.032 A 
ENDBRANCH  17  20
ENDBRANCH  15  16
ENDBRANCH   1  15
TORSDOF 3
ENDMDL
MODEL 5
REMARK VINA RESULT:      -7.9      3.069      4.373
REMARK  3 active torsions:
REMARK  status: ('A' for Active; 'I' for Inactive)
REMARK    1  A    between atoms: C_2  and  N_3 
REMARK       I    between atoms: N_3  and  C_4 
REMARK    2  A    between atoms: C_4  and  C_5 
REMARK    3  A    between atoms: C_5  and  C_6 
ROOT
HETATM    1  C   UNL     1      42.771 -15.539   3.102  1.00  0.00     0.286 C 
HETATM    2  N   UNL     1      41.298 -15.871   2.833  1.00  0.00    -0.056 N 
HETATM    3  H   UNL     1      41.248 -16.768   2.315  1.00  0.00     0.278 HD
HETATM    4  H   UNL     1      40.821 -16.028   3.732  1.00  0.00     0.278 HD
HETATM    5  C   UNL     1      40.553 -14.841   2.024  1.00  0.00     0.209 C 
HETATM    6  C   UNL     1      40.775 -13.447   2.642  1.00  0.00     0.115 C 
HETATM    7  N   UNL     1      42.191 -13.136   2.735  1.00  0.00    -0.353 N 
HETATM    8  C   UNL     1      43.124 -14.042   3.163  1.00  0.00     0.249 C 
HETATM    9  O   UNL     1      44.222 -13.656   3.550  1.00  0.00    -0.271 OA
HETATM   10  C   UNL     1      39.071 -15.199   1.981  1.00  0.00     0.035 C 
HETATM   11  C   UNL     1      38.294 -14.145   1.191  1.00  0.00     0.002 C 
HETATM   12  C   UNL     1      38.536 -12.731   1.722  1.00  0.00     0.002 C 
HETATM   13  C   UNL     1      40.024 -12.394   1.825  1.00  0.00     0.027 C 
HETATM   14  H   UNL     1      42.475 -12.168   2.883  1.00  0.00     0.163 HD
ENDROOT
BRANCH   1  15
HETATM   15  C   UNL     1      43.729 -16.308   2.188  1.00  0.00     0.146 C 
BRANCH  15  16
HETATM   16  C   UNL     1      43.019 -17.379   1.417  1.00  0.00     0.224 C 
HETATM   17  N   UNL     1      43.031 -18.702   1.685  1.00  0.00    -0.327 N 
HETATM   18  H   UNL     1      42.464 -19.194   0.998  1.00  0.00     0.169 HD
HETATM   19  O   UNL     1      42.470 -17.016   0.363  1.00  0.00    -0.273 OA
BRANCH  17  20
HETATM   20  C   UNL     1      43.620 -19.547   2.645  1.00  0.00     0.034 A 
HETATM   21  C   UNL     1      43.931 -19.222   3.964  1.00  0.00     0.032 A 
HETATM   22  C   UNL     1      44.550 -20.158   4.805  1.00  0.00     0.044 A 
HETATM   23  C   UNL     1      44.855 -21.425   4.332  1.00  0.00     0.116 A 
HETATM   24  C   UNL     1      44.545 -21.781   3.031  1.00  0.00     0.044 A 
HETATM   25  F   UNL     1      45.450 -22.310   5.140  1.00  0.00    -0.206 F 
HETATM   26  C   UNL     1      43.928 -20.846   2.194  1.00  0.00     0.032 A 
ENDBRANCH  17  20
ENDBRANCH  15  16
ENDBRANCH   1  15
TORSDOF 3
ENDMDL
MODEL 6
REMARK VINA RESULT:      -7.8      2.807      5.262
REMARK  3 active torsions:
REMARK  status: ('A' for Active; 'I' for Inactive)
REMARK    1  A    between atoms: C_2  and  N_3 
REMARK       I    between atoms: N_3  and  C_4 
REMARK    2  A    between atoms: C_4  and  C_5 
REMARK    3  A    between atoms: C_5  and  C_6 
ROOT
HETATM    1  C   UNL     1      43.942 -17.726   5.125  1.00  0.00     0.286 C 
HETATM    2  N   UNL     1      43.820 -18.141   3.654  1.00  0.00    -0.056 N 
HETATM    3  H   UNL     1      42.988 -17.676   3.245  1.00  0.00     0.278 HD
HETATM    4  H   UNL     1      44.635 -17.785   3.137  1.00  0.00     0.278 HD
HETATM    5  C   UNL     1      43.667 -19.623   3.423  1.00  0.00     0.209 C 
HETATM    6  C   UNL     1      44.767 -20.377   4.194  1.00  0.00     0.115 C 
HETATM    7  N   UNL     1      44.735 -20.047   5.609  1.00  0.00    -0.353 N 
HETATM    8  C   UNL     1      44.568 -18.768   6.070  1.00  0.00     0.249 C 
HETATM    9  O   UNL     1      44.884 -18.485   7.221  1.00  0.00    -0.271 OA
HETATM   10  C   UNL     1      43.736 -19.917   1.928  1.00  0.00     0.035 C 
HETATM   11  C   UNL     1      43.615 -21.421   1.679  1.00  0.00     0.002 C 
HETATM   12  C   UNL     1      44.644 -22.223   2.478  1.00  0.00     0.002 C 
HETATM   13  C   UNL     1      44.618 -21.882   3.968  1.00  0.00     0.027 C 
HETATM   14  H   UNL     1      45.226 -20.649   6.268  1.00  0.00     0.163 HD
ENDROOT
BRANCH   1  15
HETATM   15  C   UNL     1      42.637 -17.162   5.693  1.00  0.00     0.146 C 
BRANCH  15  16
HETATM   16  C   UNL     1      42.528 -15.685   5.469  1.00  0.00     0.224 C 
HETATM   17  N   UNL     1      42.174 -15.072   4.319  1.00  0.00    -0.327 N 
HETATM   18  H   UNL     1      42.186 -14.064   4.452  1.00  0.00     0.169 HD
HETATM   19  O   UNL     1      42.922 -14.964   6.400  1.00  0.00    -0.273 OA
BRANCH  17  20
HETATM   20  C   UNL     1      41.810 -15.468   3.017  1.00  0.00     0.034 A 
HETATM   21  C   UNL     1      41.006 -16.552   2.670  1.00  0.00     0.032 A 
HETATM   22  C   UNL     1      40.751 -16.852   1.324  1.00  0.00     0.044 A 
HETATM   23  C   UNL     1      41.293 -16.064   0.319  1.00  0.00     0.116 A 
HETATM   24  C   UNL     1      42.083 -14.972   0.636  1.00  0.00     0.044 A 
HETATM   25  F   UNL     1      41.049 -16.359  -0.962  1.00  0.00    -0.206 F 
HETATM   26  C   UNL     1      42.337 -14.676   1.979  1.00  0.00     0.032 A 
ENDBRANCH  17  20
ENDBRANCH  15  16
ENDBRANCH   1  15
TORSDOF 3
ENDMDL
MODEL 7
REMARK VINA RESULT:      -7.7      3.271      4.431
REMARK  3 active torsions:
REMARK  status: ('A' for Active; 'I' for Inactive)
REMARK    1  A    between atoms: C_2  and  N_3 
REMARK       I    between atoms: N_3  and  C_4 
REMARK    2  A    between atoms: C_4  and  C_5 
REMARK    3  A    between atoms: C_5  and  C_6 
ROOT
HETATM    1  C   UNL     1      41.469 -15.984   2.872  1.00  0.00     0.286 C 
HETATM    2  N   UNL     1      41.290 -14.483   3.127  1.00  0.00    -0.056 N 
HETATM    3  H   UNL     1      41.511 -14.285   4.122  1.00  0.00     0.278 HD
HETATM    4  H   UNL     1      41.982 -13.964   2.569  1.00  0.00     0.278 HD
HETATM    5  C   UNL     1      39.905 -13.954   2.858  1.00  0.00     0.209 C 
HETATM    6  C   UNL     1      39.447 -14.407   1.459  1.00  0.00     0.115 C 
HETATM    7  N   UNL     1      39.505 -15.853   1.333  1.00  0.00    -0.353 N 
HETATM    8  C   UNL     1      40.556 -16.598   1.796  1.00  0.00     0.249 C 
HETATM    9  O   UNL     1      40.732 -17.738   1.378  1.00  0.00    -0.271 OA
HETATM   10  C   UNL     1      39.906 -12.433   2.976  1.00  0.00     0.035 C 
HETATM   11  C   UNL     1      38.514 -11.878   2.674  1.00  0.00     0.002 C 
HETATM   12  C   UNL     1      37.983 -12.355   1.322  1.00  0.00     0.002 C 
HETATM   13  C   UNL     1      38.040 -13.877   1.178  1.00  0.00     0.027 C 
HETATM   14  H   UNL     1      39.001 -16.303   0.569  1.00  0.00     0.163 HD
ENDROOT
BRANCH   1  15
HETATM   15  C   UNL     1      41.458 -16.810   4.161  1.00  0.00     0.146 C 
BRANCH  15  16
HETATM   16  C   UNL     1      42.779 -16.759   4.864  1.00  0.00     0.224 C 
HETATM   17  N   UNL     1      43.784 -17.654   4.749  1.00  0.00    -0.327 N 
HETATM   18  H   UNL     1      44.562 -17.371   5.340  1.00  0.00     0.169 HD
HETATM   19  O   UNL     1      42.904 -15.870   5.723  1.00  0.00    -0.273 OA
BRANCH  17  20
HETATM   20  C   UNL     1      44.014 -18.850   4.042  1.00  0.00     0.034 A 
HETATM   21  C   UNL     1      43.732 -19.092   2.699  1.00  0.00     0.032 A 
HETATM   22  C   UNL     1      43.985 -20.348   2.130  1.00  0.00     0.044 A 
HETATM   23  C   UNL     1      44.527 -21.366   2.899  1.00  0.00     0.116 A 
HETATM   24  C   UNL     1      44.830 -21.150   4.232  1.00  0.00     0.044 A 
HETATM   25  F   UNL     1      44.760 -22.563   2.349  1.00  0.00    -0.206 F 
HETATM   26  C   UNL     1      44.577 -19.896   4.798  1.00  0.00     0.032 A 
ENDBRANCH  17  20
ENDBRANCH  15  16
ENDBRANCH   1  15
TORSDOF 3
ENDMDL
MODEL 8
REMARK VINA RESULT:      -7.7      1.955      2.488
REMARK  3 active torsions:
REMARK  status: ('A' for Active; 'I' for Inactive)
REMARK    1  A    between atoms: C_2  and  N_3 
REMARK       I    between atoms: N_3  and  C_4 
REMARK    2  A    between atoms: C_4  and  C_5 
REMARK    3  A    between atoms: C_5  and  C_6 
ROOT
HETATM    1  C   UNL     1      40.800 -16.811   5.045  1.00  0.00     0.286 C 
HETATM    2  N   UNL     1      40.765 -17.458   3.655  1.00  0.00    -0.056 N 
HETATM    3  H   UNL     1      41.370 -18.301   3.664  1.00  0.00     0.278 HD
HETATM    4  H   UNL     1      39.809 -17.789   3.464  1.00  0.00     0.278 HD
HETATM    5  C   UNL     1      41.240 -16.574   2.531  1.00  0.00     0.209 C 
HETATM    6  C   UNL     1      40.514 -15.217   2.606  1.00  0.00     0.115 C 
HETATM    7  N   UNL     1      40.708 -14.590   3.902  1.00  0.00    -0.353 N 
HETATM    8  C   UNL     1      40.628 -15.282   5.081  1.00  0.00     0.249 C 
HETATM    9  O   UNL     1      40.455 -14.679   6.135  1.00  0.00    -0.271 OA
HETATM   10  C   UNL     1      40.988 -17.265   1.195  1.00  0.00     0.035 C 
HETATM   11  C   UNL     1      41.436 -16.366   0.042  1.00  0.00     0.002 C 
HETATM   12  C   UNL     1      40.795 -14.979   0.108  1.00  0.00     0.002 C 
HETATM   13  C   UNL     1      40.993 -14.311   1.470  1.00  0.00     0.027 C 
HETATM   14  H   UNL     1      40.505 -13.597   4.006  1.00  0.00     0.163 HD
ENDROOT
BRANCH   1  15
HETATM   15  C   UNL     1      42.001 -17.264   5.880  1.00  0.00     0.146 C 
BRANCH  15  16
HETATM   16  C   UNL     1      43.291 -16.752   5.317  1.00  0.00     0.224 C 
HETATM   17  N   UNL     1      44.162 -17.444   4.551  1.00  0.00    -0.327 N 
HETATM   18  H   UNL     1      44.953 -16.849   4.313  1.00  0.00     0.169 HD
HETATM   19  O   UNL     1      43.641 -15.623   5.698  1.00  0.00    -0.273 OA
BRANCH  17  20
HETATM   20  C   UNL     1      44.252 -18.746   4.022  1.00  0.00     0.034 A 
HETATM   21  C   UNL     1      43.819 -19.167   2.766  1.00  0.00     0.032 A 
HETATM   22  C   UNL     1      43.941 -20.509   2.380  1.00  0.00     0.044 A 
HETATM   23  C   UNL     1      44.503 -21.435   3.245  1.00  0.00     0.116 A 
HETATM   24  C   UNL     1      44.955 -21.043   4.493  1.00  0.00     0.044 A 
HETATM   25  F   UNL     1      44.611 -22.714   2.871  1.00  0.00    -0.206 F 
HETATM   26  C   UNL     1      44.831 -19.704   4.877  1.00  0.00     0.032 A 
ENDBRANCH  17  20
ENDBRANCH  15  16
ENDBRANCH   1  15
TORSDOF 3
ENDMDL
MODEL 9
REMARK VINA RESULT:      -7.5      3.509      6.000
REMARK  3 active torsions:
REMARK  status: ('A' for Active; 'I' for Inactive)
REMARK    1  A    between atoms: C_2  and  N_3 
REMARK       I    between atoms: N_3  and  C_4 
REMARK    2  A    between atoms: C_4  and  C_5 
REMARK    3  A    between atoms: C_5  and  C_6 
ROOT
HETATM    1  C   UNL     1      43.763 -17.424   5.391  1.00  0.00     0.286 C 
HETATM    2  N   UNL     1      43.445 -17.754   3.928  1.00  0.00    -0.056 N 
HETATM    3  H   UNL     1      42.508 -17.373   3.696  1.00  0.00     0.278 HD
HETATM    4  H   UNL     1      44.116 -17.264   3.321  1.00  0.00     0.278 HD
HETATM    5  C   UNL     1      43.427 -19.224   3.598  1.00  0.00     0.209 C 
HETATM    6  C   UNL     1      44.720 -19.881   4.118  1.00  0.00     0.115 C 
HETATM    7  N   UNL     1      44.887 -19.651   5.543  1.00  0.00    -0.353 N 
HETATM    8  C   UNL     1      44.654 -18.437   6.132  1.00  0.00     0.249 C 
HETATM    9  O   UNL     1      45.124 -18.192   7.239  1.00  0.00    -0.271 OA
HETATM   10  C   UNL     1      43.279 -19.409   2.092  1.00  0.00     0.035 C 
HETATM   11  C   UNL     1      43.291 -20.896   1.737  1.00  0.00     0.002 C 
HETATM   12  C   UNL     1      44.525 -21.611   2.291  1.00  0.00     0.002 C 
HETATM   13  C   UNL     1      44.710 -21.375   3.791  1.00  0.00     0.027 C 
HETATM   14  H   UNL     1      45.548 -20.228   6.062  1.00  0.00     0.163 HD
ENDROOT
BRANCH   1  15
HETATM   15  C   UNL     1      42.515 -17.069   6.204  1.00  0.00     0.146 C 
BRANCH  15  16
HETATM   16  C   UNL     1      41.292 -17.008   5.343  1.00  0.00     0.224 C 
HETATM   17  N   UNL     1      40.676 -15.891   4.902  1.00  0.00    -0.327 N 
HETATM   18  H   UNL     1      39.869 -16.146   4.337  1.00  0.00     0.169 HD
HETATM   19  O   UNL     1      40.729 -18.094   5.121  1.00  0.00    -0.273 OA
BRANCH  17  20
HETATM   20  C   UNL     1      40.862 -14.500   5.030  1.00  0.00     0.034 A 
HETATM   21  C   UNL     1      40.147 -13.637   5.857  1.00  0.00     0.032 A 
HETATM   22  C   UNL     1      40.418 -12.261   5.860  1.00  0.00     0.044 A 
HETATM   23  C   UNL     1      41.409 -11.744   5.041  1.00  0.00     0.116 A 
HETATM   24  C   UNL     1      42.145 -12.580   4.219  1.00  0.00     0.044 A 
HETATM   25  F   UNL     1      41.658 -10.430   5.046  1.00  0.00    -0.206 F 
HETATM   26  C   UNL     1      41.873 -13.952   4.217  1.00  0.00     0.032 A 
ENDBRANCH  17  20
ENDBRANCH  15  16
ENDBRANCH   1  15
TORSDOF 3
ENDMDL
MODEL 10
REMARK VINA RESULT:      -7.4      3.485      4.600
REMARK  3 active torsions:
REMARK  status: ('A' for Active; 'I' for Inactive)
REMARK    1  A    between atoms: C_2  and  N_3 
REMARK       I    between atoms: N_3  and  C_4 
REMARK    2  A    between atoms: C_4  and  C_5 
REMARK    3  A    between atoms: C_5  and  C_6 
ROOT
HETATM    1  C   UNL     1      41.741 -14.858   1.577  1.00  0.00     0.286 C 
HETATM    2  N   UNL     1      41.072 -15.469   0.341  1.00  0.00    -0.056 N 
HETATM    3  H   UNL     1      41.286 -16.484   0.313  1.00  0.00     0.278 HD
HETATM    4  H   UNL     1      40.050 -15.391   0.440  1.00  0.00     0.278 HD
HETATM    5  C   UNL     1      41.511 -14.880  -0.975  1.00  0.00     0.209 C 
HETATM    6  C   UNL     1      41.410 -13.344  -0.907  1.00  0.00     0.115 C 
HETATM    7  N   UNL     1      42.185 -12.818   0.203  1.00  0.00    -0.353 N 
HETATM    8  C   UNL     1      42.183 -13.389   1.448  1.00  0.00     0.249 C 
HETATM    9  O   UNL     1      42.558 -12.743   2.420  1.00  0.00    -0.271 OA
HETATM   10  C   UNL     1      40.649 -15.443  -2.101  1.00  0.00     0.035 C 
HETATM   11  C   UNL     1      41.061 -14.830  -3.440  1.00  0.00     0.002 C 
HETATM   12  C   UNL     1      41.044 -13.301  -3.404  1.00  0.00     0.002 C 
HETATM   13  C   UNL     1      41.857 -12.737  -2.238  1.00  0.00     0.027 C 
HETATM   14  H   UNL     1      42.415 -11.825   0.219  1.00  0.00     0.163 HD
ENDROOT
BRANCH   1  15
HETATM   15  C   UNL     1      42.861 -15.737   2.141  1.00  0.00     0.146 C 
BRANCH  15  16
HETATM   16  C   UNL     1      42.509 -16.287   3.488  1.00  0.00     0.224 C 
HETATM   17  N   UNL     1      42.706 -17.553   3.915  1.00  0.00    -0.327 N 
HETATM   18  H   UNL     1      42.370 -17.647   4.870  1.00  0.00     0.169 HD
HETATM   19  O   UNL     1      41.863 -15.530   4.232  1.00  0.00    -0.273 OA
BRANCH  17  20
HETATM   20  C   UNL     1      43.237 -18.742   3.380  1.00  0.00     0.034 A 
HETATM   21  C   UNL     1      42.890 -19.341   2.171  1.00  0.00     0.032 A 
HETATM   22  C   UNL     1      43.480 -20.550   1.776  1.00  0.00     0.044 A 
HETATM   23  C   UNL     1      44.424 -21.163   2.585  1.00  0.00     0.116 A 
HETATM   24  C   UNL     1      44.799 -20.584   3.785  1.00  0.00     0.044 A 
HETATM   25  F   UNL     1      44.978 -22.318   2.203  1.00  0.00    -0.206 F 
HETATM   26  C   UNL     1      44.209 -19.378   4.177  1.00  0.00     0.032 A 
ENDBRANCH  17  20
ENDBRANCH  15  16
ENDBRANCH   1  15
TORSDOF 3
ENDMDL
