MODEL 1
REMARK VINA RESULT:      -8.6      0.000      0.000
REMARK  7 active torsions:
REMARK  status: ('A' for Active; 'I' for Inactive)
REMARK    1  A    between atoms: C_2  and  C_3 
REMARK    2  A    between atoms: C_3  and  N_4 
REMARK       I    between atoms: N_4  and  C_5 
REMARK    3  A    between atoms: C_5  and  C_6 
REMARK    4  A    between atoms: C_7  and  N_8 
REMARK    5  A    between atoms: N_9  and  N_10 
REMARK    6  A    between atoms: C_11  and  C_12 
REMARK    7  A    between atoms: C_13  and  O_14 
ROOT
HETATM    1  C   UNL     1      42.922 -13.434   5.859  1.00  0.00     0.110 C 
HETATM    2  C   UNL     1      42.480 -12.928   4.649  1.00  0.00     0.143 C 
HETATM    3  N   UNL     1      42.738 -13.862   3.651  1.00  0.00    -0.197 N 
HETATM    4  C   UNL     1      43.095 -15.053   4.268  1.00  0.00     0.183 A 
HETATM    5  C   UNL     1      43.270 -14.783   5.623  1.00  0.00     0.125 A 
HETATM    6  N   UNL     1      43.703 -15.737   6.488  1.00  0.00    -0.242 NA
HETATM    7  C   UNL     1      43.864 -16.956   5.948  1.00  0.00     0.086 A 
HETATM    8  C   UNL     1      43.653 -17.218   4.569  1.00  0.00     0.088 A 
HETATM    9  N   UNL     1      43.289 -16.266   3.694  1.00  0.00    -0.225 NA
HETATM   10  C   UNL     1      44.245 -18.003   6.778  1.00  0.00     0.034 A 
HETATM   11  C   UNL     1      44.414 -19.300   6.290  1.00  0.00     0.002 A 
HETATM   12  C   UNL     1      44.203 -19.556   4.942  1.00  0.00     0.002 A 
HETATM   13  C   UNL     1      43.827 -18.513   4.096  1.00  0.00     0.034 A 
ENDROOT
BRANCH   3  14
HETATM   14  N   UNL     1      42.713 -13.471   2.331  1.00  0.00    -0.176 NA
HETATM   15  C   UNL     1      41.651 -13.705   1.636  1.00  0.00     0.153 C 
BRANCH  15  16
HETATM   16  C   UNL     1      41.673 -13.480   0.170  1.00  0.00     0.017 A 
HETATM   17  C   UNL     1      42.279 -12.346  -0.393  1.00  0.00     0.077 A 
HETATM   18  C   UNL     1      42.359 -12.200  -1.775  1.00  0.00     0.039 A 
HETATM   19  C   UNL     1      41.836 -13.191  -2.606  1.00  0.00     0.022 A 
HETATM   20  C   UNL     1      41.231 -14.317  -2.047  1.00  0.00     0.012 A 
HETATM   21 BR   UNL     1      40.535 -15.661  -3.179  1.00  0.00    -0.051 Br
HETATM   22  C   UNL     1      41.146 -14.471  -0.662  1.00  0.00     0.034 A 
BRANCH  17  23
HETATM   23  O   UNL     1      42.844 -11.352   0.357  1.00  0.00    -0.360 OA
HETATM   24  H   UNL     1      43.301 -11.787   1.113  1.00  0.00     0.217 HD
ENDBRANCH  17  23
ENDBRANCH  15  16
ENDBRANCH   3  14
BRANCH   2  25
HETATM   25  N   UNL     1      41.981 -11.696   4.355  1.00  0.00    -0.383 N 
HETATM   26  H   UNL     1      40.998 -11.627   4.079  1.00  0.00     0.157 HD
HETATM   27  H   UNL     1      42.573 -11.025   3.865  1.00  0.00     0.157 HD
ENDBRANCH   2  25
BRANCH   1  28
HETATM   28  C   UNL     1      43.017 -12.651   7.074  1.00  0.00     0.258 C 
HETATM   29  N   UNL     1      44.061 -13.032   7.893  1.00  0.00    -0.352 N 
HETATM   30  H   UNL     1      44.629 -13.807   7.577  1.00  0.00     0.163 HD
HETATM   31  O   UNL     1      42.334 -11.648   7.266  1.00  0.00    -0.267 OA
BRANCH  29  32
HETATM   32  C   UNL     1      44.656 -12.082   8.823  1.00  0.00     0.080 C 
HETATM   33  C   UNL     1      46.178 -12.050   8.640  1.00  0.00     0.032 C 
BRANCH  32  34
HETATM   34  C   UNL     1      44.320 -12.449  10.276  1.00  0.00     0.020 C 
HETATM   35  C   UNL     1      44.254 -11.237  11.192  1.00  0.00     0.007 C 
ENDBRANCH  32  34
ENDBRANCH  29  32
ENDBRANCH   1  28
TORSDOF 7
ENDMDL
MODEL 2
REMARK VINA RESULT:      -8.5      3.741      8.242
REMARK  7 active torsions:
REMARK  status: ('A' for Active; 'I' for Inactive)
REMARK    1  A    between atoms: C_2  and  C_3 
REMARK    2  A    between atoms: C_3  and  N_4 
REMARK       I    between atoms: N_4  and  C_5 
REMARK    3  A    between atoms: C_5  and  C_6 
REMARK    4  A    between atoms: C_7  and  N_8 
REMARK    5  A    between atoms: N_9  and  N_10 
REMARK    6  A    between atoms: C_11  and  C_12 
REMARK    7  A    between atoms: C_13  and  O_14 
ROOT
HETATM    1  C   UNL     1      40.078 -14.738   1.199  1.00  0.00     0.110 C 
HETATM    2  C   UNL     1      40.449 -16.043   1.472  1.00  0.00     0.143 C 
HETATM    3  N   UNL     1      40.806 -16.137   2.813  1.00  0.00    -0.197 N 
HETATM    4  C   UNL     1      40.407 -14.965   3.441  1.00  0.00     0.183 A 
HETATM    5  C   UNL     1      40.013 -14.074   2.445  1.00  0.00     0.125 A 
HETATM    6  N   UNL     1      39.643 -12.800   2.737  1.00  0.00    -0.242 NA
HETATM    7  C   UNL     1      39.610 -12.509   4.048  1.00  0.00     0.086 A 
HETATM    8  C   UNL     1      39.989 -13.441   5.050  1.00  0.00     0.088 A 
HETATM    9  N   UNL     1      40.420 -14.681   4.766  1.00  0.00    -0.225 NA
HETATM   10  C   UNL     1      39.182 -11.245   4.435  1.00  0.00     0.034 A 
HETATM   11  C   UNL     1      39.106 -10.879   5.780  1.00  0.00     0.002 A 
HETATM   12  C   UNL     1      39.471 -11.791   6.759  1.00  0.00     0.002 A 
HETATM   13  C   UNL     1      39.910 -13.061   6.384  1.00  0.00     0.034 A 
ENDROOT
BRANCH   3  14
HETATM   14  N   UNL     1      41.531 -17.224   3.249  1.00  0.00    -0.176 NA
HETATM   15  C   UNL     1      42.806 -17.095   3.409  1.00  0.00     0.153 C 
BRANCH  15  16
HETATM   16  C   UNL     1      43.633 -18.295   3.679  1.00  0.00     0.017 A 
HETATM   17  C   UNL     1      44.333 -18.452   4.885  1.00  0.00     0.077 A 
HETATM   18  C   UNL     1      45.035 -19.624   5.148  1.00  0.00     0.039 A 
HETATM   19  C   UNL     1      45.040 -20.654   4.207  1.00  0.00     0.022 A 
HETATM   20  C   UNL     1      44.346 -20.497   3.006  1.00  0.00     0.012 A 
HETATM   21 BR   UNL     1      44.346 -21.901   1.739  1.00  0.00    -0.051 Br
HETATM   22  C   UNL     1      43.639 -19.324   2.734  1.00  0.00     0.034 A 
BRANCH  17  23
HETATM   23  O   UNL     1      44.345 -17.502   5.869  1.00  0.00    -0.360 OA
HETATM   24  H   UNL     1      43.461 -17.071   5.865  1.00  0.00     0.217 HD
ENDBRANCH  17  23
ENDBRANCH  15  16
ENDBRANCH   3  14
BRANCH   2  25
HETATM   25  N   UNL     1      40.596 -17.097   0.624  1.00  0.00    -0.383 N 
HETATM   26  H   UNL     1      41.360 -17.068  -0.057  1.00  0.00     0.157 HD
HETATM   27  H   UNL     1      39.764 -17.558   0.256  1.00  0.00     0.157 HD
ENDBRANCH   2  25
BRANCH   1  28
HETATM   28  C   UNL     1      39.859 -14.225  -0.137  1.00  0.00     0.258 C 
HETATM   29  N   UNL     1      41.010 -14.160  -0.897  1.00  0.00    -0.352 N 
HETATM   30  H   UNL     1      41.868 -14.456  -0.451  1.00  0.00     0.163 HD
HETATM   31  O   UNL     1      38.735 -14.025  -0.590  1.00  0.00    -0.267 OA
BRANCH  29  32
HETATM   32  C   UNL     1      40.940 -14.214  -2.350  1.00  0.00     0.080 C 
HETATM   33  C   UNL     1      40.971 -15.672  -2.824  1.00  0.00     0.032 C 
BRANCH  32  34
HETATM   34  C   UNL     1      42.105 -13.442  -2.987  1.00  0.00     0.020 C 
HETATM   35  C   UNL     1      42.796 -12.502  -2.011  1.00  0.00     0.007 C 
ENDBRANCH  32  34
ENDBRANCH  29  32
ENDBRANCH   1  28
TORSDOF 7
ENDMDL
MODEL 3
REMARK VINA RESULT:      -8.4      2.221      3.216
REMARK  7 active torsions:
REMARK  status: ('A' for Active; 'I' for Inactive)
REMARK    1  A    between atoms: C_2  and  C_3 
REMARK    2  A    between atoms: C_3  and  N_4 
REMARK       I    between atoms: N_4  and  C_5 
REMARK    3  A    between atoms: C_5  and  C_6 
REMARK    4  A    between atoms: C_7  and  N_8 
REMARK    5  A    between atoms: N_9  and  N_10 
REMARK    6  A    between atoms: C_11  and  C_12 
REMARK    7  A    between atoms: C_13  and  O_14 
ROOT
HETATM    1  C   UNL     1      41.770 -16.479   4.265  1.00  0.00     0.110 C 
HETATM    2  C   UNL     1      40.958 -16.055   3.228  1.00  0.00     0.143 C 
HETATM    3  N   UNL     1      41.263 -16.793   2.089  1.00  0.00    -0.197 N 
HETATM    4  C   UNL     1      42.071 -17.854   2.475  1.00  0.00     0.183 A 
HETATM    5  C   UNL     1      42.438 -17.635   3.800  1.00  0.00     0.125 A 
HETATM    6  N   UNL     1      43.300 -18.463   4.446  1.00  0.00    -0.242 NA
HETATM    7  C   UNL     1      43.692 -19.533   3.734  1.00  0.00     0.086 A 
HETATM    8  C   UNL     1      43.284 -19.753   2.393  1.00  0.00     0.088 A 
HETATM    9  N   UNL     1      42.485 -18.905   1.726  1.00  0.00    -0.225 NA
HETATM   10  C   UNL     1      44.526 -20.463   4.343  1.00  0.00     0.034 A 
HETATM   11  C   UNL     1      44.959 -21.607   3.671  1.00  0.00     0.002 A 
HETATM   12  C   UNL     1      44.557 -21.825   2.361  1.00  0.00     0.002 A 
HETATM   13  C   UNL     1      43.725 -20.895   1.735  1.00  0.00     0.034 A 
ENDROOT
BRANCH   3  14
HETATM   14  N   UNL     1      40.851 -16.341   0.855  1.00  0.00    -0.176 NA
HETATM   15  C   UNL     1      41.648 -15.589   0.172  1.00  0.00     0.153 C 
BRANCH  15  16
HETATM   16  C   UNL     1      41.153 -14.926  -1.058  1.00  0.00     0.017 A 
HETATM   17  C   UNL     1      41.518 -13.610  -1.384  1.00  0.00     0.077 A 
HETATM   18  C   UNL     1      41.108 -13.041  -2.586  1.00  0.00     0.039 A 
HETATM   19  C   UNL     1      40.332 -13.784  -3.475  1.00  0.00     0.022 A 
HETATM   20  C   UNL     1      39.967 -15.091  -3.150  1.00  0.00     0.012 A 
HETATM   21 BR   UNL     1      38.926 -16.099  -4.365  1.00  0.00    -0.051 Br
HETATM   22  C   UNL     1      40.374 -15.671  -1.947  1.00  0.00     0.034 A 
BRANCH  17  23
HETATM   23  O   UNL     1      42.304 -12.833  -0.579  1.00  0.00    -0.360 OA
HETATM   24  H   UNL     1      43.039 -13.403  -0.257  1.00  0.00     0.217 HD
ENDBRANCH  17  23
ENDBRANCH  15  16
ENDBRANCH   3  14
BRANCH   2  25
HETATM   25  N   UNL     1      40.073 -15.022   3.187  1.00  0.00    -0.383 N 
HETATM   26  H   UNL     1      39.258 -15.060   3.806  1.00  0.00     0.157 HD
HETATM   27  H   UNL     1      39.862 -14.584   2.290  1.00  0.00     0.157 HD
ENDBRANCH   2  25
BRANCH   1  28
HETATM   28  C   UNL     1      41.884 -15.789   5.533  1.00  0.00     0.258 C 
HETATM   29  N   UNL     1      43.167 -15.366   5.815  1.00  0.00    -0.352 N 
HETATM   30  H   UNL     1      43.881 -15.586   5.132  1.00  0.00     0.163 HD
HETATM   31  O   UNL     1      40.903 -15.477   6.203  1.00  0.00    -0.267 OA
BRANCH  29  32
HETATM   32  C   UNL     1      43.394 -14.231   6.699  1.00  0.00     0.080 C 
HETATM   33  C   UNL     1      42.851 -12.948   6.057  1.00  0.00     0.032 C 
BRANCH  32  34
HETATM   34  C   UNL     1      44.889 -14.059   7.004  1.00  0.00     0.020 C 
HETATM   35  C   UNL     1      45.154 -13.051   8.112  1.00  0.00     0.007 C 
ENDBRANCH  32  34
ENDBRANCH  29  32
ENDBRANCH   1  28
TORSDOF 7
ENDMDL
MODEL 4
REMARK VINA RESULT:      -8.3      2.983      3.890
REMARK  7 active torsions:
REMARK  status: ('A' for Active; 'I' for Inactive)
REMARK    1  A    between atoms: C_2  and  C_3 
REMARK    2  A    between atoms: C_3  and  N_4 
REMARK       I    between atoms: N_4  and  C_5 
REMARK    3  A    between atoms: C_5  and  C_6 
REMARK    4  A    between atoms: C_7  and  N_8 
REMARK    5  A    between atoms: N_9  and  N_10 
REMARK    6  A    between atoms: C_11  and  C_12 
REMARK    7  A    between atoms: C_13  and  O_14 
ROOT
HETATM    1  C   UNL     1      41.762 -16.431   4.162  1.00  0.00     0.110 C 
HETATM    2  C   UNL     1      41.005 -15.906   3.129  1.00  0.00     0.143 C 
HETATM    3  N   UNL     1      41.317 -16.585   1.955  1.00  0.00    -0.197 N 
HETATM    4  C   UNL     1      42.064 -17.704   2.297  1.00  0.00     0.183 A 
HETATM    5  C   UNL     1      42.394 -17.585   3.645  1.00  0.00     0.125 A 
HETATM    6  N   UNL     1      43.197 -18.490   4.263  1.00  0.00    -0.242 NA
HETATM    7  C   UNL     1      43.566 -19.531   3.497  1.00  0.00     0.086 A 
HETATM    8  C   UNL     1      43.195 -19.647   2.132  1.00  0.00     0.088 A 
HETATM    9  N   UNL     1      42.457 -18.723   1.496  1.00  0.00    -0.225 NA
HETATM   10  C   UNL     1      44.337 -20.534   4.070  1.00  0.00     0.034 A 
HETATM   11  C   UNL     1      44.743 -21.653   3.340  1.00  0.00     0.002 A 
HETATM   12  C   UNL     1      44.376 -21.769   2.007  1.00  0.00     0.002 A 
HETATM   13  C   UNL     1      43.608 -20.765   1.416  1.00  0.00     0.034 A 
ENDROOT
BRANCH   3  14
HETATM   14  N   UNL     1      40.967 -16.038   0.741  1.00  0.00    -0.176 NA
HETATM   15  C   UNL     1      41.870 -15.417   0.057  1.00  0.00     0.153 C 
BRANCH  15  16
HETATM   16  C   UNL     1      41.475 -14.649  -1.148  1.00  0.00     0.017 A 
HETATM   17  C   UNL     1      40.742 -15.237  -2.190  1.00  0.00     0.077 A 
HETATM   18  C   UNL     1      40.312 -14.473  -3.271  1.00  0.00     0.039 A 
HETATM   19  C   UNL     1      40.609 -13.111  -3.317  1.00  0.00     0.022 A 
HETATM   20  C   UNL     1      41.340 -12.526  -2.282  1.00  0.00     0.012 A 
HETATM   21 BR   UNL     1      41.729 -10.677  -2.344  1.00  0.00    -0.051 Br
HETATM   22  C   UNL     1      41.775 -13.285  -1.193  1.00  0.00     0.034 A 
BRANCH  17  23
HETATM   23  O   UNL     1      40.384 -16.557  -2.197  1.00  0.00    -0.360 OA
HETATM   24  H   UNL     1      40.409 -16.867  -1.264  1.00  0.00     0.217 HD
ENDBRANCH  17  23
ENDBRANCH  15  16
ENDBRANCH   3  14
BRANCH   2  25
HETATM   25  N   UNL     1      40.168 -14.834   3.127  1.00  0.00    -0.383 N 
HETATM   26  H   UNL     1      39.516 -14.731   2.344  1.00  0.00     0.157 HD
HETATM   27  H   UNL     1      40.510 -13.936   3.470  1.00  0.00     0.157 HD
ENDBRANCH   2  25
BRANCH   1  28
HETATM   28  C   UNL     1      41.863 -15.828   5.475  1.00  0.00     0.258 C 
HETATM   29  N   UNL     1      42.487 -16.636   6.404  1.00  0.00    -0.352 N 
HETATM   30  H   UNL     1      42.790 -17.547   6.087  1.00  0.00     0.163 HD
HETATM   31  O   UNL     1      41.566 -14.655   5.685  1.00  0.00    -0.267 OA
BRANCH  29  32
HETATM   32  C   UNL     1      43.163 -16.053   7.555  1.00  0.00     0.080 C 
HETATM   33  C   UNL     1      44.417 -15.296   7.099  1.00  0.00     0.032 C 
BRANCH  32  34
HETATM   34  C   UNL     1      43.557 -17.135   8.570  1.00  0.00     0.020 C 
HETATM   35  C   UNL     1      43.982 -18.438   7.911  1.00  0.00     0.007 C 
ENDBRANCH  32  34
ENDBRANCH  29  32
ENDBRANCH   1  28
TORSDOF 7
ENDMDL
MODEL 5
REMARK VINA RESULT:      -8.3      3.607      8.447
REMARK  7 active torsions:
REMARK  status: ('A' for Active; 'I' for Inactive)
REMARK    1  A    between atoms: C_2  and  C_3 
REMARK    2  A    between atoms: C_3  and  N_4 
REMARK       I    between atoms: N_4  and  C_5 
REMARK    3  A    between atoms: C_5  and  C_6 
REMARK    4  A    between atoms: C_7  and  N_8 
REMARK    5  A    between atoms: N_9  and  N_10 
REMARK    6  A    between atoms: C_11  and  C_12 
REMARK    7  A    between atoms: C_13  and  O_14 
ROOT
HETATM    1  C   UNL     1      43.058 -16.818   4.642  1.00  0.00     0.110 C 
HETATM    2  C   UNL     1      43.515 -16.097   5.730  1.00  0.00     0.143 C 
HETATM    3  N   UNL     1      43.713 -14.775   5.341  1.00  0.00    -0.197 N 
HETATM    4  C   UNL     1      43.130 -14.610   4.092  1.00  0.00     0.183 A 
HETATM    5  C   UNL     1      42.779 -15.875   3.627  1.00  0.00     0.125 A 
HETATM    6  N   UNL     1      42.256 -16.057   2.387  1.00  0.00    -0.242 NA
HETATM    7  C   UNL     1      42.036 -14.925   1.697  1.00  0.00     0.086 A 
HETATM    8  C   UNL     1      42.376 -13.642   2.200  1.00  0.00     0.088 A 
HETATM    9  N   UNL     1      42.954 -13.459   3.399  1.00  0.00    -0.225 NA
HETATM   10  C   UNL     1      41.445 -15.019   0.443  1.00  0.00     0.034 A 
HETATM   11  C   UNL     1      41.171 -13.884  -0.323  1.00  0.00     0.002 A 
HETATM   12  C   UNL     1      41.499 -12.630   0.171  1.00  0.00     0.002 A 
HETATM   13  C   UNL     1      42.099 -12.522   1.426  1.00  0.00     0.034 A 
ENDROOT
BRANCH   3  14
HETATM   14  N   UNL     1      44.478 -13.943   6.127  1.00  0.00    -0.176 NA
HETATM   15  C   UNL     1      44.276 -13.935   7.402  1.00  0.00     0.153 C 
BRANCH  15  16
HETATM   16  C   UNL     1      44.940 -12.908   8.241  1.00  0.00     0.017 A 
HETATM   17  C   UNL     1      46.201 -12.389   7.911  1.00  0.00     0.077 A 
HETATM   18  C   UNL     1      46.765 -11.366   8.668  1.00  0.00     0.039 A 
HETATM   19  C   UNL     1      46.069 -10.850   9.761  1.00  0.00     0.022 A 
HETATM   20  C   UNL     1      44.815 -11.368  10.091  1.00  0.00     0.012 A 
HETATM   21 BR   UNL     1      43.871 -10.656  11.567  1.00  0.00    -0.051 Br
HETATM   22  C   UNL     1      44.242 -12.394   9.337  1.00  0.00     0.034 A 
BRANCH  17  23
HETATM   23  O   UNL     1      46.926 -12.819   6.834  1.00  0.00    -0.360 OA
HETATM   24  H   UNL     1      46.362 -13.460   6.345  1.00  0.00     0.217 HD
ENDBRANCH  17  23
ENDBRANCH  15  16
ENDBRANCH   3  14
BRANCH   2  25
HETATM   25  N   UNL     1      43.864 -16.529   6.973  1.00  0.00    -0.383 N 
HETATM   26  H   UNL     1      43.552 -17.459   7.266  1.00  0.00     0.157 HD
HETATM   27  H   UNL     1      43.880 -15.862   7.744  1.00  0.00     0.157 HD
ENDBRANCH   2  25
BRANCH   1  28
HETATM   28  C   UNL     1      42.956 -18.263   4.618  1.00  0.00     0.258 C 
HETATM   29  N   UNL     1      43.244 -18.814   3.386  1.00  0.00    -0.352 N 
HETATM   30  H   UNL     1      43.478 -18.170   2.641  1.00  0.00     0.163 HD
HETATM   31  O   UNL     1      42.788 -18.928   5.637  1.00  0.00    -0.267 OA
BRANCH  29  32
HETATM   32  C   UNL     1      43.731 -20.183   3.284  1.00  0.00     0.080 C 
HETATM   33  C   UNL     1      45.172 -20.268   3.801  1.00  0.00     0.032 C 
BRANCH  32  34
HETATM   34  C   UNL     1      43.676 -20.681   1.832  1.00  0.00     0.020 C 
HETATM   35  C   UNL     1      44.264 -22.073   1.662  1.00  0.00     0.007 C 
ENDBRANCH  32  34
ENDBRANCH  29  32
ENDBRANCH   1  28
TORSDOF 7
ENDMDL
MODEL 6
REMARK VINA RESULT:      -8.2      2.383      3.045
REMARK  7 active torsions:
REMARK  status: ('A' for Active; 'I' for Inactive)
REMARK    1  A    between atoms: C_2  and  C_3 
REMARK    2  A    between atoms: C_3  and  N_4 
REMARK       I    between atoms: N_4  and  C_5 
REMARK    3  A    between atoms: C_5  and  C_6 
REMARK    4  A    between atoms: C_7  and  N_8 
REMARK    5  A    between atoms: N_9  and  N_10 
REMARK    6  A    between atoms: C_11  and  C_12 
REMARK    7  A    between atoms: C_13  and  O_14 
ROOT
HETATM    1  C   UNL     1      43.353 -16.000   5.348  1.00  0.00     0.110 C 
HETATM    2  C   UNL     1      42.508 -15.207   4.592  1.00  0.00     0.143 C 
HETATM    3  N   UNL     1      42.355 -15.784   3.336  1.00  0.00    -0.197 N 
HETATM    4  C   UNL     1      42.884 -17.066   3.391  1.00  0.00     0.183 A 
HETATM    5  C   UNL     1      43.555 -17.186   4.606  1.00  0.00     0.125 A 
HETATM    6  N   UNL     1      44.254 -18.306   4.925  1.00  0.00    -0.242 NA
HETATM    7  C   UNL     1      44.173 -19.297   4.021  1.00  0.00     0.086 A 
HETATM    8  C   UNL     1      43.460 -19.165   2.800  1.00  0.00     0.088 A 
HETATM    9  N   UNL     1      42.821 -18.037   2.448  1.00  0.00    -0.225 NA
HETATM   10  C   UNL     1      44.808 -20.501   4.299  1.00  0.00     0.034 A 
HETATM   11  C   UNL     1      44.751 -21.580   3.415  1.00  0.00     0.002 A 
HETATM   12  C   UNL     1      44.051 -21.452   2.224  1.00  0.00     0.002 A 
HETATM   13  C   UNL     1      43.414 -20.246   1.929  1.00  0.00     0.034 A 
ENDROOT
BRANCH   3  14
HETATM   14  N   UNL     1      41.852 -15.031   2.298  1.00  0.00    -0.176 NA
HETATM   15  C   UNL     1      40.662 -15.284   1.868  1.00  0.00     0.153 C 
BRANCH  15  16
HETATM   16  C   UNL     1      40.178 -14.630   0.628  1.00  0.00     0.017 A 
HETATM   17  C   UNL     1      40.711 -14.949  -0.630  1.00  0.00     0.077 A 
HETATM   18  C   UNL     1      40.182 -14.383  -1.786  1.00  0.00     0.039 A 
HETATM   19  C   UNL     1      39.111 -13.494  -1.694  1.00  0.00     0.022 A 
HETATM   20  C   UNL     1      38.583 -13.174  -0.442  1.00  0.00     0.012 A 
HETATM   21 BR   UNL     1      37.123 -11.979  -0.324  1.00  0.00    -0.051 Br
HETATM   22  C   UNL     1      39.107 -13.738   0.723  1.00  0.00     0.034 A 
BRANCH  17  23
HETATM   23  O   UNL     1      41.736 -15.838  -0.802  1.00  0.00    -0.360 OA
HETATM   24  H   UNL     1      41.527 -16.628  -0.255  1.00  0.00     0.217 HD
ENDBRANCH  17  23
ENDBRANCH  15  16
ENDBRANCH   3  14
BRANCH   2  25
HETATM   25  N   UNL     1      41.966 -13.993   4.885  1.00  0.00    -0.383 N 
HETATM   26  H   UNL     1      42.221 -13.196   4.296  1.00  0.00     0.157 HD
HETATM   27  H   UNL     1      41.836 -13.730   5.862  1.00  0.00     0.157 HD
ENDBRANCH   2  25
BRANCH   1  28
HETATM   28  C   UNL     1      43.911 -15.598   6.622  1.00  0.00     0.258 C 
HETATM   29  N   UNL     1      44.651 -14.434   6.556  1.00  0.00    -0.352 N 
HETATM   30  H   UNL     1      44.737 -13.999   5.646  1.00  0.00     0.163 HD
HETATM   31  O   UNL     1      43.615 -16.155   7.676  1.00  0.00    -0.267 OA
BRANCH  29  32
HETATM   32  C   UNL     1      44.813 -13.593   7.734  1.00  0.00     0.080 C 
HETATM   33  C   UNL     1      43.670 -12.575   7.814  1.00  0.00     0.032 C 
BRANCH  32  34
HETATM   34  C   UNL     1      46.159 -12.854   7.703  1.00  0.00     0.020 C 
HETATM   35  C   UNL     1      46.230 -11.713   8.706  1.00  0.00     0.007 C 
ENDBRANCH  32  34
ENDBRANCH  29  32
ENDBRANCH   1  28
TORSDOF 7
ENDMDL
MODEL 7
REMARK VINA RESULT:      -8.1      3.127      3.848
REMARK  7 active torsions:
REMARK  status: ('A' for Active; 'I' for Inactive)
REMARK    1  A    between atoms: C_2  and  C_3 
REMARK    2  A    between atoms: C_3  and  N_4 
REMARK       I    between atoms: N_4  and  C_5 
REMARK    3  A    between atoms: C_5  and  C_6 
REMARK    4  A    between atoms: C_7  and  N_8 
REMARK    5  A    between atoms: N_9  and  N_10 
REMARK    6  A    between atoms: C_11  and  C_12 
REMARK    7  A    between atoms: C_13  and  O_14 
ROOT
HETATM    1  C   UNL     1      41.062 -15.801   4.054  1.00  0.00     0.110 C 
HETATM    2  C   UNL     1      40.452 -15.433   2.867  1.00  0.00     0.143 C 
HETATM    3  N   UNL     1      41.048 -16.132   1.822  1.00  0.00    -0.197 N 
HETATM    4  C   UNL     1      41.841 -17.128   2.375  1.00  0.00     0.183 A 
HETATM    5  C   UNL     1      41.905 -16.893   3.746  1.00  0.00     0.125 A 
HETATM    6  N   UNL     1      42.678 -17.655   4.563  1.00  0.00    -0.242 NA
HETATM    7  C   UNL     1      43.297 -18.682   3.956  1.00  0.00     0.086 A 
HETATM    8  C   UNL     1      43.197 -18.921   2.560  1.00  0.00     0.088 A 
HETATM    9  N   UNL     1      42.487 -18.133   1.736  1.00  0.00    -0.225 NA
HETATM   10  C   UNL     1      44.059 -19.547   4.731  1.00  0.00     0.034 A 
HETATM   11  C   UNL     1      44.715 -20.645   4.172  1.00  0.00     0.002 A 
HETATM   12  C   UNL     1      44.613 -20.881   2.808  1.00  0.00     0.002 A 
HETATM   13  C   UNL     1      43.857 -20.016   2.017  1.00  0.00     0.034 A 
ENDROOT
BRANCH   3  14
HETATM   14  N   UNL     1      40.866 -15.702   0.526  1.00  0.00    -0.176 NA
HETATM   15  C   UNL     1      41.784 -14.979  -0.021  1.00  0.00     0.153 C 
BRANCH  15  16
HETATM   16  C   UNL     1      41.525 -14.337  -1.333  1.00  0.00     0.017 A 
HETATM   17  C   UNL     1      40.748 -14.964  -2.319  1.00  0.00     0.077 A 
HETATM   18  C   UNL     1      40.450 -14.305  -3.509  1.00  0.00     0.039 A 
HETATM   19  C   UNL     1      40.924 -13.010  -3.720  1.00  0.00     0.022 A 
HETATM   20  C   UNL     1      41.698 -12.388  -2.740  1.00  0.00     0.012 A 
HETATM   21 BR   UNL     1      42.326 -10.627  -3.026  1.00  0.00    -0.051 Br
HETATM   22  C   UNL     1      42.002 -13.041  -1.543  1.00  0.00     0.034 A 
BRANCH  17  23
HETATM   23  O   UNL     1      40.221 -16.217  -2.169  1.00  0.00    -0.360 OA
HETATM   24  H   UNL     1      40.669 -16.627  -1.395  1.00  0.00     0.217 HD
ENDBRANCH  17  23
ENDBRANCH  15  16
ENDBRANCH   3  14
BRANCH   2  25
HETATM   25  N   UNL     1      39.513 -14.476   2.636  1.00  0.00    -0.383 N 
HETATM   26  H   UNL     1      38.535 -14.701   2.835  1.00  0.00     0.157 HD
HETATM   27  H   UNL     1      39.616 -13.866   1.825  1.00  0.00     0.157 HD
ENDBRANCH   2  25
BRANCH   1  28
HETATM   28  C   UNL     1      40.853 -15.117   5.313  1.00  0.00     0.258 C 
HETATM   29  N   UNL     1      41.164 -13.773   5.267  1.00  0.00    -0.352 N 
HETATM   30  H   UNL     1      41.510 -13.415   4.387  1.00  0.00     0.163 HD
HETATM   31  O   UNL     1      40.301 -15.654   6.270  1.00  0.00    -0.267 OA
BRANCH  29  32
HETATM   32  C   UNL     1      40.533 -12.836   6.187  1.00  0.00     0.080 C 
HETATM   33  C   UNL     1      39.072 -12.606   5.781  1.00  0.00     0.032 C 
BRANCH  32  34
HETATM   34  C   UNL     1      41.279 -11.494   6.205  1.00  0.00     0.020 C 
HETATM   35  C   UNL     1      41.335 -10.830   4.838  1.00  0.00     0.007 C 
ENDBRANCH  32  34
ENDBRANCH  29  32
ENDBRANCH   1  28
TORSDOF 7
ENDMDL
MODEL 8
REMARK VINA RESULT:      -7.9      3.701      7.124
REMARK  7 active torsions:
REMARK  status: ('A' for Active; 'I' for Inactive)
REMARK    1  A    between atoms: C_2  and  C_3 
REMARK    2  A    between atoms: C_3  and  N_4 
REMARK       I    between atoms: N_4  and  C_5 
REMARK    3  A    between atoms: C_5  and  C_6 
REMARK    4  A    between atoms: C_7  and  N_8 
REMARK    5  A    between atoms: N_9  and  N_10 
REMARK    6  A    between atoms: C_11  and  C_12 
REMARK    7  A    between atoms: C_13  and  O_14 
ROOT
HETATM    1  C   UNL     1      40.429 -13.597   3.948  1.00  0.00     0.110 C 
HETATM    2  C   UNL     1      41.312 -14.489   4.531  1.00  0.00     0.143 C 
HETATM    3  N   UNL     1      41.648 -15.464   3.596  1.00  0.00    -0.197 N 
HETATM    4  C   UNL     1      41.191 -15.037   2.356  1.00  0.00     0.183 A 
HETATM    5  C   UNL     1      40.387 -13.920   2.572  1.00  0.00     0.125 A 
HETATM    6  N   UNL     1      39.721 -13.316   1.554  1.00  0.00    -0.242 NA
HETATM    7  C   UNL     1      39.968 -13.829   0.337  1.00  0.00     0.086 A 
HETATM    8  C   UNL     1      40.813 -14.951   0.135  1.00  0.00     0.088 A 
HETATM    9  N   UNL     1      41.423 -15.595   1.143  1.00  0.00    -0.225 NA
HETATM   10  C   UNL     1      39.374 -13.229  -0.766  1.00  0.00     0.034 A 
HETATM   11  C   UNL     1      39.599 -13.696  -2.063  1.00  0.00     0.002 A 
HETATM   12  C   UNL     1      40.429 -14.790  -2.261  1.00  0.00     0.002 A 
HETATM   13  C   UNL     1      41.026 -15.407  -1.161  1.00  0.00     0.034 A 
ENDROOT
BRANCH   3  14
HETATM   14  N   UNL     1      42.227 -16.640   4.018  1.00  0.00    -0.176 NA
HETATM   15  C   UNL     1      43.383 -16.966   3.544  1.00  0.00     0.153 C 
BRANCH  15  16
HETATM   16  C   UNL     1      43.932 -18.315   3.823  1.00  0.00     0.017 A 
HETATM   17  C   UNL     1      44.420 -18.664   5.092  1.00  0.00     0.077 A 
HETATM   18  C   UNL     1      44.853 -19.961   5.351  1.00  0.00     0.039 A 
HETATM   19  C   UNL     1      44.799 -20.923   4.341  1.00  0.00     0.022 A 
HETATM   20  C   UNL     1      44.316 -20.575   3.079  1.00  0.00     0.012 A 
HETATM   21 BR   UNL     1      44.233 -21.886   1.719  1.00  0.00    -0.051 Br
HETATM   22  C   UNL     1      43.879 -19.276   2.811  1.00  0.00     0.034 A 
BRANCH  17  23
HETATM   23  O   UNL     1      44.471 -17.786   6.140  1.00  0.00    -0.360 OA
HETATM   24  H   UNL     1      45.316 -17.289   6.057  1.00  0.00     0.217 HD
ENDBRANCH  17  23
ENDBRANCH  15  16
ENDBRANCH   3  14
BRANCH   2  25
HETATM   25  N   UNL     1      41.743 -14.566   5.819  1.00  0.00    -0.383 N 
HETATM   26  H   UNL     1      41.869 -15.494   6.233  1.00  0.00     0.157 HD
HETATM   27  H   UNL     1      41.409 -13.879   6.496  1.00  0.00     0.157 HD
ENDBRANCH   2  25
BRANCH   1  28
HETATM   28  C   UNL     1      39.700 -12.587   4.686  1.00  0.00     0.258 C 
HETATM   29  N   UNL     1      39.584 -11.389   4.009  1.00  0.00    -0.352 N 
HETATM   30  H   UNL     1      40.019 -11.335   3.098  1.00  0.00     0.163 HD
HETATM   31  O   UNL     1      39.111 -12.835   5.734  1.00  0.00    -0.267 OA
BRANCH  29  32
HETATM   32  C   UNL     1      38.479 -10.484   4.293  1.00  0.00     0.080 C 
HETATM   33  C   UNL     1      37.675 -10.218   3.014  1.00  0.00     0.032 C 
BRANCH  32  34
HETATM   34  C   UNL     1      38.989  -9.154   4.866  1.00  0.00     0.020 C 
HETATM   35  C   UNL     1      39.104  -9.168   6.382  1.00  0.00     0.007 C 
ENDBRANCH  32  34
ENDBRANCH  29  32
ENDBRANCH   1  28
TORSDOF 7
ENDMDL
MODEL 9
REMARK VINA RESULT:      -7.9      2.433      2.873
REMARK  7 active torsions:
REMARK  status: ('A' for Active; 'I' for Inactive)
REMARK    1  A    between atoms: C_2  and  C_3 
REMARK    2  A    between atoms: C_3  and  N_4 
REMARK       I    between atoms: N_4  and  C_5 
REMARK    3  A    between atoms: C_5  and  C_6 
REMARK    4  A    between atoms: C_7  and  N_8 
REMARK    5  A    between atoms: N_9  and  N_10 
REMARK    6  A    between atoms: C_11  and  C_12 
REMARK    7  A    between atoms: C_13  and  O_14 
ROOT
HETATM    1  C   UNL     1      40.692 -14.055   4.808  1.00  0.00     0.110 C 
HETATM    2  C   UNL     1      40.188 -14.161   3.524  1.00  0.00     0.143 C 
HETATM    3  N   UNL     1      40.974 -15.057   2.806  1.00  0.00    -0.197 N 
HETATM    4  C   UNL     1      41.802 -15.711   3.708  1.00  0.00     0.183 A 
HETATM    5  C   UNL     1      41.679 -15.058   4.932  1.00  0.00     0.125 A 
HETATM    6  N   UNL     1      42.431 -15.414   6.006  1.00  0.00    -0.242 NA
HETATM    7  C   UNL     1      43.225 -16.480   5.810  1.00  0.00     0.086 A 
HETATM    8  C   UNL     1      43.315 -17.149   4.561  1.00  0.00     0.088 A 
HETATM    9  N   UNL     1      42.624 -16.763   3.476  1.00  0.00    -0.225 NA
HETATM   10  C   UNL     1      43.981 -16.948   6.877  1.00  0.00     0.034 A 
HETATM   11  C   UNL     1      44.814 -18.061   6.751  1.00  0.00     0.002 A 
HETATM   12  C   UNL     1      44.899 -18.718   5.532  1.00  0.00     0.002 A 
HETATM   13  C   UNL     1      44.150 -18.255   4.449  1.00  0.00     0.034 A 
ENDROOT
BRANCH   3  14
HETATM   14  N   UNL     1      40.898 -15.077   1.431  1.00  0.00    -0.176 NA
HETATM   15  C   UNL     1      41.840 -14.517   0.750  1.00  0.00     0.153 C 
BRANCH  15  16
HETATM   16  C   UNL     1      41.683 -14.346  -0.715  1.00  0.00     0.017 A 
HETATM   17  C   UNL     1      41.134 -15.357  -1.519  1.00  0.00     0.077 A 
HETATM   18  C   UNL     1      40.920 -15.141  -2.877  1.00  0.00     0.039 A 
HETATM   19  C   UNL     1      41.248 -13.909  -3.442  1.00  0.00     0.022 A 
HETATM   20  C   UNL     1      41.796 -12.905  -2.643  1.00  0.00     0.012 A 
HETATM   21 BR   UNL     1      42.228 -11.232  -3.412  1.00  0.00    -0.051 Br
HETATM   22  C   UNL     1      42.014 -13.112  -1.279  1.00  0.00     0.034 A 
BRANCH  17  23
HETATM   23  O   UNL     1      40.756 -16.577  -1.030  1.00  0.00    -0.360 OA
HETATM   24  H   UNL     1      40.855 -16.538  -0.052  1.00  0.00     0.217 HD
ENDBRANCH  17  23
ENDBRANCH  15  16
ENDBRANCH   3  14
BRANCH   2  25
HETATM   25  N   UNL     1      39.183 -13.464   2.927  1.00  0.00    -0.383 N 
HETATM   26  H   UNL     1      39.132 -13.470   1.904  1.00  0.00     0.157 HD
HETATM   27  H   UNL     1      38.892 -12.572   3.326  1.00  0.00     0.157 HD
ENDBRANCH   2  25
BRANCH   1  28
HETATM   28  C   UNL     1      40.263 -13.052   5.762  1.00  0.00     0.258 C 
HETATM   29  N   UNL     1      41.310 -12.404   6.385  1.00  0.00    -0.352 N 
HETATM   30  H   UNL     1      42.245 -12.696   6.130  1.00  0.00     0.163 HD
HETATM   31  O   UNL     1      39.089 -12.711   5.875  1.00  0.00    -0.267 OA
BRANCH  29  32
HETATM   32  C   UNL     1      41.135 -11.060   6.918  1.00  0.00     0.080 C 
HETATM   33  C   UNL     1      41.313 -10.024   5.801  1.00  0.00     0.032 C 
BRANCH  32  34
HETATM   34  C   UNL     1      42.141 -10.778   8.044  1.00  0.00     0.020 C 
HETATM   35  C   UNL     1      41.673  -9.686   8.994  1.00  0.00     0.007 C 
ENDBRANCH  32  34
ENDBRANCH  29  32
ENDBRANCH   1  28
TORSDOF 7
ENDMDL
MODEL 10
REMARK VINA RESULT:      -7.8      3.827      7.598
REMARK  7 active torsions:
REMARK  status: ('A' for Active; 'I' for Inactive)
REMARK    1  A    between atoms: C_2  and  C_3 
REMARK    2  A    between atoms: C_3  and  N_4 
REMARK       I    between atoms: N_4  and  C_5 
REMARK    3  A    between atoms: C_5  and  C_6 
REMARK    4  A    between atoms: C_7  and  N_8 
REMARK    5  A    between atoms: N_9  and  N_10 
REMARK    6  A    between atoms: C_11  and  C_12 
REMARK    7  A    between atoms: C_13  and  O_14 
ROOT
HETATM    1  C   UNL     1      41.582 -12.663   2.091  1.00  0.00     0.110 C 
HETATM    2  C   UNL     1      42.330 -13.566   2.825  1.00  0.00     0.143 C 
HETATM    3  N   UNL     1      42.276 -14.808   2.199  1.00  0.00    -0.197 N 
HETATM    4  C   UNL     1      41.721 -14.624   0.941  1.00  0.00     0.183 A 
HETATM    5  C   UNL     1      41.235 -13.319   0.888  1.00  0.00     0.125 A 
HETATM    6  N   UNL     1      40.557 -12.856  -0.194  1.00  0.00    -0.242 NA
HETATM    7  C   UNL     1      40.471 -13.721  -1.218  1.00  0.00     0.086 A 
HETATM    8  C   UNL     1      40.998 -15.038  -1.155  1.00  0.00     0.088 A 
HETATM    9  N   UNL     1      41.612 -15.526  -0.065  1.00  0.00    -0.225 NA
HETATM   10  C   UNL     1      39.847 -13.304  -2.387  1.00  0.00     0.034 A 
HETATM   11  C   UNL     1      39.737 -14.143  -3.497  1.00  0.00     0.002 A 
HETATM   12  C   UNL     1      40.256 -15.428  -3.437  1.00  0.00     0.002 A 
HETATM   13  C   UNL     1      40.879 -15.863  -2.267  1.00  0.00     0.034 A 
ENDROOT
BRANCH   3  14
HETATM   14  N   UNL     1      42.641 -15.937   2.897  1.00  0.00    -0.176 NA
HETATM   15  C   UNL     1      43.658 -16.618   2.486  1.00  0.00     0.153 C 
BRANCH  15  16
HETATM   16  C   UNL     1      43.947 -17.940   3.092  1.00  0.00     0.017 A 
HETATM   17  C   UNL     1      44.086 -18.100   4.480  1.00  0.00     0.077 A 
HETATM   18  C   UNL     1      44.273 -19.364   5.030  1.00  0.00     0.039 A 
HETATM   19  C   UNL     1      44.321 -20.481   4.197  1.00  0.00     0.022 A 
HETATM   20  C   UNL     1      44.186 -20.322   2.817  1.00  0.00     0.012 A 
HETATM   21 BR   UNL     1      44.238 -21.842   1.693  1.00  0.00    -0.051 Br
HETATM   22  C   UNL     1      43.996 -19.058   2.256  1.00  0.00     0.034 A 
BRANCH  17  23
HETATM   23  O   UNL     1      44.015 -17.056   5.362  1.00  0.00    -0.360 OA
HETATM   24  H   UNL     1      44.830 -16.519   5.237  1.00  0.00     0.217 HD
ENDBRANCH  17  23
ENDBRANCH  15  16
ENDBRANCH   3  14
BRANCH   2  25
HETATM   25  N   UNL     1      42.947 -13.406   4.028  1.00  0.00    -0.383 N 
HETATM   26  H   UNL     1      43.969 -13.455   4.057  1.00  0.00     0.157 HD
HETATM   27  H   UNL     1      42.513 -13.796   4.864  1.00  0.00     0.157 HD
ENDBRANCH   2  25
BRANCH   1  28
HETATM   28  C   UNL     1      41.234 -11.337   2.558  1.00  0.00     0.258 C 
HETATM   29  N   UNL     1      41.372 -10.360   1.593  1.00  0.00    -0.352 N 
HETATM   30  H   UNL     1      41.707 -10.659   0.686  1.00  0.00     0.163 HD
HETATM   31  O   UNL     1      40.715 -11.141   3.653  1.00  0.00    -0.267 OA
BRANCH  29  32
HETATM   32  C   UNL     1      40.587  -9.135   1.662  1.00  0.00     0.080 C 
HETATM   33  C   UNL     1      39.200  -9.364   1.050  1.00  0.00     0.032 C 
BRANCH  32  34
HETATM   34  C   UNL     1      41.291  -7.986   0.926  1.00  0.00     0.020 C 
HETATM   35  C   UNL     1      42.581  -8.422   0.247  1.00  0.00     0.007 C 
ENDBRANCH  32  34
ENDBRANCH  29  32
ENDBRANCH   1  28
TORSDOF 7
ENDMDL
