MODEL 1
REMARK VINA RESULT:      -8.9      0.000      0.000
REMARK  6 active torsions:
REMARK  status: ('A' for Active; 'I' for Inactive)
REMARK    1  A    between atoms: C_2  and  N_3 
REMARK    2  A    between atoms: C_2  and  C_16 
REMARK    3  A    between atoms: N_3  and  C_5 
REMARK    4  A    between atoms: C_5  and  C_6 
REMARK       I    between atoms: C_16  and  N_17 
REMARK    5  A    between atoms: N_17  and  C_18 
REMARK    6  A    between atoms: C_19  and  C_20 
ROOT
HETATM    1  C   UNL     1      43.470 -18.265   5.684  1.00  0.00     0.253 C 
HETATM    2  N   UNL     1      44.486 -18.815   4.940  1.00  0.00    -0.325 N 
HETATM    3  O   UNL     1      42.273 -18.550   5.600  1.00  0.00    -0.271 OA
HETATM    4  H   UNL     1      45.325 -18.270   4.775  1.00  0.00     0.169 HD
ENDROOT
BRANCH   1   5
HETATM    5  C   UNL     1      43.857 -17.095   6.611  1.00  0.00     0.275 C 
HETATM    6  C   UNL     1      43.264 -17.157   8.009  1.00  0.00     0.050 C 
BRANCH   5   7
HETATM    7  N   UNL     1      43.537 -15.753   5.895  1.00  0.00    -0.059 N 
HETATM    8  H   UNL     1      43.757 -15.980   4.909  1.00  0.00     0.280 HD
HETATM    9  C   UNL     1      44.475 -14.656   6.299  1.00  0.00     0.271 C 
BRANCH   7  10
HETATM   10  C   UNL     1      42.101 -15.275   5.859  1.00  0.00     0.274 C 
BRANCH  10  11
HETATM   11  C   UNL     1      41.616 -14.683   4.561  1.00  0.00    -0.030 A 
HETATM   12  C   UNL     1      42.467 -13.904   3.759  1.00  0.00     0.048 A 
HETATM   13  C   UNL     1      41.966 -13.377   2.586  1.00  0.00     0.105 A 
HETATM   14  C   UNL     1      40.661 -13.565   2.206  1.00  0.00     0.105 A 
HETATM   15  O   UNL     1      42.667 -12.634   1.690  1.00  0.00    -0.323 OA
HETATM   16  O   UNL     1      40.374 -12.962   1.023  1.00  0.00    -0.323 OA
HETATM   17  C   UNL     1      39.783 -14.287   2.979  1.00  0.00     0.040 A 
HETATM   18  C   UNL     1      41.652 -12.376   0.694  1.00  0.00     0.352 A 
HETATM   19  C   UNL     1      40.266 -14.847   4.168  1.00  0.00     0.012 A 
ENDBRANCH  10  11
ENDBRANCH   7  10
ENDBRANCH   5   7
ENDBRANCH   1   5
BRANCH   2  20
HETATM   20  C   UNL     1      44.409 -20.025   4.200  1.00  0.00     0.045 A 
HETATM   21  C   UNL     1      43.958 -19.980   2.858  1.00  0.00     0.001 A 
HETATM   22  C   UNL     1      43.973 -21.166   2.101  1.00  0.00     0.014 A 
HETATM   23  C   UNL     1      44.413 -22.369   2.654  1.00  0.00     0.001 A 
HETATM   24  C   UNL     1      44.841 -22.406   3.976  1.00  0.00     0.002 A 
HETATM   25  C   UNL     1      44.839 -21.242   4.746  1.00  0.00     0.030 A 
BRANCH  21  26
HETATM   26  C   UNL     1      43.409 -18.759   2.248  1.00  0.00    -0.024 A 
HETATM   27  C   UNL     1      44.247 -17.711   1.840  1.00  0.00     0.012 A 
HETATM   28  C   UNL     1      43.713 -16.561   1.252  1.00  0.00     0.001 A 
HETATM   29  C   UNL     1      42.337 -16.445   1.066  1.00  0.00     0.000 A 
HETATM   30  C   UNL     1      41.491 -17.478   1.462  1.00  0.00     0.001 A 
HETATM   31  C   UNL     1      42.024 -18.627   2.048  1.00  0.00     0.012 A 
ENDBRANCH  21  26
ENDBRANCH   2  20
TORSDOF 6
ENDMDL
MODEL 2
REMARK VINA RESULT:      -8.8      1.735      2.049
REMARK  6 active torsions:
REMARK  status: ('A' for Active; 'I' for Inactive)
REMARK    1  A    between atoms: C_2  and  N_3 
REMARK    2  A    between atoms: C_2  and  C_16 
REMARK    3  A    between atoms: N_3  and  C_5 
REMARK    4  A    between atoms: C_5  and  C_6 
REMARK       I    between atoms: C_16  and  N_17 
REMARK    5  A    between atoms: N_17  and  C_18 
REMARK    6  A    between atoms: C_19  and  C_20 
ROOT
HETATM    1  C   UNL     1      43.624 -18.348   5.881  1.00  0.00     0.253 C 
HETATM    2  N   UNL     1      44.530 -18.767   4.937  1.00  0.00    -0.325 N 
HETATM    3  O   UNL     1      42.430 -18.652   5.926  1.00  0.00    -0.271 OA
HETATM    4  H   UNL     1      45.333 -18.182   4.733  1.00  0.00     0.169 HD
ENDROOT
BRANCH   1   5
HETATM    5  C   UNL     1      44.127 -17.299   6.894  1.00  0.00     0.275 C 
HETATM    6  C   UNL     1      43.285 -17.163   8.153  1.00  0.00     0.050 C 
BRANCH   5   7
HETATM    7  N   UNL     1      44.319 -15.940   6.165  1.00  0.00    -0.059 N 
HETATM    8  H   UNL     1      45.268 -16.046   5.764  1.00  0.00     0.280 HD
HETATM    9  C   UNL     1      44.385 -14.788   7.121  1.00  0.00     0.271 C 
BRANCH   7  10
HETATM   10  C   UNL     1      43.441 -15.627   4.972  1.00  0.00     0.274 C 
BRANCH  10  11
HETATM   11  C   UNL     1      42.200 -14.815   5.238  1.00  0.00    -0.030 A 
HETATM   12  C   UNL     1      42.206 -13.417   5.100  1.00  0.00     0.048 A 
HETATM   13  C   UNL     1      41.043 -12.723   5.368  1.00  0.00     0.105 A 
HETATM   14  C   UNL     1      39.904 -13.356   5.795  1.00  0.00     0.105 A 
HETATM   15  O   UNL     1      40.879 -11.380   5.251  1.00  0.00    -0.323 OA
HETATM   16  O   UNL     1      38.877 -12.492   6.003  1.00  0.00    -0.323 OA
HETATM   17  C   UNL     1      39.863 -14.718   5.982  1.00  0.00     0.040 A 
HETATM   18  C   UNL     1      39.498 -11.236   5.651  1.00  0.00     0.352 A 
HETATM   19  C   UNL     1      41.023 -15.451   5.704  1.00  0.00     0.012 A 
ENDBRANCH  10  11
ENDBRANCH   7  10
ENDBRANCH   5   7
ENDBRANCH   1   5
BRANCH   2  20
HETATM   20  C   UNL     1      44.361 -19.870   4.059  1.00  0.00     0.045 A 
HETATM   21  C   UNL     1      43.807 -19.646   2.775  1.00  0.00     0.001 A 
HETATM   22  C   UNL     1      43.728 -20.726   1.876  1.00  0.00     0.014 A 
HETATM   23  C   UNL     1      44.177 -21.997   2.235  1.00  0.00     0.001 A 
HETATM   24  C   UNL     1      44.707 -22.210   3.502  1.00  0.00     0.002 A 
HETATM   25  C   UNL     1      44.799 -21.155   4.410  1.00  0.00     0.030 A 
BRANCH  21  26
HETATM   26  C   UNL     1      43.245 -18.347   2.371  1.00  0.00    -0.024 A 
HETATM   27  C   UNL     1      44.045 -17.368   1.764  1.00  0.00     0.012 A 
HETATM   28  C   UNL     1      43.497 -16.143   1.376  1.00  0.00     0.001 A 
HETATM   29  C   UNL     1      42.144 -15.882   1.590  1.00  0.00     0.000 A 
HETATM   30  C   UNL     1      41.335 -16.846   2.188  1.00  0.00     0.001 A 
HETATM   31  C   UNL     1      41.882 -18.070   2.575  1.00  0.00     0.012 A 
ENDBRANCH  21  26
ENDBRANCH   2  20
TORSDOF 6
ENDMDL
MODEL 3
REMARK VINA RESULT:      -8.4      2.869      4.494
REMARK  6 active torsions:
REMARK  status: ('A' for Active; 'I' for Inactive)
REMARK    1  A    between atoms: C_2  and  N_3 
REMARK    2  A    between atoms: C_2  and  C_16 
REMARK    3  A    between atoms: N_3  and  C_5 
REMARK    4  A    between atoms: C_5  and  C_6 
REMARK       I    between atoms: C_16  and  N_17 
REMARK    5  A    between atoms: N_17  and  C_18 
REMARK    6  A    between atoms: C_19  and  C_20 
ROOT
HETATM    1  C   UNL     1      43.483 -18.192   5.936  1.00  0.00     0.253 C 
HETATM    2  N   UNL     1      44.429 -18.616   5.034  1.00  0.00    -0.325 N 
HETATM    3  O   UNL     1      42.289 -18.500   5.933  1.00  0.00    -0.271 OA
HETATM    4  H   UNL     1      45.239 -18.030   4.859  1.00  0.00     0.169 HD
ENDROOT
BRANCH   1   5
HETATM    5  C   UNL     1      43.941 -17.135   6.961  1.00  0.00     0.275 C 
HETATM    6  C   UNL     1      43.389 -17.318   8.366  1.00  0.00     0.050 C 
BRANCH   5   7
HETATM    7  N   UNL     1      43.646 -15.718   6.394  1.00  0.00    -0.059 N 
HETATM    8  H   UNL     1      43.212 -15.249   7.210  1.00  0.00     0.280 HD
HETATM    9  C   UNL     1      42.607 -15.743   5.315  1.00  0.00     0.271 C 
BRANCH   7  10
HETATM   10  C   UNL     1      44.813 -14.826   6.026  1.00  0.00     0.274 C 
BRANCH  10  11
HETATM   11  C   UNL     1      45.162 -13.730   6.999  1.00  0.00    -0.030 A 
HETATM   12  C   UNL     1      44.199 -13.214   7.882  1.00  0.00     0.048 A 
HETATM   13  C   UNL     1      44.571 -12.201   8.744  1.00  0.00     0.105 A 
HETATM   14  C   UNL     1      45.835 -11.669   8.734  1.00  0.00     0.105 A 
HETATM   15  O   UNL     1      43.770 -11.621   9.675  1.00  0.00    -0.323 OA
HETATM   16  O   UNL     1      45.991 -10.685   9.657  1.00  0.00    -0.323 OA
HETATM   17  C   UNL     1      46.798 -12.117   7.859  1.00  0.00     0.040 A 
HETATM   18  C   UNL     1      44.678 -10.661  10.259  1.00  0.00     0.352 A 
HETATM   19  C   UNL     1      46.455 -13.153   6.983  1.00  0.00     0.012 A 
ENDBRANCH  10  11
ENDBRANCH   7  10
ENDBRANCH   5   7
ENDBRANCH   1   5
BRANCH   2  20
HETATM   20  C   UNL     1      44.300 -19.726   4.158  1.00  0.00     0.045 A 
HETATM   21  C   UNL     1      43.777 -19.518   2.858  1.00  0.00     0.001 A 
HETATM   22  C   UNL     1      43.739 -20.603   1.964  1.00  0.00     0.014 A 
HETATM   23  C   UNL     1      44.196 -21.865   2.342  1.00  0.00     0.001 A 
HETATM   24  C   UNL     1      44.694 -22.064   3.624  1.00  0.00     0.002 A 
HETATM   25  C   UNL     1      44.747 -21.003   4.529  1.00  0.00     0.030 A 
BRANCH  21  26
HETATM   26  C   UNL     1      43.209 -18.229   2.432  1.00  0.00    -0.024 A 
HETATM   27  C   UNL     1      44.033 -17.175   2.013  1.00  0.00     0.012 A 
HETATM   28  C   UNL     1      43.479 -15.960   1.601  1.00  0.00     0.001 A 
HETATM   29  C   UNL     1      42.096 -15.785   1.601  1.00  0.00     0.000 A 
HETATM   30  C   UNL     1      41.263 -16.824   2.010  1.00  0.00     0.001 A 
HETATM   31  C   UNL     1      41.816 -18.038   2.421  1.00  0.00     0.012 A 
ENDBRANCH  21  26
ENDBRANCH   2  20
TORSDOF 6
ENDMDL
MODEL 4
REMARK VINA RESULT:      -8.2      1.791      6.511
REMARK  6 active torsions:
REMARK  status: ('A' for Active; 'I' for Inactive)
REMARK    1  A    between atoms: C_2  and  N_3 
REMARK    2  A    between atoms: C_2  and  C_16 
REMARK    3  A    between atoms: N_3  and  C_5 
REMARK    4  A    between atoms: C_5  and  C_6 
REMARK       I    between atoms: C_16  and  N_17 
REMARK    5  A    between atoms: N_17  and  C_18 
REMARK    6  A    between atoms: C_19  and  C_20 
ROOT
HETATM    1  C   UNL     1      42.932 -14.105   3.944  1.00  0.00     0.253 C 
HETATM    2  N   UNL     1      41.836 -14.543   3.241  1.00  0.00    -0.325 N 
HETATM    3  O   UNL     1      43.975 -13.660   3.459  1.00  0.00    -0.271 OA
HETATM    4  H   UNL     1      41.229 -15.239   3.660  1.00  0.00     0.169 HD
ENDROOT
BRANCH   1   5
HETATM    5  C   UNL     1      42.893 -14.315   5.472  1.00  0.00     0.275 C 
HETATM    6  C   UNL     1      44.021 -13.648   6.243  1.00  0.00     0.050 C 
BRANCH   5   7
HETATM    7  N   UNL     1      42.795 -15.837   5.772  1.00  0.00    -0.059 N 
HETATM    8  H   UNL     1      42.881 -16.247   4.825  1.00  0.00     0.280 HD
HETATM    9  C   UNL     1      41.443 -16.228   6.286  1.00  0.00     0.271 C 
BRANCH   7  10
HETATM   10  C   UNL     1      43.906 -16.492   6.566  1.00  0.00     0.274 C 
BRANCH  10  11
HETATM   11  C   UNL     1      44.036 -17.988   6.442  1.00  0.00    -0.030 A 
HETATM   12  C   UNL     1      44.591 -18.573   5.292  1.00  0.00     0.048 A 
HETATM   13  C   UNL     1      44.674 -19.950   5.229  1.00  0.00     0.105 A 
HETATM   14  C   UNL     1      44.202 -20.752   6.236  1.00  0.00     0.105 A 
HETATM   15  O   UNL     1      45.211 -20.663   4.204  1.00  0.00    -0.323 OA
HETATM   16  O   UNL     1      44.379 -22.073   5.974  1.00  0.00    -0.323 OA
HETATM   17  C   UNL     1      43.616 -20.223   7.363  1.00  0.00     0.040 A 
HETATM   18  C   UNL     1      45.027 -22.014   4.685  1.00  0.00     0.352 A 
HETATM   19  C   UNL     1      43.530 -18.830   7.462  1.00  0.00     0.012 A 
ENDBRANCH  10  11
ENDBRANCH   7  10
ENDBRANCH   5   7
ENDBRANCH   1   5
BRANCH   2  20
HETATM   20  C   UNL     1      41.559 -14.258   1.877  1.00  0.00     0.045 A 
HETATM   21  C   UNL     1      41.709 -15.287   0.917  1.00  0.00     0.001 A 
HETATM   22  C   UNL     1      41.343 -15.026  -0.417  1.00  0.00     0.014 A 
HETATM   23  C   UNL     1      40.849 -13.778  -0.797  1.00  0.00     0.001 A 
HETATM   24  C   UNL     1      40.718 -12.769   0.150  1.00  0.00     0.002 A 
HETATM   25  C   UNL     1      41.070 -13.005   1.480  1.00  0.00     0.030 A 
BRANCH  21  26
HETATM   26  C   UNL     1      42.298 -16.595   1.245  1.00  0.00    -0.024 A 
HETATM   27  C   UNL     1      41.492 -17.725   1.448  1.00  0.00     0.012 A 
HETATM   28  C   UNL     1      42.065 -18.963   1.749  1.00  0.00     0.001 A 
HETATM   29  C   UNL     1      43.450 -19.088   1.849  1.00  0.00     0.000 A 
HETATM   30  C   UNL     1      44.265 -17.976   1.646  1.00  0.00     0.001 A 
HETATM   31  C   UNL     1      43.693 -16.740   1.345  1.00  0.00     0.012 A 
ENDBRANCH  21  26
ENDBRANCH   2  20
TORSDOF 6
ENDMDL
MODEL 5
REMARK VINA RESULT:      -8.2      2.554      4.347
REMARK  6 active torsions:
REMARK  status: ('A' for Active; 'I' for Inactive)
REMARK    1  A    between atoms: C_2  and  N_3 
REMARK    2  A    between atoms: C_2  and  C_16 
REMARK    3  A    between atoms: N_3  and  C_5 
REMARK    4  A    between atoms: C_5  and  C_6 
REMARK       I    between atoms: C_16  and  N_17 
REMARK    5  A    between atoms: N_17  and  C_18 
REMARK    6  A    between atoms: C_19  and  C_20 
ROOT
HETATM    1  C   UNL     1      42.617 -17.153   1.527  1.00  0.00     0.253 C 
HETATM    2  N   UNL     1      42.329 -18.135   2.445  1.00  0.00    -0.325 N 
HETATM    3  O   UNL     1      43.740 -16.847   1.121  1.00  0.00    -0.271 OA
HETATM    4  H   UNL     1      41.489 -18.051   3.008  1.00  0.00     0.169 HD
ENDROOT
BRANCH   1   5
HETATM    5  C   UNL     1      41.433 -16.277   1.070  1.00  0.00     0.275 C 
HETATM    6  C   UNL     1      41.321 -16.079  -0.433  1.00  0.00     0.050 C 
BRANCH   5   7
HETATM    7  N   UNL     1      41.474 -14.927   1.839  1.00  0.00    -0.059 N 
HETATM    8  H   UNL     1      40.470 -14.765   2.038  1.00  0.00     0.280 HD
HETATM    9  C   UNL     1      41.925 -13.792   0.970  1.00  0.00     0.271 C 
BRANCH   7  10
HETATM   10  C   UNL     1      42.136 -14.887   3.200  1.00  0.00     0.274 C 
BRANCH  10  11
HETATM   11  C   UNL     1      41.437 -14.092   4.271  1.00  0.00    -0.030 A 
HETATM   12  C   UNL     1      42.108 -13.078   4.974  1.00  0.00     0.048 A 
HETATM   13  C   UNL     1      41.420 -12.390   5.954  1.00  0.00     0.105 A 
HETATM   14  C   UNL     1      40.122 -12.693   6.278  1.00  0.00     0.105 A 
HETATM   15  O   UNL     1      41.916 -11.366   6.697  1.00  0.00    -0.323 OA
HETATM   16  O   UNL     1      39.635 -11.900   7.267  1.00  0.00    -0.323 OA
HETATM   17  C   UNL     1      39.439 -13.704   5.643  1.00  0.00     0.040 A 
HETATM   18  C   UNL     1      40.775 -11.052   7.528  1.00  0.00     0.352 A 
HETATM   19  C   UNL     1      40.105 -14.410   4.634  1.00  0.00     0.012 A 
ENDBRANCH  10  11
ENDBRANCH   7  10
ENDBRANCH   5   7
ENDBRANCH   1   5
BRANCH   2  20
HETATM   20  C   UNL     1      43.200 -19.186   2.834  1.00  0.00     0.045 A 
HETATM   21  C   UNL     1      43.646 -19.248   4.177  1.00  0.00     0.001 A 
HETATM   22  C   UNL     1      44.433 -20.343   4.578  1.00  0.00     0.014 A 
HETATM   23  C   UNL     1      44.780 -21.349   3.678  1.00  0.00     0.001 A 
HETATM   24  C   UNL     1      44.350 -21.274   2.358  1.00  0.00     0.002 A 
HETATM   25  C   UNL     1      43.565 -20.200   1.936  1.00  0.00     0.030 A 
BRANCH  21  26
HETATM   26  C   UNL     1      43.377 -18.176   5.149  1.00  0.00    -0.024 A 
HETATM   27  C   UNL     1      44.386 -17.286   5.546  1.00  0.00     0.012 A 
HETATM   28  C   UNL     1      44.115 -16.266   6.462  1.00  0.00     0.001 A 
HETATM   29  C   UNL     1      42.833 -16.123   6.991  1.00  0.00     0.000 A 
HETATM   30  C   UNL     1      41.818 -16.996   6.603  1.00  0.00     0.001 A 
HETATM   31  C   UNL     1      42.089 -18.014   5.688  1.00  0.00     0.012 A 
ENDBRANCH  21  26
ENDBRANCH   2  20
TORSDOF 6
ENDMDL
MODEL 6
REMARK VINA RESULT:      -8.1      2.434      4.638
REMARK  6 active torsions:
REMARK  status: ('A' for Active; 'I' for Inactive)
REMARK    1  A    between atoms: C_2  and  N_3 
REMARK    2  A    between atoms: C_2  and  C_16 
REMARK    3  A    between atoms: N_3  and  C_5 
REMARK    4  A    between atoms: C_5  and  C_6 
REMARK       I    between atoms: C_16  and  N_17 
REMARK    5  A    between atoms: N_17  and  C_18 
REMARK    6  A    between atoms: C_19  and  C_20 
ROOT
HETATM    1  C   UNL     1      43.202 -13.971   3.937  1.00  0.00     0.253 C 
HETATM    2  N   UNL     1      42.656 -15.232   3.901  1.00  0.00    -0.325 N 
HETATM    3  O   UNL     1      44.341 -13.664   3.578  1.00  0.00    -0.271 OA
HETATM    4  H   UNL     1      41.921 -15.468   4.559  1.00  0.00     0.169 HD
ENDROOT
BRANCH   1   5
HETATM    5  C   UNL     1      42.351 -12.876   4.611  1.00  0.00     0.275 C 
HETATM    6  C   UNL     1      41.433 -13.366   5.720  1.00  0.00     0.050 C 
BRANCH   5   7
HETATM    7  N   UNL     1      41.580 -12.086   3.517  1.00  0.00    -0.059 N 
HETATM    8  H   UNL     1      42.333 -11.874   2.837  1.00  0.00     0.280 HD
HETATM    9  C   UNL     1      41.075 -10.768   4.019  1.00  0.00     0.271 C 
BRANCH   7  10
HETATM   10  C   UNL     1      40.532 -12.813   2.700  1.00  0.00     0.274 C 
BRANCH  10  11
HETATM   11  C   UNL     1      40.902 -13.168   1.284  1.00  0.00    -0.030 A 
HETATM   12  C   UNL     1      41.786 -12.363   0.544  1.00  0.00     0.048 A 
HETATM   13  C   UNL     1      42.080 -12.731  -0.754  1.00  0.00     0.105 A 
HETATM   14  C   UNL     1      41.512 -13.831  -1.342  1.00  0.00     0.105 A 
HETATM   15  O   UNL     1      42.936 -12.080  -1.584  1.00  0.00    -0.323 OA
HETATM   16  O   UNL     1      41.934 -14.012  -2.621  1.00  0.00    -0.323 OA
HETATM   17  C   UNL     1      40.612 -14.624  -0.669  1.00  0.00     0.040 A 
HETATM   18  C   UNL     1      42.845 -12.901  -2.770  1.00  0.00     0.352 A 
HETATM   19  C   UNL     1      40.304 -14.286   0.654  1.00  0.00     0.012 A 
ENDBRANCH  10  11
ENDBRANCH   7  10
ENDBRANCH   5   7
ENDBRANCH   1   5
BRANCH   2  20
HETATM   20  C   UNL     1      43.152 -16.328   3.147  1.00  0.00     0.045 A 
HETATM   21  C   UNL     1      43.511 -17.519   3.823  1.00  0.00     0.001 A 
HETATM   22  C   UNL     1      43.913 -18.633   3.062  1.00  0.00     0.014 A 
HETATM   23  C   UNL     1      43.968 -18.572   1.670  1.00  0.00     0.001 A 
HETATM   24  C   UNL     1      43.627 -17.395   1.016  1.00  0.00     0.002 A 
HETATM   25  C   UNL     1      43.221 -16.278   1.747  1.00  0.00     0.030 A 
BRANCH  21  26
HETATM   26  C   UNL     1      43.548 -17.615   5.291  1.00  0.00    -0.024 A 
HETATM   27  C   UNL     1      42.426 -17.296   6.068  1.00  0.00     0.012 A 
HETATM   28  C   UNL     1      42.471 -17.401   7.461  1.00  0.00     0.001 A 
HETATM   29  C   UNL     1      43.639 -17.828   8.093  1.00  0.00     0.000 A 
HETATM   30  C   UNL     1      44.761 -18.153   7.335  1.00  0.00     0.001 A 
HETATM   31  C   UNL     1      44.715 -18.048   5.944  1.00  0.00     0.012 A 
ENDBRANCH  21  26
ENDBRANCH   2  20
TORSDOF 6
ENDMDL
MODEL 7
REMARK VINA RESULT:      -8.1      1.833      3.875
REMARK  6 active torsions:
REMARK  status: ('A' for Active; 'I' for Inactive)
REMARK    1  A    between atoms: C_2  and  N_3 
REMARK    2  A    between atoms: C_2  and  C_16 
REMARK    3  A    between atoms: N_3  and  C_5 
REMARK    4  A    between atoms: C_5  and  C_6 
REMARK       I    between atoms: C_16  and  N_17 
REMARK    5  A    between atoms: N_17  and  C_18 
REMARK    6  A    between atoms: C_19  and  C_20 
ROOT
HETATM    1  C   UNL     1      43.265 -18.995   2.071  1.00  0.00     0.253 C 
HETATM    2  N   UNL     1      44.247 -19.026   3.032  1.00  0.00    -0.325 N 
HETATM    3  O   UNL     1      42.528 -19.932   1.757  1.00  0.00    -0.271 OA
HETATM    4  H   UNL     1      45.038 -18.397   2.947  1.00  0.00     0.169 HD
ENDROOT
BRANCH   1   5
HETATM    5  C   UNL     1      43.175 -17.707   1.227  1.00  0.00     0.275 C 
HETATM    6  C   UNL     1      43.991 -16.536   1.750  1.00  0.00     0.050 C 
BRANCH   5   7
HETATM    7  N   UNL     1      41.680 -17.337   1.022  1.00  0.00    -0.059 N 
HETATM    8  H   UNL     1      41.280 -18.237   0.700  1.00  0.00     0.280 HD
HETATM    9  C   UNL     1      41.485 -16.358  -0.096  1.00  0.00     0.271 C 
BRANCH   7  10
HETATM   10  C   UNL     1      40.851 -16.971   2.236  1.00  0.00     0.274 C 
BRANCH  10  11
HETATM   11  C   UNL     1      40.444 -15.527   2.368  1.00  0.00    -0.030 A 
HETATM   12  C   UNL     1      41.272 -14.599   3.022  1.00  0.00     0.048 A 
HETATM   13  C   UNL     1      40.843 -13.291   3.125  1.00  0.00     0.105 A 
HETATM   14  C   UNL     1      39.626 -12.887   2.639  1.00  0.00     0.105 A 
HETATM   15  O   UNL     1      41.539 -12.274   3.696  1.00  0.00    -0.323 OA
HETATM   16  O   UNL     1      39.398 -11.564   2.844  1.00  0.00    -0.323 OA
HETATM   17  C   UNL     1      38.766 -13.770   2.027  1.00  0.00     0.040 A 
HETATM   18  C   UNL     1      40.619 -11.175   3.511  1.00  0.00     0.352 A 
HETATM   19  C   UNL     1      39.179 -15.100   1.895  1.00  0.00     0.012 A 
ENDBRANCH  10  11
ENDBRANCH   7  10
ENDBRANCH   5   7
ENDBRANCH   1   5
BRANCH   2  20
HETATM   20  C   UNL     1      44.371 -19.999   4.058  1.00  0.00     0.045 A 
HETATM   21  C   UNL     1      43.977 -19.661   5.376  1.00  0.00     0.001 A 
HETATM   22  C   UNL     1      44.014 -20.658   6.369  1.00  0.00     0.014 A 
HETATM   23  C   UNL     1      44.437 -21.954   6.073  1.00  0.00     0.001 A 
HETATM   24  C   UNL     1      44.834 -22.273   4.780  1.00  0.00     0.002 A 
HETATM   25  C   UNL     1      44.803 -21.304   3.777  1.00  0.00     0.030 A 
BRANCH  21  26
HETATM   26  C   UNL     1      43.599 -18.293   5.762  1.00  0.00    -0.024 A 
HETATM   27  C   UNL     1      42.284 -17.831   5.606  1.00  0.00     0.012 A 
HETATM   28  C   UNL     1      41.936 -16.532   5.986  1.00  0.00     0.001 A 
HETATM   29  C   UNL     1      42.898 -15.680   6.527  1.00  0.00     0.000 A 
HETATM   30  C   UNL     1      44.208 -16.125   6.693  1.00  0.00     0.001 A 
HETATM   31  C   UNL     1      44.555 -17.422   6.314  1.00  0.00     0.012 A 
ENDBRANCH  21  26
ENDBRANCH   2  20
TORSDOF 6
ENDMDL
MODEL 8
REMARK VINA RESULT:      -8.0      2.256      3.798
REMARK  6 active torsions:
REMARK  status: ('A' for Active; 'I' for Inactive)
REMARK    1  A    between atoms: C_2  and  N_3 
REMARK    2  A    between atoms: C_2  and  C_16 
REMARK    3  A    between atoms: N_3  and  C_5 
REMARK    4  A    between atoms: C_5  and  C_6 
REMARK       I    between atoms: C_16  and  N_17 
REMARK    5  A    between atoms: N_17  and  C_18 
REMARK    6  A    between atoms: C_19  and  C_20 
ROOT
HETATM    1  C   UNL     1      41.925 -14.520   5.517  1.00  0.00     0.253 C 
HETATM    2  N   UNL     1      43.031 -15.095   4.939  1.00  0.00    -0.325 N 
HETATM    3  O   UNL     1      41.069 -15.105   6.184  1.00  0.00    -0.271 OA
HETATM    4  H   UNL     1      43.433 -14.666   4.112  1.00  0.00     0.169 HD
ENDROOT
BRANCH   1   5
HETATM    5  C   UNL     1      41.674 -13.035   5.185  1.00  0.00     0.275 C 
HETATM    6  C   UNL     1      41.776 -12.085   6.368  1.00  0.00     0.050 C 
BRANCH   5   7
HETATM    7  N   UNL     1      40.316 -12.903   4.441  1.00  0.00    -0.059 N 
HETATM    8  H   UNL     1      40.505 -12.117   3.793  1.00  0.00     0.280 HD
HETATM    9  C   UNL     1      39.213 -12.453   5.350  1.00  0.00     0.271 C 
BRANCH   7  10
HETATM   10  C   UNL     1      39.871 -14.034   3.538  1.00  0.00     0.274 C 
BRANCH  10  11
HETATM   11  C   UNL     1      40.092 -13.848   2.060  1.00  0.00    -0.030 A 
HETATM   12  C   UNL     1      39.053 -14.069   1.140  1.00  0.00     0.048 A 
HETATM   13  C   UNL     1      39.315 -13.895  -0.204  1.00  0.00     0.105 A 
HETATM   14  C   UNL     1      40.561 -13.547  -0.661  1.00  0.00     0.105 A 
HETATM   15  O   UNL     1      38.414 -14.038  -1.211  1.00  0.00    -0.323 OA
HETATM   16  O   UNL     1      40.604 -13.430  -2.013  1.00  0.00    -0.323 OA
HETATM   17  C   UNL     1      41.617 -13.359   0.201  1.00  0.00     0.040 A 
HETATM   18  C   UNL     1      39.236 -13.736  -2.360  1.00  0.00     0.352 A 
HETATM   19  C   UNL     1      41.378 -13.515   1.571  1.00  0.00     0.012 A 
ENDBRANCH  10  11
ENDBRANCH   7  10
ENDBRANCH   5   7
ENDBRANCH   1   5
BRANCH   2  20
HETATM   20  C   UNL     1      43.575 -16.364   5.273  1.00  0.00     0.045 A 
HETATM   21  C   UNL     1      43.533 -17.403   4.312  1.00  0.00     0.001 A 
HETATM   22  C   UNL     1      44.156 -18.628   4.614  1.00  0.00     0.014 A 
HETATM   23  C   UNL     1      44.798 -18.828   5.835  1.00  0.00     0.001 A 
HETATM   24  C   UNL     1      44.823 -17.807   6.778  1.00  0.00     0.002 A 
HETATM   25  C   UNL     1      44.216 -16.582   6.501  1.00  0.00     0.030 A 
BRANCH  21  26
HETATM   26  C   UNL     1      42.802 -17.276   3.041  1.00  0.00    -0.024 A 
HETATM   27  C   UNL     1      43.477 -17.019   1.838  1.00  0.00     0.012 A 
HETATM   28  C   UNL     1      42.772 -16.910   0.637  1.00  0.00     0.001 A 
HETATM   29  C   UNL     1      41.385 -17.058   0.623  1.00  0.00     0.000 A 
HETATM   30  C   UNL     1      40.701 -17.317   1.808  1.00  0.00     0.001 A 
HETATM   31  C   UNL     1      41.405 -17.426   3.007  1.00  0.00     0.012 A 
ENDBRANCH  21  26
ENDBRANCH   2  20
TORSDOF 6
ENDMDL
MODEL 9
REMARK VINA RESULT:      -7.9      3.561      7.858
REMARK  6 active torsions:
REMARK  status: ('A' for Active; 'I' for Inactive)
REMARK    1  A    between atoms: C_2  and  N_3 
REMARK    2  A    between atoms: C_2  and  C_16 
REMARK    3  A    between atoms: N_3  and  C_5 
REMARK    4  A    between atoms: C_5  and  C_6 
REMARK       I    between atoms: C_16  and  N_17 
REMARK    5  A    between atoms: N_17  and  C_18 
REMARK    6  A    between atoms: C_19  and  C_20 
ROOT
HETATM    1  C   UNL     1      40.988 -15.221   0.309  1.00  0.00     0.253 C 
HETATM    2  N   UNL     1      40.657 -13.925  -0.006  1.00  0.00    -0.325 N 
HETATM    3  O   UNL     1      41.726 -15.961  -0.345  1.00  0.00    -0.271 OA
HETATM    4  H   UNL     1      39.776 -13.548   0.325  1.00  0.00     0.169 HD
ENDROOT
BRANCH   1   5
HETATM    5  C   UNL     1      40.261 -15.837   1.522  1.00  0.00     0.275 C 
HETATM    6  C   UNL     1      38.965 -15.146   1.915  1.00  0.00     0.050 C 
BRANCH   5   7
HETATM    7  N   UNL     1      41.256 -15.939   2.712  1.00  0.00    -0.059 N 
HETATM    8  H   UNL     1      40.937 -16.807   3.181  1.00  0.00     0.280 HD
HETATM    9  C   UNL     1      41.074 -14.828   3.701  1.00  0.00     0.271 C 
BRANCH   7  10
HETATM   10  C   UNL     1      42.719 -16.191   2.415  1.00  0.00     0.274 C 
BRANCH  10  11
HETATM   11  C   UNL     1      43.267 -17.541   2.798  1.00  0.00    -0.030 A 
HETATM   12  C   UNL     1      43.191 -18.629   1.912  1.00  0.00     0.048 A 
HETATM   13  C   UNL     1      43.698 -19.847   2.320  1.00  0.00     0.105 A 
HETATM   14  C   UNL     1      44.238 -20.025   3.568  1.00  0.00     0.105 A 
HETATM   15  O   UNL     1      43.729 -20.981   1.573  1.00  0.00    -0.323 OA
HETATM   16  O   UNL     1      44.675 -21.296   3.767  1.00  0.00    -0.323 OA
HETATM   17  C   UNL     1      44.296 -18.998   4.482  1.00  0.00     0.040 A 
HETATM   18  C   UNL     1      44.357 -21.900   2.495  1.00  0.00     0.352 A 
HETATM   19  C   UNL     1      43.803 -17.748   4.092  1.00  0.00     0.012 A 
ENDBRANCH  10  11
ENDBRANCH   7  10
ENDBRANCH   5   7
ENDBRANCH   1   5
BRANCH   2  20
HETATM   20  C   UNL     1      41.349 -13.094  -0.927  1.00  0.00     0.045 A 
HETATM   21  C   UNL     1      40.932 -13.075  -2.280  1.00  0.00     0.001 A 
HETATM   22  C   UNL     1      41.559 -12.181  -3.167  1.00  0.00     0.014 A 
HETATM   23  C   UNL     1      42.578 -11.332  -2.735  1.00  0.00     0.001 A 
HETATM   24  C   UNL     1      42.991 -11.368  -1.408  1.00  0.00     0.002 A 
HETATM   25  C   UNL     1      42.381 -12.243  -0.507  1.00  0.00     0.030 A 
BRANCH  21  26
HETATM   26  C   UNL     1      39.918 -14.001  -2.809  1.00  0.00    -0.024 A 
HETATM   27  C   UNL     1      38.551 -13.694  -2.749  1.00  0.00     0.012 A 
HETATM   28  C   UNL     1      37.600 -14.579  -3.264  1.00  0.00     0.001 A 
HETATM   29  C   UNL     1      38.004 -15.780  -3.846  1.00  0.00     0.000 A 
HETATM   30  C   UNL     1      39.358 -16.098  -3.917  1.00  0.00     0.001 A 
HETATM   31  C   UNL     1      40.308 -15.214  -3.404  1.00  0.00     0.012 A 
ENDBRANCH  21  26
ENDBRANCH   2  20
TORSDOF 6
ENDMDL
MODEL 10
REMARK VINA RESULT:      -7.9      2.599      4.739
REMARK  6 active torsions:
REMARK  status: ('A' for Active; 'I' for Inactive)
REMARK    1  A    between atoms: C_2  and  N_3 
REMARK    2  A    between atoms: C_2  and  C_16 
REMARK    3  A    between atoms: N_3  and  C_5 
REMARK    4  A    between atoms: C_5  and  C_6 
REMARK       I    between atoms: C_16  and  N_17 
REMARK    5  A    between atoms: N_17  and  C_18 
REMARK    6  A    between atoms: C_19  and  C_20 
ROOT
HETATM    1  C   UNL     1      42.537 -16.025   2.911  1.00  0.00     0.253 C 
HETATM    2  N   UNL     1      42.188 -17.302   3.281  1.00  0.00    -0.325 N 
HETATM    3  O   UNL     1      43.672 -15.637   2.627  1.00  0.00    -0.271 OA
HETATM    4  H   UNL     1      41.372 -17.439   3.868  1.00  0.00     0.169 HD
ENDROOT
BRANCH   1   5
HETATM    5  C   UNL     1      41.422 -14.963   2.990  1.00  0.00     0.275 C 
HETATM    6  C   UNL     1      40.583 -15.002   4.257  1.00  0.00     0.050 C 
BRANCH   5   7
HETATM    7  N   UNL     1      40.550 -15.044   1.706  1.00  0.00    -0.059 N 
HETATM    8  H   UNL     1      40.499 -14.049   1.420  1.00  0.00     0.280 HD
HETATM    9  C   UNL     1      39.146 -15.476   2.000  1.00  0.00     0.271 C 
BRANCH   7  10
HETATM   10  C   UNL     1      41.112 -15.754   0.492  1.00  0.00     0.274 C 
BRANCH  10  11
HETATM   11  C   UNL     1      41.321 -14.920  -0.745  1.00  0.00    -0.030 A 
HETATM   12  C   UNL     1      41.797 -13.601  -0.655  1.00  0.00     0.048 A 
HETATM   13  C   UNL     1      41.958 -12.879  -1.821  1.00  0.00     0.105 A 
HETATM   14  C   UNL     1      41.637 -13.401  -3.048  1.00  0.00     0.105 A 
HETATM   15  O   UNL     1      42.436 -11.610  -1.905  1.00  0.00    -0.323 OA
HETATM   16  O   UNL     1      41.868 -12.527  -4.061  1.00  0.00    -0.323 OA
HETATM   17  C   UNL     1      41.131 -14.674  -3.179  1.00  0.00     0.040 A 
HETATM   18  C   UNL     1      42.383 -11.391  -3.333  1.00  0.00     0.352 A 
HETATM   19  C   UNL     1      40.969 -15.436  -2.016  1.00  0.00     0.012 A 
ENDBRANCH  10  11
ENDBRANCH   7  10
ENDBRANCH   5   7
ENDBRANCH   1   5
BRANCH   2  20
HETATM   20  C   UNL     1      42.975 -18.467   3.079  1.00  0.00     0.045 A 
HETATM   21  C   UNL     1      43.626 -19.056   4.190  1.00  0.00     0.001 A 
HETATM   22  C   UNL     1      44.327 -20.262   4.001  1.00  0.00     0.014 A 
HETATM   23  C   UNL     1      44.393 -20.867   2.747  1.00  0.00     0.001 A 
HETATM   24  C   UNL     1      43.764 -20.275   1.659  1.00  0.00     0.002 A 
HETATM   25  C   UNL     1      43.058 -19.081   1.821  1.00  0.00     0.030 A 
BRANCH  21  26
HETATM   26  C   UNL     1      43.656 -18.421   5.518  1.00  0.00    -0.024 A 
HETATM   27  C   UNL     1      44.865 -18.220   6.199  1.00  0.00     0.012 A 
HETATM   28  C   UNL     1      44.880 -17.607   7.455  1.00  0.00     0.001 A 
HETATM   29  C   UNL     1      43.688 -17.187   8.043  1.00  0.00     0.000 A 
HETATM   30  C   UNL     1      42.479 -17.376   7.377  1.00  0.00     0.001 A 
HETATM   31  C   UNL     1      42.464 -17.987   6.123  1.00  0.00     0.012 A 
ENDBRANCH  21  26
ENDBRANCH   2  20
TORSDOF 6
ENDMDL
