MODEL 1
REMARK VINA RESULT:      -9.7      0.000      0.000
REMARK  4 active torsions:
REMARK  status: ('A' for Active; 'I' for Inactive)
REMARK    1  A    between atoms: C_2  and  C_3 
REMARK    2  A    between atoms: C_2  and  C_19 
REMARK       I    between atoms: C_3  and  N_4 
REMARK    3  A    between atoms: N_4  and  C_5 
REMARK    4  A    between atoms: C_12  and  C_13 
REMARK       I    between atoms: C_13  and  N_14 
ROOT
HETATM    1  C   UNL     1      42.805 -15.515   2.544  1.00  0.00     0.230 C 
HETATM    2  N   UNL     1      41.421 -15.513   2.552  1.00  0.00    -0.327 N 
HETATM    3  O   UNL     1      43.517 -14.615   2.986  1.00  0.00    -0.272 OA
HETATM    4  H   UNL     1      40.968 -16.403   2.391  1.00  0.00     0.169 HD
ENDROOT
BRANCH   2   5
HETATM    5  C   UNL     1      40.566 -14.442   2.879  1.00  0.00     0.035 A 
HETATM    6  C   UNL     1      40.481 -13.882   4.161  1.00  0.00     0.046 A 
HETATM    7  C   UNL     1      39.644 -12.766   4.380  1.00  0.00     0.030 A 
HETATM    8  C   UNL     1      38.906 -12.262   3.316  1.00  0.00     0.063 A 
HETATM    9  C   UNL     1      39.321 -11.921   5.485  1.00  0.00     0.156 A 
HETATM   10  N   UNL     1      38.202 -11.210   3.828  1.00  0.00    -0.277 N 
HETATM   11  C   UNL     1      38.961 -12.799   2.028  1.00  0.00     0.034 A 
HETATM   12  H   UNL     1      37.553 -10.607   3.335  1.00  0.00     0.189 HD
HETATM   13  N   UNL     1      38.429 -10.967   5.129  1.00  0.00    -0.168 NA
HETATM   14  C   UNL     1      39.813 -13.892   1.832  1.00  0.00     0.032 A 
BRANCH   9  15
HETATM   15  C   UNL     1      39.852 -11.991   6.854  1.00  0.00     0.270 C 
HETATM   16  N   UNL     1      39.189 -12.872   7.665  1.00  0.00    -0.365 N 
HETATM   17  H   UNL     1      38.401 -13.383   7.284  1.00  0.00     0.159 HD
HETATM   18  H   UNL     1      39.470 -12.975   8.626  1.00  0.00     0.159 HD
HETATM   19  O   UNL     1      40.796 -11.331   7.273  1.00  0.00    -0.266 OA
ENDBRANCH   9  15
ENDBRANCH   2   5
BRANCH   1  20
HETATM   20  C   UNL     1      43.452 -16.707   1.820  1.00  0.00     0.107 C 
HETATM   21  C   UNL     1      42.577 -17.067   0.616  1.00  0.00     0.025 C 
BRANCH  20  22
HETATM   22  C   UNL     1      43.787 -17.891   2.720  1.00  0.00    -0.044 A 
HETATM   23  C   UNL     1      43.963 -19.195   2.224  1.00  0.00     0.020 A 
HETATM   24  C   UNL     1      44.239 -20.276   3.079  1.00  0.00    -0.025 A 
HETATM   25  C   UNL     1      44.356 -20.049   4.467  1.00  0.00    -0.026 A 
HETATM   26  C   UNL     1      44.398 -21.580   2.582  1.00  0.00     0.012 A 
HETATM   27  C   UNL     1      44.184 -18.748   4.963  1.00  0.00     0.013 A 
HETATM   28  C   UNL     1      44.641 -21.128   5.319  1.00  0.00     0.012 A 
HETATM   29  C   UNL     1      43.894 -17.686   4.103  1.00  0.00     0.009 A 
HETATM   30  C   UNL     1      44.798 -22.418   4.809  1.00  0.00     0.001 A 
HETATM   31  C   UNL     1      44.674 -22.644   3.442  1.00  0.00     0.001 A 
ENDBRANCH  20  22
ENDBRANCH   1  20
TORSDOF 4
ENDMDL
MODEL 2
REMARK VINA RESULT:      -9.4      2.883      4.903
REMARK  4 active torsions:
REMARK  status: ('A' for Active; 'I' for Inactive)
REMARK    1  A    between atoms: C_2  and  C_3 
REMARK    2  A    between atoms: C_2  and  C_19 
REMARK       I    between atoms: C_3  and  N_4 
REMARK    3  A    between atoms: N_4  and  C_5 
REMARK    4  A    between atoms: C_12  and  C_13 
REMARK       I    between atoms: C_13  and  N_14 
ROOT
HETATM    1  C   UNL     1      42.159 -15.182   3.149  1.00  0.00     0.230 C 
HETATM    2  N   UNL     1      40.795 -15.039   2.966  1.00  0.00    -0.327 N 
HETATM    3  O   UNL     1      43.021 -14.853   2.336  1.00  0.00    -0.272 OA
HETATM    4  H   UNL     1      40.218 -15.114   3.793  1.00  0.00     0.169 HD
ENDROOT
BRANCH   2   5
HETATM    5  C   UNL     1      40.121 -14.680   1.781  1.00  0.00     0.035 A 
HETATM    6  C   UNL     1      40.733 -14.647   0.521  1.00  0.00     0.046 A 
HETATM    7  C   UNL     1      39.960 -14.339  -0.620  1.00  0.00     0.030 A 
HETATM    8  C   UNL     1      38.610 -14.055  -0.460  1.00  0.00     0.063 A 
HETATM    9  C   UNL     1      40.193 -14.242  -2.026  1.00  0.00     0.156 A 
HETATM   10  N   UNL     1      38.141 -13.795  -1.716  1.00  0.00    -0.277 N 
HETATM   11  C   UNL     1      37.969 -14.072   0.781  1.00  0.00     0.034 A 
HETATM   12  H   UNL     1      37.194 -13.545  -1.979  1.00  0.00     0.189 HD
HETATM   13  N   UNL     1      39.062 -13.903  -2.688  1.00  0.00    -0.168 NA
HETATM   14  C   UNL     1      38.752 -14.399   1.894  1.00  0.00     0.032 A 
BRANCH   9  15
HETATM   15  C   UNL     1      41.452 -14.479  -2.746  1.00  0.00     0.270 C 
HETATM   16  N   UNL     1      42.457 -13.612  -2.412  1.00  0.00    -0.365 N 
HETATM   17  H   UNL     1      42.266 -12.888  -1.729  1.00  0.00     0.159 HD
HETATM   18  H   UNL     1      43.352 -13.686  -2.867  1.00  0.00     0.159 HD
HETATM   19  O   UNL     1      41.625 -15.357  -3.584  1.00  0.00    -0.266 OA
ENDBRANCH   9  15
ENDBRANCH   2   5
BRANCH   1  20
HETATM   20  C   UNL     1      42.571 -15.910   4.439  1.00  0.00     0.107 C 
HETATM   21  C   UNL     1      43.456 -14.966   5.259  1.00  0.00     0.025 C 
BRANCH  20  22
HETATM   22  C   UNL     1      43.172 -17.294   4.223  1.00  0.00    -0.044 A 
HETATM   23  C   UNL     1      42.874 -18.082   3.097  1.00  0.00     0.020 A 
HETATM   24  C   UNL     1      43.414 -19.370   2.937  1.00  0.00    -0.025 A 
HETATM   25  C   UNL     1      44.288 -19.881   3.920  1.00  0.00    -0.026 A 
HETATM   26  C   UNL     1      43.101 -20.161   1.819  1.00  0.00     0.012 A 
HETATM   27  C   UNL     1      44.589 -19.095   5.042  1.00  0.00     0.013 A 
HETATM   28  C   UNL     1      44.835 -21.164   3.755  1.00  0.00     0.012 A 
HETATM   29  C   UNL     1      44.031 -17.823   5.196  1.00  0.00     0.009 A 
HETATM   30  C   UNL     1      44.515 -21.937   2.638  1.00  0.00     0.001 A 
HETATM   31  C   UNL     1      43.647 -21.437   1.672  1.00  0.00     0.001 A 
ENDBRANCH  20  22
ENDBRANCH   1  20
TORSDOF 4
ENDMDL
MODEL 3
REMARK VINA RESULT:      -9.3      3.825      4.998
REMARK  4 active torsions:
REMARK  status: ('A' for Active; 'I' for Inactive)
REMARK    1  A    between atoms: C_2  and  C_3 
REMARK    2  A    between atoms: C_2  and  C_19 
REMARK       I    between atoms: C_3  and  N_4 
REMARK    3  A    between atoms: N_4  and  C_5 
REMARK    4  A    between atoms: C_12  and  C_13 
REMARK       I    between atoms: C_13  and  N_14 
ROOT
HETATM    1  C   UNL     1      43.511 -14.549   4.956  1.00  0.00     0.230 C 
HETATM    2  N   UNL     1      43.671 -14.585   6.330  1.00  0.00    -0.327 N 
HETATM    3  O   UNL     1      44.009 -13.712   4.206  1.00  0.00    -0.272 OA
HETATM    4  H   UNL     1      43.422 -15.449   6.792  1.00  0.00     0.169 HD
ENDROOT
BRANCH   2   5
HETATM    5  C   UNL     1      44.256 -13.600   7.152  1.00  0.00     0.035 A 
HETATM    6  C   UNL     1      43.516 -12.735   7.970  1.00  0.00     0.046 A 
HETATM    7  C   UNL     1      44.193 -11.823   8.811  1.00  0.00     0.030 A 
HETATM    8  C   UNL     1      45.582 -11.795   8.789  1.00  0.00     0.063 A 
HETATM    9  C   UNL     1      43.819 -10.841   9.777  1.00  0.00     0.156 A 
HETATM   10  N   UNL     1      45.939 -10.827   9.684  1.00  0.00    -0.277 N 
HETATM   11  C   UNL     1      46.349 -12.637   7.982  1.00  0.00     0.034 A 
HETATM   12  H   UNL     1      46.879 -10.530   9.926  1.00  0.00     0.189 HD
HETATM   13  N   UNL     1      44.907 -10.233  10.306  1.00  0.00    -0.168 NA
HETATM   14  C   UNL     1      45.656 -13.545   7.173  1.00  0.00     0.032 A 
BRANCH   9  15
HETATM   15  C   UNL     1      42.462 -10.484  10.216  1.00  0.00     0.270 C 
HETATM   16  N   UNL     1      41.853 -11.445  10.977  1.00  0.00    -0.365 N 
HETATM   17  H   UNL     1      42.354 -12.305  11.166  1.00  0.00     0.159 HD
HETATM   18  H   UNL     1      40.913 -11.297  11.309  1.00  0.00     0.159 HD
HETATM   19  O   UNL     1      41.889  -9.437   9.938  1.00  0.00    -0.266 OA
ENDBRANCH   9  15
ENDBRANCH   2   5
BRANCH   1  20
HETATM   20  C   UNL     1      42.540 -15.597   4.386  1.00  0.00     0.107 C 
HETATM   21  C   UNL     1      41.248 -15.549   5.206  1.00  0.00     0.025 C 
BRANCH  20  22
HETATM   22  C   UNL     1      43.130 -16.995   4.238  1.00  0.00    -0.044 A 
HETATM   23  C   UNL     1      42.922 -17.788   3.094  1.00  0.00     0.020 A 
HETATM   24  C   UNL     1      43.449 -19.087   2.996  1.00  0.00    -0.025 A 
HETATM   25  C   UNL     1      44.217 -19.606   4.060  1.00  0.00    -0.026 A 
HETATM   26  C   UNL     1      43.226 -19.882   1.859  1.00  0.00     0.012 A 
HETATM   27  C   UNL     1      44.427 -18.816   5.199  1.00  0.00     0.013 A 
HETATM   28  C   UNL     1      44.750 -20.901   3.956  1.00  0.00     0.012 A 
HETATM   29  C   UNL     1      43.883 -17.532   5.291  1.00  0.00     0.009 A 
HETATM   30  C   UNL     1      44.521 -21.678   2.820  1.00  0.00     0.001 A 
HETATM   31  C   UNL     1      43.758 -21.169   1.773  1.00  0.00     0.001 A 
ENDBRANCH  20  22
ENDBRANCH   1  20
TORSDOF 4
ENDMDL
MODEL 4
REMARK VINA RESULT:      -9.3      3.120      5.314
REMARK  4 active torsions:
REMARK  status: ('A' for Active; 'I' for Inactive)
REMARK    1  A    between atoms: C_2  and  C_3 
REMARK    2  A    between atoms: C_2  and  C_19 
REMARK       I    between atoms: C_3  and  N_4 
REMARK    3  A    between atoms: N_4  and  C_5 
REMARK    4  A    between atoms: C_12  and  C_13 
REMARK       I    between atoms: C_13  and  N_14 
ROOT
HETATM    1  C   UNL     1      42.141 -13.997   2.760  1.00  0.00     0.230 C 
HETATM    2  N   UNL     1      40.849 -14.353   2.418  1.00  0.00    -0.327 N 
HETATM    3  O   UNL     1      42.831 -13.173   2.163  1.00  0.00    -0.272 OA
HETATM    4  H   UNL     1      40.314 -14.845   3.122  1.00  0.00     0.169 HD
ENDROOT
BRANCH   2   5
HETATM    5  C   UNL     1      40.143 -14.005   1.248  1.00  0.00     0.035 A 
HETATM    6  C   UNL     1      40.373 -14.598   0.000  1.00  0.00     0.046 A 
HETATM    7  C   UNL     1      39.571 -14.232  -1.103  1.00  0.00     0.030 A 
HETATM    8  C   UNL     1      38.582 -13.273  -0.924  1.00  0.00     0.063 A 
HETATM    9  C   UNL     1      39.469 -14.615  -2.476  1.00  0.00     0.156 A 
HETATM   10  N   UNL     1      37.991 -13.128  -2.148  1.00  0.00    -0.277 N 
HETATM   11  C   UNL     1      38.331 -12.656   0.303  1.00  0.00     0.034 A 
HETATM   12  H   UNL     1      37.228 -12.506  -2.391  1.00  0.00     0.189 HD
HETATM   13  N   UNL     1      38.492 -13.923  -3.107  1.00  0.00    -0.168 NA
HETATM   14  C   UNL     1      39.126 -13.050   1.385  1.00  0.00     0.032 A 
BRANCH   9  15
HETATM   15  C   UNL     1      40.263 -15.628  -3.186  1.00  0.00     0.270 C 
HETATM   16  N   UNL     1      39.577 -16.778  -3.467  1.00  0.00    -0.365 N 
HETATM   17  H   UNL     1      38.612 -16.853  -3.166  1.00  0.00     0.159 HD
HETATM   18  H   UNL     1      40.045 -17.536  -3.936  1.00  0.00     0.159 HD
HETATM   19  O   UNL     1      41.439 -15.497  -3.506  1.00  0.00    -0.266 OA
ENDBRANCH   9  15
ENDBRANCH   2   5
BRANCH   1  20
HETATM   20  C   UNL     1      42.753 -14.801   3.920  1.00  0.00     0.107 C 
HETATM   21  C   UNL     1      43.869 -13.961   4.548  1.00  0.00     0.025 C 
BRANCH  20  22
HETATM   22  C   UNL     1      43.174 -16.220   3.557  1.00  0.00    -0.044 A 
HETATM   23  C   UNL     1      43.508 -17.184   4.526  1.00  0.00     0.020 A 
HETATM   24  C   UNL     1      43.925 -18.476   4.164  1.00  0.00    -0.025 A 
HETATM   25  C   UNL     1      43.999 -18.823   2.798  1.00  0.00    -0.026 A 
HETATM   26  C   UNL     1      44.273 -19.430   5.134  1.00  0.00     0.012 A 
HETATM   27  C   UNL     1      43.664 -17.865   1.831  1.00  0.00     0.013 A 
HETATM   28  C   UNL     1      44.408 -20.118   2.438  1.00  0.00     0.012 A 
HETATM   29  C   UNL     1      43.267 -16.578   2.205  1.00  0.00     0.009 A 
HETATM   30  C   UNL     1      44.749 -21.055   3.414  1.00  0.00     0.001 A 
HETATM   31  C   UNL     1      44.684 -20.711   4.761  1.00  0.00     0.001 A 
ENDBRANCH  20  22
ENDBRANCH   1  20
TORSDOF 4
ENDMDL
MODEL 5
REMARK VINA RESULT:      -9.1      3.686      4.960
REMARK  4 active torsions:
REMARK  status: ('A' for Active; 'I' for Inactive)
REMARK    1  A    between atoms: C_2  and  C_3 
REMARK    2  A    between atoms: C_2  and  C_19 
REMARK       I    between atoms: C_3  and  N_4 
REMARK    3  A    between atoms: N_4  and  C_5 
REMARK    4  A    between atoms: C_12  and  C_13 
REMARK       I    between atoms: C_13  and  N_14 
ROOT
HETATM    1  C   UNL     1      41.138 -16.028   1.766  1.00  0.00     0.230 C 
HETATM    2  N   UNL     1      41.577 -15.452   0.587  1.00  0.00    -0.327 N 
HETATM    3  O   UNL     1      40.011 -16.483   1.955  1.00  0.00    -0.272 OA
HETATM    4  H   UNL     1      42.578 -15.348   0.480  1.00  0.00     0.169 HD
ENDROOT
BRANCH   2   5
HETATM    5  C   UNL     1      40.804 -15.103  -0.539  1.00  0.00     0.035 A 
HETATM    6  C   UNL     1      39.791 -14.135  -0.512  1.00  0.00     0.046 A 
HETATM    7  C   UNL     1      39.113 -13.803  -1.706  1.00  0.00     0.030 A 
HETATM    8  C   UNL     1      39.457 -14.465  -2.878  1.00  0.00     0.063 A 
HETATM    9  C   UNL     1      38.088 -12.885  -2.088  1.00  0.00     0.156 A 
HETATM   10  N   UNL     1      38.641 -13.944  -3.842  1.00  0.00    -0.277 N 
HETATM   11  C   UNL     1      40.456 -15.439  -2.940  1.00  0.00     0.034 A 
HETATM   12  H   UNL     1      38.611 -14.196  -4.824  1.00  0.00     0.189 HD
HETATM   13  N   UNL     1      37.806 -12.985  -3.408  1.00  0.00    -0.168 NA
HETATM   14  C   UNL     1      41.126 -15.735  -1.747  1.00  0.00     0.032 A 
BRANCH   9  15
HETATM   15  C   UNL     1      37.392 -11.912  -1.234  1.00  0.00     0.270 C 
HETATM   16  N   UNL     1      37.322 -10.653  -1.767  1.00  0.00    -0.365 N 
HETATM   17  H   UNL     1      37.750 -10.483  -2.670  1.00  0.00     0.159 HD
HETATM   18  H   UNL     1      36.879  -9.914  -1.245  1.00  0.00     0.159 HD
HETATM   19  O   UNL     1      36.912 -12.162  -0.135  1.00  0.00    -0.266 OA
ENDBRANCH   9  15
ENDBRANCH   2   5
BRANCH   1  20
HETATM   20  C   UNL     1      42.140 -15.975   2.931  1.00  0.00     0.107 C 
HETATM   21  C   UNL     1      43.083 -14.791   2.698  1.00  0.00     0.025 C 
BRANCH  20  22
HETATM   22  C   UNL     1      42.855 -17.291   3.214  1.00  0.00    -0.044 A 
HETATM   23  C   UNL     1      42.824 -18.378   2.322  1.00  0.00     0.020 A 
HETATM   24  C   UNL     1      43.463 -19.594   2.622  1.00  0.00    -0.025 A 
HETATM   25  C   UNL     1      44.165 -19.725   3.839  1.00  0.00    -0.026 A 
HETATM   26  C   UNL     1      43.416 -20.682   1.735  1.00  0.00     0.012 A 
HETATM   27  C   UNL     1      44.200 -18.642   4.728  1.00  0.00     0.013 A 
HETATM   28  C   UNL     1      44.811 -20.937   4.133  1.00  0.00     0.012 A 
HETATM   29  C   UNL     1      43.546 -17.445   4.424  1.00  0.00     0.009 A 
HETATM   30  C   UNL     1      44.757 -22.009   3.241  1.00  0.00     0.001 A 
HETATM   31  C   UNL     1      44.058 -21.883   2.044  1.00  0.00     0.001 A 
ENDBRANCH  20  22
ENDBRANCH   1  20
TORSDOF 4
ENDMDL
MODEL 6
REMARK VINA RESULT:      -8.9      1.542      2.481
REMARK  4 active torsions:
REMARK  status: ('A' for Active; 'I' for Inactive)
REMARK    1  A    between atoms: C_2  and  C_3 
REMARK    2  A    between atoms: C_2  and  C_19 
REMARK       I    between atoms: C_3  and  N_4 
REMARK    3  A    between atoms: N_4  and  C_5 
REMARK    4  A    between atoms: C_12  and  C_13 
REMARK       I    between atoms: C_13  and  N_14 
ROOT
HETATM    1  C   UNL     1      42.982 -15.451   2.763  1.00  0.00     0.230 C 
HETATM    2  N   UNL     1      41.666 -15.425   3.191  1.00  0.00    -0.327 N 
HETATM    3  O   UNL     1      43.797 -14.545   2.923  1.00  0.00    -0.272 OA
HETATM    4  H   UNL     1      41.182 -16.313   3.219  1.00  0.00     0.169 HD
ENDROOT
BRANCH   2   5
HETATM    5  C   UNL     1      40.955 -14.325   3.712  1.00  0.00     0.035 A 
HETATM    6  C   UNL     1      40.157 -13.479   2.929  1.00  0.00     0.046 A 
HETATM    7  C   UNL     1      39.427 -12.440   3.549  1.00  0.00     0.030 A 
HETATM    8  C   UNL     1      39.535 -12.273   4.924  1.00  0.00     0.063 A 
HETATM    9  C   UNL     1      38.513 -11.428   3.125  1.00  0.00     0.156 A 
HETATM   10  N   UNL     1      38.735 -11.207   5.224  1.00  0.00    -0.277 N 
HETATM   11  C   UNL     1      40.325 -13.093   5.733  1.00  0.00     0.034 A 
HETATM   12  H   UNL     1      38.574 -10.798   6.138  1.00  0.00     0.189 HD
HETATM   13  N   UNL     1      38.097 -10.674   4.169  1.00  0.00    -0.168 NA
HETATM   14  C   UNL     1      41.023 -14.127   5.098  1.00  0.00     0.032 A 
BRANCH   9  15
HETATM   15  C   UNL     1      38.019 -11.179   1.763  1.00  0.00     0.270 C 
HETATM   16  N   UNL     1      36.761 -11.666   1.529  1.00  0.00    -0.365 N 
HETATM   17  H   UNL     1      36.284 -12.156   2.276  1.00  0.00     0.159 HD
HETATM   18  H   UNL     1      36.347 -11.558   0.618  1.00  0.00     0.159 HD
HETATM   19  O   UNL     1      38.649 -10.601   0.885  1.00  0.00    -0.266 OA
ENDBRANCH   9  15
ENDBRANCH   2   5
BRANCH   1  20
HETATM   20  C   UNL     1      43.373 -16.687   1.935  1.00  0.00     0.107 C 
HETATM   21  C   UNL     1      42.264 -16.947   0.911  1.00  0.00     0.025 C 
BRANCH  20  22
HETATM   22  C   UNL     1      43.756 -17.909   2.761  1.00  0.00    -0.044 A 
HETATM   23  C   UNL     1      43.887 -19.192   2.199  1.00  0.00     0.020 A 
HETATM   24  C   UNL     1      44.208 -20.310   2.988  1.00  0.00    -0.025 A 
HETATM   25  C   UNL     1      44.419 -20.143   4.374  1.00  0.00    -0.026 A 
HETATM   26  C   UNL     1      44.323 -21.593   2.427  1.00  0.00     0.012 A 
HETATM   27  C   UNL     1      44.291 -18.864   4.934  1.00  0.00     0.013 A 
HETATM   28  C   UNL     1      44.748 -21.260   5.159  1.00  0.00     0.012 A 
HETATM   29  C   UNL     1      43.955 -17.764   4.141  1.00  0.00     0.009 A 
HETATM   30  C   UNL     1      44.860 -22.527   4.586  1.00  0.00     0.001 A 
HETATM   31  C   UNL     1      44.645 -22.694   3.221  1.00  0.00     0.001 A 
ENDBRANCH  20  22
ENDBRANCH   1  20
TORSDOF 4
ENDMDL
MODEL 7
REMARK VINA RESULT:      -8.8      3.279      5.298
REMARK  4 active torsions:
REMARK  status: ('A' for Active; 'I' for Inactive)
REMARK    1  A    between atoms: C_2  and  C_3 
REMARK    2  A    between atoms: C_2  and  C_19 
REMARK       I    between atoms: C_3  and  N_4 
REMARK    3  A    between atoms: N_4  and  C_5 
REMARK    4  A    between atoms: C_12  and  C_13 
REMARK       I    between atoms: C_13  and  N_14 
ROOT
HETATM    1  C   UNL     1      42.847 -15.372   2.963  1.00  0.00     0.230 C 
HETATM    2  N   UNL     1      41.752 -14.796   2.343  1.00  0.00    -0.327 N 
HETATM    3  O   UNL     1      44.022 -15.113   2.709  1.00  0.00    -0.272 OA
HETATM    4  H   UNL     1      40.860 -14.907   2.807  1.00  0.00     0.169 HD
ENDROOT
BRANCH   2   5
HETATM    5  C   UNL     1      41.748 -13.966   1.204  1.00  0.00     0.035 A 
HETATM    6  C   UNL     1      41.391 -14.411  -0.076  1.00  0.00     0.046 A 
HETATM    7  C   UNL     1      41.353 -13.491  -1.147  1.00  0.00     0.030 A 
HETATM    8  C   UNL     1      41.690 -12.165  -0.905  1.00  0.00     0.063 A 
HETATM    9  C   UNL     1      41.019 -13.539  -2.535  1.00  0.00     0.156 A 
HETATM   10  N   UNL     1      41.568 -11.533  -2.110  1.00  0.00    -0.277 N 
HETATM   11  C   UNL     1      42.057 -11.690   0.355  1.00  0.00     0.034 A 
HETATM   12  H   UNL     1      41.740 -10.554  -2.310  1.00  0.00     0.189 HD
HETATM   13  N   UNL     1      41.159 -12.324  -3.116  1.00  0.00    -0.168 NA
HETATM   14  C   UNL     1      42.069 -12.616   1.404  1.00  0.00     0.032 A 
BRANCH   9  15
HETATM   15  C   UNL     1      40.558 -14.701  -3.308  1.00  0.00     0.270 C 
HETATM   16  N   UNL     1      39.374 -14.500  -3.965  1.00  0.00    -0.365 N 
HETATM   17  H   UNL     1      38.911 -13.604  -3.866  1.00  0.00     0.159 HD
HETATM   18  H   UNL     1      38.971 -15.247  -4.506  1.00  0.00     0.159 HD
HETATM   19  O   UNL     1      41.146 -15.775  -3.375  1.00  0.00    -0.266 OA
ENDBRANCH   9  15
ENDBRANCH   2   5
BRANCH   1  20
HETATM   20  C   UNL     1      42.516 -16.492   3.964  1.00  0.00     0.107 C 
HETATM   21  C   UNL     1      43.014 -16.061   5.346  1.00  0.00     0.025 C 
BRANCH  20  22
HETATM   22  C   UNL     1      42.982 -17.880   3.540  1.00  0.00    -0.044 A 
HETATM   23  C   UNL     1      43.552 -18.796   4.443  1.00  0.00     0.020 A 
HETATM   24  C   UNL     1      44.005 -20.058   4.020  1.00  0.00    -0.025 A 
HETATM   25  C   UNL     1      43.874 -20.423   2.663  1.00  0.00    -0.026 A 
HETATM   26  C   UNL     1      44.588 -20.964   4.922  1.00  0.00     0.012 A 
HETATM   27  C   UNL     1      43.304 -19.512   1.763  1.00  0.00     0.013 A 
HETATM   28  C   UNL     1      44.320 -21.688   2.245  1.00  0.00     0.012 A 
HETATM   29  C   UNL     1      42.873 -18.254   2.194  1.00  0.00     0.009 A 
HETATM   30  C   UNL     1      44.895 -22.577   3.153  1.00  0.00     0.001 A 
HETATM   31  C   UNL     1      45.031 -22.215   4.490  1.00  0.00     0.001 A 
ENDBRANCH  20  22
ENDBRANCH   1  20
TORSDOF 4
ENDMDL
MODEL 8
REMARK VINA RESULT:      -8.7      2.168      2.648
REMARK  4 active torsions:
REMARK  status: ('A' for Active; 'I' for Inactive)
REMARK    1  A    between atoms: C_2  and  C_3 
REMARK    2  A    between atoms: C_2  and  C_19 
REMARK       I    between atoms: C_3  and  N_4 
REMARK    3  A    between atoms: N_4  and  C_5 
REMARK    4  A    between atoms: C_12  and  C_13 
REMARK       I    between atoms: C_13  and  N_14 
ROOT
HETATM    1  C   UNL     1      42.291 -14.542   3.063  1.00  0.00     0.230 C 
HETATM    2  N   UNL     1      41.376 -14.099   4.002  1.00  0.00    -0.327 N 
HETATM    3  O   UNL     1      43.297 -13.929   2.710  1.00  0.00    -0.272 OA
HETATM    4  H   UNL     1      40.743 -14.792   4.379  1.00  0.00     0.169 HD
ENDROOT
BRANCH   2   5
HETATM    5  C   UNL     1      41.299 -12.819   4.589  1.00  0.00     0.035 A 
HETATM    6  C   UNL     1      41.782 -12.526   5.872  1.00  0.00     0.046 A 
HETATM    7  C   UNL     1      41.721 -11.199   6.351  1.00  0.00     0.030 A 
HETATM    8  C   UNL     1      41.164 -10.218   5.541  1.00  0.00     0.063 A 
HETATM    9  C   UNL     1      42.122 -10.513   7.539  1.00  0.00     0.156 A 
HETATM   10  N   UNL     1      41.239  -9.062   6.266  1.00  0.00    -0.277 N 
HETATM   11  C   UNL     1      40.668 -10.476   4.262  1.00  0.00     0.034 A 
HETATM   12  H   UNL     1      40.922  -8.140   5.987  1.00  0.00     0.189 HD
HETATM   13  N   UNL     1      41.815  -9.196   7.471  1.00  0.00    -0.168 NA
HETATM   14  C   UNL     1      40.757 -11.795   3.801  1.00  0.00     0.032 A 
BRANCH   9  15
HETATM   15  C   UNL     1      42.799 -11.077   8.715  1.00  0.00     0.270 C 
HETATM   16  N   UNL     1      42.049 -11.040   9.860  1.00  0.00    -0.365 N 
HETATM   17  H   UNL     1      41.123 -10.631   9.820  1.00  0.00     0.159 HD
HETATM   18  H   UNL     1      42.437 -11.387  10.722  1.00  0.00     0.159 HD
HETATM   19  O   UNL     1      43.934 -11.538   8.716  1.00  0.00    -0.266 OA
ENDBRANCH   9  15
ENDBRANCH   2   5
BRANCH   1  20
HETATM   20  C   UNL     1      41.920 -15.859   2.362  1.00  0.00     0.107 C 
HETATM   21  C   UNL     1      40.395 -16.000   2.386  1.00  0.00     0.025 C 
BRANCH  20  22
HETATM   22  C   UNL     1      42.666 -17.085   2.875  1.00  0.00    -0.044 A 
HETATM   23  C   UNL     1      42.815 -18.257   2.111  1.00  0.00     0.020 A 
HETATM   24  C   UNL     1      43.478 -19.386   2.621  1.00  0.00    -0.025 A 
HETATM   25  C   UNL     1      44.021 -19.343   3.923  1.00  0.00    -0.026 A 
HETATM   26  C   UNL     1      43.612 -20.560   1.861  1.00  0.00     0.012 A 
HETATM   27  C   UNL     1      43.876 -18.174   4.685  1.00  0.00     0.013 A 
HETATM   28  C   UNL     1      44.691 -20.469   4.427  1.00  0.00     0.012 A 
HETATM   29  C   UNL     1      43.199 -17.064   4.172  1.00  0.00     0.009 A 
HETATM   30  C   UNL     1      44.817 -21.628   3.659  1.00  0.00     0.001 A 
HETATM   31  C   UNL     1      44.276 -21.674   2.378  1.00  0.00     0.001 A 
ENDBRANCH  20  22
ENDBRANCH   1  20
TORSDOF 4
ENDMDL
MODEL 9
REMARK VINA RESULT:      -8.6      3.694      5.079
REMARK  4 active torsions:
REMARK  status: ('A' for Active; 'I' for Inactive)
REMARK    1  A    between atoms: C_2  and  C_3 
REMARK    2  A    between atoms: C_2  and  C_19 
REMARK       I    between atoms: C_3  and  N_4 
REMARK    3  A    between atoms: N_4  and  C_5 
REMARK    4  A    between atoms: C_12  and  C_13 
REMARK       I    between atoms: C_13  and  N_14 
ROOT
HETATM    1  C   UNL     1      41.466 -16.065   1.611  1.00  0.00     0.230 C 
HETATM    2  N   UNL     1      42.043 -15.557   0.460  1.00  0.00    -0.327 N 
HETATM    3  O   UNL     1      40.260 -16.229   1.785  1.00  0.00    -0.272 OA
HETATM    4  H   UNL     1      43.038 -15.704   0.350  1.00  0.00     0.169 HD
ENDROOT
BRANCH   2   5
HETATM    5  C   UNL     1      41.389 -14.964  -0.639  1.00  0.00     0.035 A 
HETATM    6  C   UNL     1      41.082 -13.598  -0.712  1.00  0.00     0.046 A 
HETATM    7  C   UNL     1      40.484 -13.081  -1.883  1.00  0.00     0.030 A 
HETATM    8  C   UNL     1      40.197 -13.949  -2.929  1.00  0.00     0.063 A 
HETATM    9  C   UNL     1      40.066 -11.796  -2.345  1.00  0.00     0.156 A 
HETATM   10  N   UNL     1      39.629 -13.173  -3.899  1.00  0.00    -0.277 N 
HETATM   11  C   UNL     1      40.482 -15.315  -2.887  1.00  0.00     0.034 A 
HETATM   12  H   UNL     1      39.290 -13.474  -4.806  1.00  0.00     0.189 HD
HETATM   13  N   UNL     1      39.538 -11.870  -3.589  1.00  0.00    -0.168 NA
HETATM   14  C   UNL     1      41.092 -15.800  -1.724  1.00  0.00     0.032 A 
BRANCH   9  15
HETATM   15  C   UNL     1      40.173 -10.511  -1.640  1.00  0.00     0.270 C 
HETATM   16  N   UNL     1      39.277 -10.360  -0.616  1.00  0.00    -0.365 N 
HETATM   17  H   UNL     1      38.621 -11.110  -0.432  1.00  0.00     0.159 HD
HETATM   18  H   UNL     1      39.264  -9.504  -0.087  1.00  0.00     0.159 HD
HETATM   19  O   UNL     1      40.971  -9.623  -1.919  1.00  0.00    -0.266 OA
ENDBRANCH   9  15
ENDBRANCH   2   5
BRANCH   1  20
HETATM   20  C   UNL     1      42.443 -16.330   2.768  1.00  0.00     0.107 C 
HETATM   21  C   UNL     1      43.543 -15.265   2.718  1.00  0.00     0.025 C 
BRANCH  20  22
HETATM   22  C   UNL     1      42.965 -17.760   2.844  1.00  0.00    -0.044 A 
HETATM   23  C   UNL     1      43.359 -18.360   4.054  1.00  0.00     0.020 A 
HETATM   24  C   UNL     1      43.869 -19.669   4.094  1.00  0.00    -0.025 A 
HETATM   25  C   UNL     1      43.976 -20.407   2.896  1.00  0.00    -0.026 A 
HETATM   26  C   UNL     1      44.276 -20.259   5.302  1.00  0.00     0.012 A 
HETATM   27  C   UNL     1      43.581 -19.811   1.689  1.00  0.00     0.013 A 
HETATM   28  C   UNL     1      44.478 -21.718   2.938  1.00  0.00     0.012 A 
HETATM   29  C   UNL     1      43.092 -18.503   1.662  1.00  0.00     0.009 A 
HETATM   30  C   UNL     1      44.877 -22.291   4.146  1.00  0.00     0.001 A 
HETATM   31  C   UNL     1      44.778 -21.561   5.327  1.00  0.00     0.001 A 
ENDBRANCH  20  22
ENDBRANCH   1  20
TORSDOF 4
ENDMDL
MODEL 10
REMARK VINA RESULT:      -8.5      3.556      8.070
REMARK  4 active torsions:
REMARK  status: ('A' for Active; 'I' for Inactive)
REMARK    1  A    between atoms: C_2  and  C_3 
REMARK    2  A    between atoms: C_2  and  C_19 
REMARK       I    between atoms: C_3  and  N_4 
REMARK    3  A    between atoms: N_4  and  C_5 
REMARK    4  A    between atoms: C_12  and  C_13 
REMARK       I    between atoms: C_13  and  N_14 
ROOT
HETATM    1  C   UNL     1      41.659 -15.286   3.069  1.00  0.00     0.230 C 
HETATM    2  N   UNL     1      42.956 -15.753   2.951  1.00  0.00    -0.327 N 
HETATM    3  O   UNL     1      40.730 -15.898   3.593  1.00  0.00    -0.272 OA
HETATM    4  H   UNL     1      43.665 -15.067   2.731  1.00  0.00     0.169 HD
ENDROOT
BRANCH   2   5
HETATM    5  C   UNL     1      43.428 -17.054   3.222  1.00  0.00     0.035 A 
HETATM    6  C   UNL     1      43.552 -17.578   4.516  1.00  0.00     0.046 A 
HETATM    7  C   UNL     1      43.972 -18.916   4.688  1.00  0.00     0.030 A 
HETATM    8  C   UNL     1      44.270 -19.675   3.563  1.00  0.00     0.063 A 
HETATM    9  C   UNL     1      44.182 -19.796   5.792  1.00  0.00     0.156 A 
HETATM   10  N   UNL     1      44.645 -20.899   4.039  1.00  0.00    -0.277 N 
HETATM   11  C   UNL     1      44.164 -19.182   2.260  1.00  0.00     0.034 A 
HETATM   12  H   UNL     1      44.936 -21.705   3.498  1.00  0.00     0.189 HD
HETATM   13  N   UNL     1      44.599 -21.015   5.376  1.00  0.00    -0.168 NA
HETATM   14  C   UNL     1      43.727 -17.860   2.116  1.00  0.00     0.032 A 
BRANCH   9  15
HETATM   15  C   UNL     1      43.978 -19.509   7.219  1.00  0.00     0.270 C 
HETATM   16  N   UNL     1      43.528 -20.580   7.944  1.00  0.00    -0.365 N 
HETATM   17  H   UNL     1      43.361 -21.456   7.463  1.00  0.00     0.159 HD
HETATM   18  H   UNL     1      43.342 -20.473   8.928  1.00  0.00     0.159 HD
HETATM   19  O   UNL     1      44.172 -18.421   7.750  1.00  0.00    -0.266 OA
ENDBRANCH   9  15
ENDBRANCH   2   5
BRANCH   1  20
HETATM   20  C   UNL     1      41.387 -13.938   2.382  1.00  0.00     0.107 C 
HETATM   21  C   UNL     1      40.727 -13.005   3.401  1.00  0.00     0.025 C 
BRANCH  20  22
HETATM   22  C   UNL     1      40.638 -14.040   1.058  1.00  0.00    -0.044 A 
HETATM   23  C   UNL     1      41.104 -14.815  -0.019  1.00  0.00     0.020 A 
HETATM   24  C   UNL     1      40.413 -14.866  -1.242  1.00  0.00    -0.025 A 
HETATM   25  C   UNL     1      39.215 -14.135  -1.392  1.00  0.00    -0.026 A 
HETATM   26  C   UNL     1      40.890 -15.629  -2.321  1.00  0.00     0.012 A 
HETATM   27  C   UNL     1      38.748 -13.363  -0.318  1.00  0.00     0.013 A 
HETATM   28  C   UNL     1      38.521 -14.193  -2.611  1.00  0.00     0.012 A 
HETATM   29  C   UNL     1      39.454 -13.309   0.887  1.00  0.00     0.009 A 
HETATM   30  C   UNL     1      39.007 -14.957  -3.673  1.00  0.00     0.001 A 
HETATM   31  C   UNL     1      40.192 -15.673  -3.528  1.00  0.00     0.001 A 
ENDBRANCH  20  22
ENDBRANCH   1  20
TORSDOF 4
ENDMDL
