MODEL 1
REMARK VINA RESULT:      -8.4      0.000      0.000
REMARK  5 active torsions:
REMARK  status: ('A' for Active; 'I' for Inactive)
REMARK    1  A    between atoms: C_2  and  O_3 
REMARK    2  A    between atoms: O_3  and  C_4 
REMARK    3  A    between atoms: C_4  and  C_5 
REMARK    4  A    between atoms: C_6  and  N_7 
REMARK    5  A    between atoms: N_8  and  C_9 
ROOT
HETATM    1  C   UNL     1      43.560 -15.520   5.397  1.00  0.00     0.084 A 
HETATM    2  C   UNL     1      43.285 -15.517   3.998  1.00  0.00     0.119 A 
HETATM    3  N   UNL     1      43.339 -16.711   3.312  1.00  0.00    -0.312 N 
HETATM    4  C   UNL     1      43.712 -17.864   3.960  1.00  0.00     0.150 A 
HETATM    5  C   UNL     1      44.007 -17.858   5.314  1.00  0.00     0.080 A 
HETATM    6  C   UNL     1      44.400 -19.123   5.950  1.00  0.00     0.267 A 
HETATM    7  O   UNL     1      44.671 -19.103   7.147  1.00  0.00    -0.267 OA
HETATM    8  N   UNL     1      44.436 -20.248   5.130  1.00  0.00    -0.272 N 
HETATM    9  C   UNL     1      44.120 -20.152   3.778  1.00  0.00     0.145 A 
HETATM   10  N   UNL     1      43.779 -19.036   3.206  1.00  0.00    -0.211 NA
HETATM   11  C   UNL     1      44.796 -21.465   5.696  1.00  0.00     0.102 A 
HETATM   12  C   UNL     1      44.854 -22.589   4.973  1.00  0.00     0.018 A 
HETATM   13  C   UNL     1      44.538 -22.557   3.572  1.00  0.00     0.012 A 
HETATM   14  C   UNL     1      44.184 -21.414   2.964  1.00  0.00    -0.015 A 
HETATM   15  C   UNL     1      43.845 -21.335   1.508  1.00  0.00     0.052 C 
HETATM   16  C   UNL     1      43.931 -16.689   6.050  1.00  0.00     0.042 A 
ENDROOT
BRANCH   1  17
HETATM   17  C   UNL     1      43.512 -14.241   6.155  1.00  0.00     0.297 C 
HETATM   18  O   UNL     1      42.528 -13.521   6.162  1.00  0.00    -0.259 OA
BRANCH  17  19
HETATM   19  O   UNL     1      44.672 -14.050   6.821  1.00  0.00    -0.318 OA
BRANCH  19  20
HETATM   20  C   UNL     1      44.591 -13.266   8.026  1.00  0.00     0.174 C 
HETATM   21  C   UNL     1      45.905 -12.543   8.250  1.00  0.00     0.034 C 
ENDBRANCH  19  20
ENDBRANCH  17  19
ENDBRANCH   1  17
BRANCH   2  22
HETATM   22  N   UNL     1      42.848 -14.337   3.396  1.00  0.00    -0.384 N 
HETATM   23  H   UNL     1      43.534 -13.568   3.420  1.00  0.00     0.157 HD
HETATM   24  H   UNL     1      42.285 -14.300   2.562  1.00  0.00     0.157 HD
ENDBRANCH   2  22
BRANCH   3  25
HETATM   25  C   UNL     1      42.988 -16.815   1.843  1.00  0.00     0.085 C 
HETATM   26  C   UNL     1      44.105 -17.468   1.037  1.00  0.00     0.032 C 
HETATM   27  C   UNL     1      41.599 -17.413   1.654  1.00  0.00     0.032 C 
ENDBRANCH   3  25
TORSDOF 5
ENDMDL
MODEL 2
REMARK VINA RESULT:      -8.2      2.709      7.030
REMARK  5 active torsions:
REMARK  status: ('A' for Active; 'I' for Inactive)
REMARK    1  A    between atoms: C_2  and  O_3 
REMARK    2  A    between atoms: O_3  and  C_4 
REMARK    3  A    between atoms: C_4  and  C_5 
REMARK    4  A    between atoms: C_6  and  N_7 
REMARK    5  A    between atoms: N_8  and  C_9 
ROOT
HETATM    1  C   UNL     1      43.853 -19.092   4.428  1.00  0.00     0.084 A 
HETATM    2  C   UNL     1      44.063 -18.243   5.554  1.00  0.00     0.119 A 
HETATM    3  N   UNL     1      43.333 -17.077   5.647  1.00  0.00    -0.312 N 
HETATM    4  C   UNL     1      42.471 -16.720   4.639  1.00  0.00     0.150 A 
HETATM    5  C   UNL     1      42.291 -17.533   3.531  1.00  0.00     0.080 A 
HETATM    6  C   UNL     1      41.355 -17.096   2.486  1.00  0.00     0.267 A 
HETATM    7  O   UNL     1      41.214 -17.818   1.504  1.00  0.00    -0.267 OA
HETATM    8  N   UNL     1      40.705 -15.884   2.699  1.00  0.00    -0.272 N 
HETATM    9  C   UNL     1      40.952 -15.138   3.848  1.00  0.00     0.145 A 
HETATM   10  N   UNL     1      41.784 -15.513   4.773  1.00  0.00    -0.211 NA
HETATM   11  C   UNL     1      39.806 -15.439   1.737  1.00  0.00     0.102 A 
HETATM   12  C   UNL     1      39.144 -14.285   1.870  1.00  0.00     0.018 A 
HETATM   13  C   UNL     1      39.353 -13.469   3.034  1.00  0.00     0.012 A 
HETATM   14  C   UNL     1      40.208 -13.840   4.000  1.00  0.00    -0.015 A 
HETATM   15  C   UNL     1      40.456 -13.023   5.229  1.00  0.00     0.052 C 
HETATM   16  C   UNL     1      42.976 -18.730   3.413  1.00  0.00     0.042 A 
ENDROOT
BRANCH   1  17
HETATM   17  C   UNL     1      44.633 -20.352   4.306  1.00  0.00     0.297 C 
HETATM   18  O   UNL     1      44.853 -21.080   5.260  1.00  0.00    -0.259 OA
BRANCH  17  19
HETATM   19  O   UNL     1      45.003 -20.550   3.023  1.00  0.00    -0.318 OA
BRANCH  19  20
HETATM   20  C   UNL     1      44.761 -21.864   2.486  1.00  0.00     0.174 C 
HETATM   21  C   UNL     1      43.651 -21.795   1.456  1.00  0.00     0.034 C 
ENDBRANCH  19  20
ENDBRANCH  17  19
ENDBRANCH   1  17
BRANCH   2  22
HETATM   22  N   UNL     1      44.898 -18.676   6.584  1.00  0.00    -0.384 N 
HETATM   23  H   UNL     1      45.500 -19.474   6.334  1.00  0.00     0.157 HD
HETATM   24  H   UNL     1      45.353 -18.065   7.241  1.00  0.00     0.157 HD
ENDBRANCH   2  22
BRANCH   3  25
HETATM   25  C   UNL     1      43.434 -16.154   6.842  1.00  0.00     0.085 C 
HETATM   26  C   UNL     1      43.292 -16.912   8.158  1.00  0.00     0.032 C 
HETATM   27  C   UNL     1      44.652 -15.246   6.731  1.00  0.00     0.032 C 
ENDBRANCH   3  25
TORSDOF 5
ENDMDL
MODEL 3
REMARK VINA RESULT:      -7.9      1.656      2.240
REMARK  5 active torsions:
REMARK  status: ('A' for Active; 'I' for Inactive)
REMARK    1  A    between atoms: C_2  and  O_3 
REMARK    2  A    between atoms: O_3  and  C_4 
REMARK    3  A    between atoms: C_4  and  C_5 
REMARK    4  A    between atoms: C_6  and  N_7 
REMARK    5  A    between atoms: N_8  and  C_9 
ROOT
HETATM    1  C   UNL     1      42.254 -16.013   4.977  1.00  0.00     0.084 A 
HETATM    2  C   UNL     1      42.048 -16.163   3.574  1.00  0.00     0.119 A 
HETATM    3  N   UNL     1      42.406 -17.354   2.978  1.00  0.00    -0.312 N 
HETATM    4  C   UNL     1      43.004 -18.344   3.718  1.00  0.00     0.150 A 
HETATM    5  C   UNL     1      43.229 -18.184   5.076  1.00  0.00     0.080 A 
HETATM    6  C   UNL     1      43.873 -19.280   5.813  1.00  0.00     0.267 A 
HETATM    7  O   UNL     1      44.078 -19.122   7.012  1.00  0.00    -0.267 OA
HETATM    8  N   UNL     1      44.203 -20.416   5.078  1.00  0.00    -0.272 N 
HETATM    9  C   UNL     1      43.935 -20.482   3.714  1.00  0.00     0.145 A 
HETATM   10  N   UNL     1      43.373 -19.514   3.053  1.00  0.00    -0.211 NA
HETATM   11  C   UNL     1      44.808 -21.477   5.741  1.00  0.00     0.102 A 
HETATM   12  C   UNL     1      45.155 -22.600   5.103  1.00  0.00     0.018 A 
HETATM   13  C   UNL     1      44.903 -22.732   3.695  1.00  0.00     0.012 A 
HETATM   14  C   UNL     1      44.323 -21.744   2.996  1.00  0.00    -0.015 A 
HETATM   15  C   UNL     1      44.041 -21.838   1.529  1.00  0.00     0.052 C 
HETATM   16  C   UNL     1      42.853 -17.020   5.723  1.00  0.00     0.042 A 
ENDROOT
BRANCH   1  17
HETATM   17  C   UNL     1      41.879 -14.735   5.639  1.00  0.00     0.297 C 
HETATM   18  O   UNL     1      42.678 -13.831   5.815  1.00  0.00    -0.259 OA
BRANCH  17  19
HETATM   19  O   UNL     1      40.567 -14.743   5.960  1.00  0.00    -0.318 OA
BRANCH  19  20
HETATM   20  C   UNL     1      39.798 -13.607   5.523  1.00  0.00     0.174 C 
HETATM   21  C   UNL     1      39.455 -12.737   6.716  1.00  0.00     0.034 C 
ENDBRANCH  19  20
ENDBRANCH  17  19
ENDBRANCH   1  17
BRANCH   2  22
HETATM   22  N   UNL     1      41.379 -15.158   2.875  1.00  0.00    -0.384 N 
HETATM   23  H   UNL     1      41.980 -14.374   2.580  1.00  0.00     0.157 HD
HETATM   24  H   UNL     1      40.639 -15.323   2.213  1.00  0.00     0.157 HD
ENDBRANCH   2  22
BRANCH   3  25
HETATM   25  C   UNL     1      42.154 -17.629   1.511  1.00  0.00     0.085 C 
HETATM   26  C   UNL     1      40.682 -17.473   1.148  1.00  0.00     0.032 C 
HETATM   27  C   UNL     1      43.137 -16.862   0.635  1.00  0.00     0.032 C 
ENDBRANCH   3  25
TORSDOF 5
ENDMDL
MODEL 4
REMARK VINA RESULT:      -7.6      2.969      5.262
REMARK  5 active torsions:
REMARK  status: ('A' for Active; 'I' for Inactive)
REMARK    1  A    between atoms: C_2  and  O_3 
REMARK    2  A    between atoms: O_3  and  C_4 
REMARK    3  A    between atoms: C_4  and  C_5 
REMARK    4  A    between atoms: C_6  and  N_7 
REMARK    5  A    between atoms: N_8  and  C_9 
ROOT
HETATM    1  C   UNL     1      41.933 -15.019   1.551  1.00  0.00     0.084 A 
HETATM    2  C   UNL     1      41.646 -14.579   2.877  1.00  0.00     0.119 A 
HETATM    3  N   UNL     1      42.039 -15.370   3.935  1.00  0.00    -0.312 N 
HETATM    4  C   UNL     1      42.638 -16.584   3.704  1.00  0.00     0.150 A 
HETATM    5  C   UNL     1      42.890 -17.022   2.413  1.00  0.00     0.080 A 
HETATM    6  C   UNL     1      43.533 -18.331   2.231  1.00  0.00     0.267 A 
HETATM    7  O   UNL     1      43.740 -18.713   1.083  1.00  0.00    -0.267 OA
HETATM    8  N   UNL     1      43.854 -19.034   3.389  1.00  0.00    -0.272 N 
HETATM    9  C   UNL     1      43.561 -18.508   4.643  1.00  0.00     0.145 A 
HETATM   10  N   UNL     1      42.985 -17.356   4.813  1.00  0.00    -0.211 NA
HETATM   11  C   UNL     1      44.470 -20.273   3.259  1.00  0.00     0.102 A 
HETATM   12  C   UNL     1      44.807 -21.008   4.324  1.00  0.00     0.018 A 
HETATM   13  C   UNL     1      44.534 -20.520   5.647  1.00  0.00     0.012 A 
HETATM   14  C   UNL     1      43.940 -19.332   5.842  1.00  0.00    -0.015 A 
HETATM   15  C   UNL     1      43.637 -18.784   7.202  1.00  0.00     0.052 C 
HETATM   16  C   UNL     1      42.545 -16.245   1.322  1.00  0.00     0.042 A 
ENDROOT
BRANCH   1  17
HETATM   17  C   UNL     1      41.514 -14.182   0.396  1.00  0.00     0.297 C 
HETATM   18  O   UNL     1      42.032 -13.107   0.143  1.00  0.00    -0.259 OA
BRANCH  17  19
HETATM   19  O   UNL     1      40.538 -14.804  -0.301  1.00  0.00    -0.318 OA
BRANCH  19  20
HETATM   20  C   UNL     1      40.432 -14.458  -1.695  1.00  0.00     0.174 C 
HETATM   21  C   UNL     1      40.935 -15.610  -2.542  1.00  0.00     0.034 C 
ENDBRANCH  19  20
ENDBRANCH  17  19
ENDBRANCH   1  17
BRANCH   2  22
HETATM   22  N   UNL     1      41.095 -13.311   3.066  1.00  0.00    -0.384 N 
HETATM   23  H   UNL     1      41.548 -12.565   2.517  1.00  0.00     0.157 HD
HETATM   24  H   UNL     1      40.113 -13.131   3.189  1.00  0.00     0.157 HD
ENDBRANCH   2  22
BRANCH   3  25
HETATM   25  C   UNL     1      41.844 -14.947   5.375  1.00  0.00     0.085 C 
HETATM   26  C   UNL     1      42.698 -13.736   5.732  1.00  0.00     0.032 C 
HETATM   27  C   UNL     1      40.363 -14.837   5.717  1.00  0.00     0.032 C 
ENDBRANCH   3  25
TORSDOF 5
ENDMDL
MODEL 5
REMARK VINA RESULT:      -7.5      4.893      7.695
REMARK  5 active torsions:
REMARK  status: ('A' for Active; 'I' for Inactive)
REMARK    1  A    between atoms: C_2  and  O_3 
REMARK    2  A    between atoms: O_3  and  C_4 
REMARK    3  A    between atoms: C_4  and  C_5 
REMARK    4  A    between atoms: C_6  and  N_7 
REMARK    5  A    between atoms: N_8  and  C_9 
ROOT
HETATM    1  C   UNL     1      40.776 -15.316  -1.325  1.00  0.00     0.084 A 
HETATM    2  C   UNL     1      40.104 -14.179  -0.787  1.00  0.00     0.119 A 
HETATM    3  N   UNL     1      40.033 -14.041   0.583  1.00  0.00    -0.312 N 
HETATM    4  C   UNL     1      40.547 -15.016   1.403  1.00  0.00     0.150 A 
HETATM    5  C   UNL     1      41.173 -16.135   0.876  1.00  0.00     0.080 A 
HETATM    6  C   UNL     1      41.702 -17.144   1.806  1.00  0.00     0.267 A 
HETATM    7  O   UNL     1      42.243 -18.135   1.327  1.00  0.00    -0.267 OA
HETATM    8  N   UNL     1      41.538 -16.886   3.164  1.00  0.00    -0.272 N 
HETATM    9  C   UNL     1      40.894 -15.730   3.595  1.00  0.00     0.145 A 
HETATM   10  N   UNL     1      40.416 -14.838   2.780  1.00  0.00    -0.211 NA
HETATM   11  C   UNL     1      42.031 -17.813   4.075  1.00  0.00     0.102 A 
HETATM   12  C   UNL     1      41.910 -17.636   5.395  1.00  0.00     0.018 A 
HETATM   13  C   UNL     1      41.257 -16.462   5.904  1.00  0.00     0.012 A 
HETATM   14  C   UNL     1      40.758 -15.530   5.079  1.00  0.00    -0.015 A 
HETATM   15  C   UNL     1      40.072 -14.292   5.565  1.00  0.00     0.052 C 
HETATM   16  C   UNL     1      41.299 -16.297  -0.492  1.00  0.00     0.042 A 
ENDROOT
BRANCH   1  17
HETATM   17  C   UNL     1      40.860 -15.486  -2.800  1.00  0.00     0.297 C 
HETATM   18  O   UNL     1      41.599 -14.808  -3.495  1.00  0.00    -0.259 OA
BRANCH  17  19
HETATM   19  O   UNL     1      40.047 -16.486  -3.202  1.00  0.00    -0.318 OA
BRANCH  19  20
HETATM   20  C   UNL     1      39.136 -16.175  -4.272  1.00  0.00     0.174 C 
HETATM   21  C   UNL     1      37.948 -15.412  -3.721  1.00  0.00     0.034 C 
ENDBRANCH  19  20
ENDBRANCH  17  19
ENDBRANCH   1  17
BRANCH   2  22
HETATM   22  N   UNL     1      39.656 -13.183  -1.654  1.00  0.00    -0.384 N 
HETATM   23  H   UNL     1      40.136 -12.277  -1.545  1.00  0.00     0.157 HD
HETATM   24  H   UNL     1      39.385 -13.342  -2.610  1.00  0.00     0.157 HD
ENDBRANCH   2  22
BRANCH   3  25
HETATM   25  C   UNL     1      39.407 -12.830   1.241  1.00  0.00     0.085 C 
HETATM   26  C   UNL     1      40.184 -11.554   0.938  1.00  0.00     0.032 C 
HETATM   27  C   UNL     1      37.909 -12.773   0.968  1.00  0.00     0.032 C 
ENDBRANCH   3  25
TORSDOF 5
ENDMDL
MODEL 6
REMARK VINA RESULT:      -7.3      2.705      6.421
REMARK  5 active torsions:
REMARK  status: ('A' for Active; 'I' for Inactive)
REMARK    1  A    between atoms: C_2  and  O_3 
REMARK    2  A    between atoms: O_3  and  C_4 
REMARK    3  A    between atoms: C_4  and  C_5 
REMARK    4  A    between atoms: C_6  and  N_7 
REMARK    5  A    between atoms: N_8  and  C_9 
ROOT
HETATM    1  C   UNL     1      43.444 -18.993   5.355  1.00  0.00     0.084 A 
HETATM    2  C   UNL     1      43.125 -17.844   6.136  1.00  0.00     0.119 A 
HETATM    3  N   UNL     1      42.569 -16.751   5.507  1.00  0.00    -0.312 N 
HETATM    4  C   UNL     1      42.388 -16.756   4.145  1.00  0.00     0.150 A 
HETATM    5  C   UNL     1      42.727 -17.864   3.384  1.00  0.00     0.080 A 
HETATM    6  C   UNL     1      42.510 -17.808   1.931  1.00  0.00     0.267 A 
HETATM    7  O   UNL     1      42.825 -18.790   1.267  1.00  0.00    -0.267 OA
HETATM    8  N   UNL     1      41.964 -16.631   1.428  1.00  0.00    -0.272 N 
HETATM    9  C   UNL     1      41.656 -15.571   2.276  1.00  0.00     0.145 A 
HETATM   10  N   UNL     1      41.852 -15.609   3.560  1.00  0.00    -0.211 NA
HETATM   11  C   UNL     1      41.737 -16.542   0.059  1.00  0.00     0.102 A 
HETATM   12  C   UNL     1      41.217 -15.444  -0.499  1.00  0.00     0.018 A 
HETATM   13  C   UNL     1      40.875 -14.315   0.322  1.00  0.00     0.012 A 
HETATM   14  C   UNL     1      41.070 -14.336   1.650  1.00  0.00    -0.015 A 
HETATM   15  C   UNL     1      40.727 -13.185   2.544  1.00  0.00     0.052 C 
HETATM   16  C   UNL     1      43.254 -18.997   3.978  1.00  0.00     0.042 A 
ENDROOT
BRANCH   1  17
HETATM   17  C   UNL     1      44.048 -20.182   6.014  1.00  0.00     0.297 C 
HETATM   18  O   UNL     1      43.664 -20.597   7.094  1.00  0.00    -0.259 OA
BRANCH  17  19
HETATM   19  O   UNL     1      45.017 -20.706   5.233  1.00  0.00    -0.318 OA
BRANCH  19  20
HETATM   20  C   UNL     1      45.049 -22.142   5.135  1.00  0.00     0.174 C 
HETATM   21  C   UNL     1      44.607 -22.566   3.749  1.00  0.00     0.034 C 
ENDBRANCH  19  20
ENDBRANCH  17  19
ENDBRANCH   1  17
BRANCH   2  22
HETATM   22  N   UNL     1      43.264 -17.907   7.523  1.00  0.00    -0.384 N 
HETATM   23  H   UNL     1      43.081 -17.016   8.008  1.00  0.00     0.157 HD
HETATM   24  H   UNL     1      42.989 -18.695   8.086  1.00  0.00     0.157 HD
ENDBRANCH   2  22
BRANCH   3  25
HETATM   25  C   UNL     1      42.129 -15.519   6.267  1.00  0.00     0.085 C 
HETATM   26  C   UNL     1      43.034 -14.324   5.986  1.00  0.00     0.032 C 
HETATM   27  C   UNL     1      40.635 -15.273   6.092  1.00  0.00     0.032 C 
ENDBRANCH   3  25
TORSDOF 5
ENDMDL
MODEL 7
REMARK VINA RESULT:      -7.2      3.378      7.679
REMARK  5 active torsions:
REMARK  status: ('A' for Active; 'I' for Inactive)
REMARK    1  A    between atoms: C_2  and  O_3 
REMARK    2  A    between atoms: O_3  and  C_4 
REMARK    3  A    between atoms: C_4  and  C_5 
REMARK    4  A    between atoms: C_6  and  N_7 
REMARK    5  A    between atoms: N_8  and  C_9 
ROOT
HETATM    1  C   UNL     1      42.961 -17.452   3.002  1.00  0.00     0.084 A 
HETATM    2  C   UNL     1      43.250 -17.223   4.379  1.00  0.00     0.119 A 
HETATM    3  N   UNL     1      42.603 -16.192   5.027  1.00  0.00    -0.312 N 
HETATM    4  C   UNL     1      41.747 -15.371   4.335  1.00  0.00     0.150 A 
HETATM    5  C   UNL     1      41.491 -15.578   2.988  1.00  0.00     0.080 A 
HETATM    6  C   UNL     1      40.566 -14.665   2.303  1.00  0.00     0.267 A 
HETATM    7  O   UNL     1      40.356 -14.851   1.109  1.00  0.00    -0.267 OA
HETATM    8  N   UNL     1      40.003 -13.652   3.076  1.00  0.00    -0.272 N 
HETATM    9  C   UNL     1      40.324 -13.527   4.424  1.00  0.00     0.145 A 
HETATM   10  N   UNL     1      41.147 -14.325   5.036  1.00  0.00    -0.211 NA
HETATM   11  C   UNL     1      39.118 -12.772   2.466  1.00  0.00     0.102 A 
HETATM   12  C   UNL     1      38.538 -11.774   3.141  1.00  0.00     0.018 A 
HETATM   13  C   UNL     1      38.826 -11.591   4.537  1.00  0.00     0.012 A 
HETATM   14  C   UNL     1      39.673 -12.406   5.186  1.00  0.00    -0.015 A 
HETATM   15  C   UNL     1      40.000 -12.254   6.638  1.00  0.00     0.052 C 
HETATM   16  C   UNL     1      42.090 -16.623   2.307  1.00  0.00     0.042 A 
ENDROOT
BRANCH   1  17
HETATM   17  C   UNL     1      43.651 -18.556   2.283  1.00  0.00     0.297 C 
HETATM   18  O   UNL     1      44.389 -18.358   1.332  1.00  0.00    -0.259 OA
BRANCH  17  19
HETATM   19  O   UNL     1      43.359 -19.743   2.859  1.00  0.00    -0.318 OA
BRANCH  19  20
HETATM   20  C   UNL     1      44.362 -20.769   2.747  1.00  0.00     0.174 C 
HETATM   21  C   UNL     1      43.950 -21.767   1.683  1.00  0.00     0.034 C 
ENDBRANCH  19  20
ENDBRANCH  17  19
ENDBRANCH   1  17
BRANCH   2  22
HETATM   22  N   UNL     1      44.074 -18.121   5.058  1.00  0.00    -0.384 N 
HETATM   23  H   UNL     1      43.713 -19.086   5.092  1.00  0.00     0.157 HD
HETATM   24  H   UNL     1      45.080 -18.106   5.023  1.00  0.00     0.157 HD
ENDBRANCH   2  22
BRANCH   3  25
HETATM   25  C   UNL     1      42.790 -15.924   6.505  1.00  0.00     0.085 C 
HETATM   26  C   UNL     1      42.396 -17.127   7.355  1.00  0.00     0.032 C 
HETATM   27  C   UNL     1      44.170 -15.341   6.784  1.00  0.00     0.032 C 
ENDBRANCH   3  25
TORSDOF 5
ENDMDL
MODEL 8
REMARK VINA RESULT:      -7.2      3.603      7.553
REMARK  5 active torsions:
REMARK  status: ('A' for Active; 'I' for Inactive)
REMARK    1  A    between atoms: C_2  and  O_3 
REMARK    2  A    between atoms: O_3  and  C_4 
REMARK    3  A    between atoms: C_4  and  C_5 
REMARK    4  A    between atoms: C_6  and  N_7 
REMARK    5  A    between atoms: N_8  and  C_9 
ROOT
HETATM    1  C   UNL     1      42.564 -18.307   2.619  1.00  0.00     0.084 A 
HETATM    2  C   UNL     1      42.348 -17.755   3.916  1.00  0.00     0.119 A 
HETATM    3  N   UNL     1      41.668 -16.561   4.020  1.00  0.00    -0.312 N 
HETATM    4  C   UNL     1      41.265 -15.895   2.888  1.00  0.00     0.150 A 
HETATM    5  C   UNL     1      41.502 -16.420   1.628  1.00  0.00     0.080 A 
HETATM    6  C   UNL     1      41.047 -15.659   0.456  1.00  0.00     0.267 A 
HETATM    7  O   UNL     1      41.273 -16.128  -0.655  1.00  0.00    -0.267 OA
HETATM    8  N   UNL     1      40.394 -14.456   0.708  1.00  0.00    -0.272 N 
HETATM    9  C   UNL     1      40.203 -14.013   2.014  1.00  0.00     0.145 A 
HETATM   10  N   UNL     1      40.609 -14.675   3.056  1.00  0.00    -0.211 NA
HETATM   11  C   UNL     1      39.943 -13.710  -0.374  1.00  0.00     0.102 A 
HETATM   12  C   UNL     1      39.308 -12.544  -0.211  1.00  0.00     0.018 A 
HETATM   13  C   UNL     1      39.077 -12.032   1.111  1.00  0.00     0.012 A 
HETATM   14  C   UNL     1      39.489 -12.702   2.199  1.00  0.00    -0.015 A 
HETATM   15  C   UNL     1      39.269 -12.207   3.594  1.00  0.00     0.052 C 
HETATM   16  C   UNL     1      42.150 -17.633   1.477  1.00  0.00     0.042 A 
ENDROOT
BRANCH   1  17
HETATM   17  C   UNL     1      43.300 -19.593   2.484  1.00  0.00     0.297 C 
HETATM   18  O   UNL     1      42.861 -20.534   1.846  1.00  0.00    -0.259 OA
BRANCH  17  19
HETATM   19  O   UNL     1      44.484 -19.522   3.129  1.00  0.00    -0.318 OA
BRANCH  19  20
HETATM   20  C   UNL     1      45.150 -20.775   3.376  1.00  0.00     0.174 C 
HETATM   21  C   UNL     1      44.892 -21.214   4.804  1.00  0.00     0.034 C 
ENDBRANCH  19  20
ENDBRANCH  17  19
ENDBRANCH   1  17
BRANCH   2  22
HETATM   22  N   UNL     1      42.716 -18.497   5.039  1.00  0.00    -0.384 N 
HETATM   23  H   UNL     1      41.928 -18.765   5.647  1.00  0.00     0.157 HD
HETATM   24  H   UNL     1      43.439 -19.197   5.045  1.00  0.00     0.157 HD
ENDBRANCH   2  22
BRANCH   3  25
HETATM   25  C   UNL     1      41.327 -15.940   5.358  1.00  0.00     0.085 C 
HETATM   26  C   UNL     1      40.483 -16.873   6.219  1.00  0.00     0.032 C 
HETATM   27  C   UNL     1      42.570 -15.366   6.026  1.00  0.00     0.032 C 
ENDBRANCH   3  25
TORSDOF 5
ENDMDL
MODEL 9
REMARK VINA RESULT:      -7.1      2.099      6.300
REMARK  5 active torsions:
REMARK  status: ('A' for Active; 'I' for Inactive)
REMARK    1  A    between atoms: C_2  and  O_3 
REMARK    2  A    between atoms: O_3  and  C_4 
REMARK    3  A    between atoms: C_4  and  C_5 
REMARK    4  A    between atoms: C_6  and  N_7 
REMARK    5  A    between atoms: N_8  and  C_9 
ROOT
HETATM    1  C   UNL     1      43.892 -18.721   4.078  1.00  0.00     0.084 A 
HETATM    2  C   UNL     1      43.006 -18.680   2.962  1.00  0.00     0.119 A 
HETATM    3  N   UNL     1      42.282 -17.528   2.736  1.00  0.00    -0.312 N 
HETATM    4  C   UNL     1      42.374 -16.472   3.609  1.00  0.00     0.150 A 
HETATM    5  C   UNL     1      43.215 -16.526   4.710  1.00  0.00     0.080 A 
HETATM    6  C   UNL     1      43.268 -15.364   5.608  1.00  0.00     0.267 A 
HETATM    7  O   UNL     1      44.007 -15.429   6.585  1.00  0.00    -0.267 OA
HETATM    8  N   UNL     1      42.465 -14.279   5.270  1.00  0.00    -0.272 N 
HETATM    9  C   UNL     1      41.653 -14.320   4.141  1.00  0.00     0.145 A 
HETATM   10  N   UNL     1      41.593 -15.346   3.346  1.00  0.00    -0.211 NA
HETATM   11  C   UNL     1      42.493 -13.157   6.091  1.00  0.00     0.102 A 
HETATM   12  C   UNL     1      41.749 -12.076   5.833  1.00  0.00     0.018 A 
HETATM   13  C   UNL     1      40.892 -12.055   4.681  1.00  0.00     0.012 A 
HETATM   14  C   UNL     1      40.817 -13.105   3.849  1.00  0.00    -0.015 A 
HETATM   15  C   UNL     1      39.938 -13.126   2.637  1.00  0.00     0.052 C 
HETATM   16  C   UNL     1      43.986 -17.648   4.956  1.00  0.00     0.042 A 
ENDROOT
BRANCH   1  17
HETATM   17  C   UNL     1      44.678 -19.955   4.342  1.00  0.00     0.297 C 
HETATM   18  O   UNL     1      45.182 -20.615   3.449  1.00  0.00    -0.259 OA
BRANCH  17  19
HETATM   19  O   UNL     1      44.759 -20.182   5.671  1.00  0.00    -0.318 OA
BRANCH  19  20
HETATM   20  C   UNL     1      44.115 -21.375   6.154  1.00  0.00     0.174 C 
HETATM   21  C   UNL     1      43.481 -21.100   7.503  1.00  0.00     0.034 C 
ENDBRANCH  19  20
ENDBRANCH  17  19
ENDBRANCH   1  17
BRANCH   2  22
HETATM   22  N   UNL     1      42.993 -19.748   2.066  1.00  0.00    -0.384 N 
HETATM   23  H   UNL     1      43.015 -19.471   1.073  1.00  0.00     0.157 HD
HETATM   24  H   UNL     1      43.475 -20.620   2.214  1.00  0.00     0.157 HD
ENDBRANCH   2  22
BRANCH   3  25
HETATM   25  C   UNL     1      41.376 -17.367   1.534  1.00  0.00     0.085 C 
HETATM   26  C   UNL     1      39.971 -16.931   1.936  1.00  0.00     0.032 C 
HETATM   27  C   UNL     1      42.045 -16.528   0.453  1.00  0.00     0.032 C 
ENDBRANCH   3  25
TORSDOF 5
ENDMDL
MODEL 10
REMARK VINA RESULT:      -7.0      2.655      3.516
REMARK  5 active torsions:
REMARK  status: ('A' for Active; 'I' for Inactive)
REMARK    1  A    between atoms: C_2  and  O_3 
REMARK    2  A    between atoms: O_3  and  C_4 
REMARK    3  A    between atoms: C_4  and  C_5 
REMARK    4  A    between atoms: C_6  and  N_7 
REMARK    5  A    between atoms: N_8  and  C_9 
ROOT
HETATM    1  C   UNL     1      40.610 -13.579   5.481  1.00  0.00     0.084 A 
HETATM    2  C   UNL     1      40.353 -13.739   4.088  1.00  0.00     0.119 A 
HETATM    3  N   UNL     1      40.883 -14.835   3.441  1.00  0.00    -0.312 N 
HETATM    4  C   UNL     1      41.690 -15.714   4.120  1.00  0.00     0.150 A 
HETATM    5  C   UNL     1      41.962 -15.540   5.468  1.00  0.00     0.080 A 
HETATM    6  C   UNL     1      42.834 -16.514   6.139  1.00  0.00     0.267 A 
HETATM    7  O   UNL     1      43.077 -16.342   7.329  1.00  0.00    -0.267 OA
HETATM    8  N   UNL     1      43.319 -17.559   5.356  1.00  0.00    -0.272 N 
HETATM    9  C   UNL     1      42.987 -17.648   4.008  1.00  0.00     0.145 A 
HETATM   10  N   UNL     1      42.223 -16.787   3.405  1.00  0.00    -0.211 NA
HETATM   11  C   UNL     1      44.141 -18.505   5.956  1.00  0.00     0.102 A 
HETATM   12  C   UNL     1      44.646 -19.536   5.270  1.00  0.00     0.018 A 
HETATM   13  C   UNL     1      44.340 -19.687   3.874  1.00  0.00     0.012 A 
HETATM   14  C   UNL     1      43.553 -18.807   3.235  1.00  0.00    -0.015 A 
HETATM   15  C   UNL     1      43.207 -18.926   1.783  1.00  0.00     0.052 C 
HETATM   16  C   UNL     1      41.422 -14.474   6.166  1.00  0.00     0.042 A 
ENDROOT
BRANCH   1  17
HETATM   17  C   UNL     1      40.051 -12.401   6.197  1.00  0.00     0.297 C 
HETATM   18  O   UNL     1      39.055 -12.472   6.897  1.00  0.00    -0.259 OA
BRANCH  17  19
HETATM   19  O   UNL     1      40.819 -11.312   5.975  1.00  0.00    -0.318 OA
BRANCH  19  20
HETATM   20  C   UNL     1      41.638 -10.875   7.075  1.00  0.00     0.174 C 
HETATM   21  C   UNL     1      41.381  -9.406   7.347  1.00  0.00     0.034 C 
ENDBRANCH  19  20
ENDBRANCH  17  19
ENDBRANCH   1  17
BRANCH   2  22
HETATM   22  N   UNL     1      39.475 -12.860   3.455  1.00  0.00    -0.384 N 
HETATM   23  H   UNL     1      39.478 -11.905   3.842  1.00  0.00     0.157 HD
HETATM   24  H   UNL     1      39.293 -12.854   2.465  1.00  0.00     0.157 HD
ENDBRANCH   2  22
BRANCH   3  25
HETATM   25  C   UNL     1      40.599 -15.127   1.983  1.00  0.00     0.085 C 
HETATM   26  C   UNL     1      39.109 -15.310   1.719  1.00  0.00     0.032 C 
HETATM   27  C   UNL     1      41.313 -14.130   1.078  1.00  0.00     0.032 C 
ENDBRANCH   3  25
TORSDOF 5
ENDMDL
