MODEL 1
REMARK VINA RESULT:      -8.1      0.000      0.000
REMARK  3 active torsions:
REMARK  status: ('A' for Active; 'I' for Inactive)
REMARK    1  A    between atoms: C_2  and  N_3 
REMARK       I    between atoms: N_3  and  C_4 
REMARK    2  A    between atoms: C_4  and  C_5 
REMARK    3  A    between atoms: C_5  and  C_6 
ROOT
HETATM    1  C   UNL     1      42.322 -16.742   5.993  1.00  0.00     0.286 C 
HETATM    2  N   UNL     1      42.781 -16.172   4.643  1.00  0.00    -0.056 N 
HETATM    3  H   UNL     1      43.815 -16.178   4.598  1.00  0.00     0.278 HD
HETATM    4  H   UNL     1      42.487 -16.810   3.888  1.00  0.00     0.278 HD
HETATM    5  C   UNL     1      42.219 -14.799   4.428  1.00  0.00     0.209 C 
HETATM    6  C   UNL     1      40.681 -14.931   4.371  1.00  0.00     0.115 C 
HETATM    7  N   UNL     1      40.153 -15.591   5.564  1.00  0.00    -0.353 N 
HETATM    8  C   UNL     1      40.790 -16.650   6.176  1.00  0.00     0.249 C 
HETATM    9  O   UNL     1      40.162 -17.414   6.901  1.00  0.00    -0.271 OA
HETATM   10  C   UNL     1      42.782 -14.185   3.157  1.00  0.00     0.035 C 
HETATM   11  C   UNL     1      42.152 -12.812   2.926  1.00  0.00     0.002 C 
HETATM   12  C   UNL     1      40.624 -12.884   2.892  1.00  0.00     0.002 C 
HETATM   13  C   UNL     1      40.040 -13.564   4.134  1.00  0.00     0.027 C 
HETATM   14  H   UNL     1      39.141 -15.611   5.695  1.00  0.00     0.163 HD
ENDROOT
BRANCH   1  15
HETATM   15  C   UNL     1      42.821 -18.172   6.140  1.00  0.00     0.146 C 
BRANCH  15  16
HETATM   16  C   UNL     1      44.312 -18.147   5.983  1.00  0.00     0.224 C 
HETATM   17  N   UNL     1      45.016 -18.945   5.145  1.00  0.00    -0.327 N 
HETATM   18  H   UNL     1      46.015 -18.862   5.328  1.00  0.00     0.169 HD
HETATM   19  O   UNL     1      44.950 -17.517   6.841  1.00  0.00    -0.273 OA
BRANCH  17  20
HETATM   20  C   UNL     1      44.678 -19.896   4.168  1.00  0.00     0.034 A 
HETATM   21  C   UNL     1      44.855 -21.276   4.273  1.00  0.00     0.032 A 
HETATM   22  C   UNL     1      44.497 -22.119   3.215  1.00  0.00     0.044 A 
HETATM   23  C   UNL     1      43.951 -21.587   2.056  1.00  0.00     0.116 A 
HETATM   24  C   UNL     1      43.737 -20.223   1.940  1.00  0.00     0.044 A 
HETATM   25  F   UNL     1      43.617 -22.398   1.045  1.00  0.00    -0.206 F 
HETATM   26  C   UNL     1      44.087 -19.383   2.999  1.00  0.00     0.032 A 
ENDBRANCH  17  20
ENDBRANCH  15  16
ENDBRANCH   1  15
TORSDOF 3
ENDMDL
MODEL 2
REMARK VINA RESULT:      -8.1      1.635      1.700
REMARK  3 active torsions:
REMARK  status: ('A' for Active; 'I' for Inactive)
REMARK    1  A    between atoms: C_2  and  N_3 
REMARK       I    between atoms: N_3  and  C_4 
REMARK    2  A    between atoms: C_4  and  C_5 
REMARK    3  A    between atoms: C_5  and  C_6 
ROOT
HETATM    1  C   UNL     1      42.043 -16.634   4.605  1.00  0.00     0.286 C 
HETATM    2  N   UNL     1      41.788 -17.033   3.145  1.00  0.00    -0.056 N 
HETATM    3  H   UNL     1      42.625 -17.509   2.765  1.00  0.00     0.278 HD
HETATM    4  H   UNL     1      41.048 -17.750   3.115  1.00  0.00     0.278 HD
HETATM    5  C   UNL     1      41.403 -15.837   2.328  1.00  0.00     0.209 C 
HETATM    6  C   UNL     1      40.072 -15.296   2.894  1.00  0.00     0.115 C 
HETATM    7  N   UNL     1      40.173 -15.010   4.324  1.00  0.00    -0.353 N 
HETATM    8  C   UNL     1      40.877 -15.811   5.199  1.00  0.00     0.249 C 
HETATM    9  O   UNL     1      40.631 -15.781   6.400  1.00  0.00    -0.271 OA
HETATM   10  C   UNL     1      41.283 -16.211   0.859  1.00  0.00     0.035 C 
HETATM   11  C   UNL     1      40.833 -14.992   0.053  1.00  0.00     0.002 C 
HETATM   12  C   UNL     1      39.532 -14.400   0.596  1.00  0.00     0.002 C 
HETATM   13  C   UNL     1      39.610 -14.080   2.092  1.00  0.00     0.027 C 
HETATM   14  H   UNL     1      39.397 -14.523   4.774  1.00  0.00     0.163 HD
ENDROOT
BRANCH   1  15
HETATM   15  C   UNL     1      42.331 -17.878   5.433  1.00  0.00     0.146 C 
BRANCH  15  16
HETATM   16  C   UNL     1      43.814 -17.945   5.644  1.00  0.00     0.224 C 
HETATM   17  N   UNL     1      44.641 -18.840   5.052  1.00  0.00    -0.327 N 
HETATM   18  H   UNL     1      45.570 -18.798   5.467  1.00  0.00     0.169 HD
HETATM   19  O   UNL     1      44.270 -17.289   6.593  1.00  0.00    -0.273 OA
BRANCH  17  20
HETATM   20  C   UNL     1      44.481 -19.841   4.079  1.00  0.00     0.034 A 
HETATM   21  C   UNL     1      44.724 -21.203   4.260  1.00  0.00     0.032 A 
HETATM   22  C   UNL     1      44.549 -22.101   3.199  1.00  0.00     0.044 A 
HETATM   23  C   UNL     1      44.119 -21.641   1.963  1.00  0.00     0.116 A 
HETATM   24  C   UNL     1      43.842 -20.297   1.768  1.00  0.00     0.044 A 
HETATM   25  F   UNL     1      43.959 -22.504   0.952  1.00  0.00    -0.206 F 
HETATM   26  C   UNL     1      44.010 -19.404   2.828  1.00  0.00     0.032 A 
ENDBRANCH  17  20
ENDBRANCH  15  16
ENDBRANCH   1  15
TORSDOF 3
ENDMDL
MODEL 3
REMARK VINA RESULT:      -7.8      2.201      2.808
REMARK  3 active torsions:
REMARK  status: ('A' for Active; 'I' for Inactive)
REMARK    1  A    between atoms: C_2  and  N_3 
REMARK       I    between atoms: N_3  and  C_4 
REMARK    2  A    between atoms: C_4  and  C_5 
REMARK    3  A    between atoms: C_5  and  C_6 
ROOT
HETATM    1  C   UNL     1      42.093 -16.651   5.645  1.00  0.00     0.286 C 
HETATM    2  N   UNL     1      42.332 -17.683   4.534  1.00  0.00    -0.056 N 
HETATM    3  H   UNL     1      43.202 -18.208   4.730  1.00  0.00     0.278 HD
HETATM    4  H   UNL     1      41.588 -18.396   4.569  1.00  0.00     0.278 HD
HETATM    5  C   UNL     1      42.369 -17.018   3.191  1.00  0.00     0.209 C 
HETATM    6  C   UNL     1      40.979 -16.392   2.944  1.00  0.00     0.115 C 
HETATM    7  N   UNL     1      40.596 -15.487   4.026  1.00  0.00    -0.353 N 
HETATM    8  C   UNL     1      40.873 -15.748   5.353  1.00  0.00     0.249 C 
HETATM    9  O   UNL     1      40.224 -15.202   6.238  1.00  0.00    -0.271 OA
HETATM   10  C   UNL     1      42.739 -18.020   2.110  1.00  0.00     0.035 C 
HETATM   11  C   UNL     1      42.713 -17.335   0.743  1.00  0.00     0.002 C 
HETATM   12  C   UNL     1      41.364 -16.672   0.464  1.00  0.00     0.002 C 
HETATM   13  C   UNL     1      40.940 -15.709   1.577  1.00  0.00     0.027 C 
HETATM   14  H   UNL     1      39.760 -14.916   3.904  1.00  0.00     0.163 HD
ENDROOT
BRANCH   1  15
HETATM   15  C   UNL     1      41.958 -17.362   6.984  1.00  0.00     0.146 C 
BRANCH  15  16
HETATM   16  C   UNL     1      43.311 -17.368   7.629  1.00  0.00     0.224 C 
HETATM   17  N   UNL     1      44.248 -18.330   7.452  1.00  0.00    -0.327 N 
HETATM   18  H   UNL     1      45.016 -18.207   8.110  1.00  0.00     0.169 HD
HETATM   19  O   UNL     1      43.488 -16.564   8.556  1.00  0.00    -0.273 OA
BRANCH  17  20
HETATM   20  C   UNL     1      44.351 -19.475   6.643  1.00  0.00     0.034 A 
HETATM   21  C   UNL     1      43.856 -20.742   6.952  1.00  0.00     0.032 A 
HETATM   22  C   UNL     1      44.045 -21.812   6.068  1.00  0.00     0.044 A 
HETATM   23  C   UNL     1      44.717 -21.613   4.870  1.00  0.00     0.116 A 
HETATM   24  C   UNL     1      45.191 -20.357   4.528  1.00  0.00     0.044 A 
HETATM   25  F   UNL     1      44.899 -22.641   4.033  1.00  0.00    -0.206 F 
HETATM   26  C   UNL     1      44.995 -19.290   5.407  1.00  0.00     0.032 A 
ENDBRANCH  17  20
ENDBRANCH  15  16
ENDBRANCH   1  15
TORSDOF 3
ENDMDL
MODEL 4
REMARK VINA RESULT:      -7.8      3.690      4.662
REMARK  3 active torsions:
REMARK  status: ('A' for Active; 'I' for Inactive)
REMARK    1  A    between atoms: C_2  and  N_3 
REMARK       I    between atoms: N_3  and  C_4 
REMARK    2  A    between atoms: C_4  and  C_5 
REMARK    3  A    between atoms: C_5  and  C_6 
ROOT
HETATM    1  C   UNL     1      40.678 -14.380   1.972  1.00  0.00     0.286 C 
HETATM    2  N   UNL     1      41.653 -13.566   1.108  1.00  0.00    -0.056 N 
HETATM    3  H   UNL     1      41.723 -12.603   1.480  1.00  0.00     0.278 HD
HETATM    4  H   UNL     1      42.602 -13.953   1.213  1.00  0.00     0.278 HD
HETATM    5  C   UNL     1      41.227 -13.584  -0.329  1.00  0.00     0.209 C 
HETATM    6  C   UNL     1      41.296 -15.047  -0.816  1.00  0.00     0.115 C 
HETATM    7  N   UNL     1      40.500 -15.934   0.031  1.00  0.00    -0.353 N 
HETATM    8  C   UNL     1      40.433 -15.795   1.402  1.00  0.00     0.249 C 
HETATM    9  O   UNL     1      40.099 -16.744   2.104  1.00  0.00    -0.271 OA
HETATM   10  C   UNL     1      42.115 -12.669  -1.158  1.00  0.00     0.035 C 
HETATM   11  C   UNL     1      41.702 -12.747  -2.628  1.00  0.00     0.002 C 
HETATM   12  C   UNL     1      41.724 -14.184  -3.151  1.00  0.00     0.002 C 
HETATM   13  C   UNL     1      40.891 -15.136  -2.287  1.00  0.00     0.027 C 
HETATM   14  H   UNL     1      40.364 -16.898  -0.274  1.00  0.00     0.163 HD
ENDROOT
BRANCH   1  15
HETATM   15  C   UNL     1      41.187 -14.432   3.406  1.00  0.00     0.146 C 
BRANCH  15  16
HETATM   16  C   UNL     1      42.669 -14.208   3.366  1.00  0.00     0.224 C 
HETATM   17  N   UNL     1      43.593 -15.181   3.181  1.00  0.00    -0.327 N 
HETATM   18  H   UNL     1      44.531 -14.821   3.352  1.00  0.00     0.169 HD
HETATM   19  O   UNL     1      43.075 -13.103   3.755  1.00  0.00    -0.273 OA
BRANCH  17  20
HETATM   20  C   UNL     1      43.539 -16.557   2.896  1.00  0.00     0.034 A 
HETATM   21  C   UNL     1      43.289 -17.573   3.818  1.00  0.00     0.032 A 
HETATM   22  C   UNL     1      43.285 -18.913   3.412  1.00  0.00     0.044 A 
HETATM   23  C   UNL     1      43.519 -19.237   2.083  1.00  0.00     0.116 A 
HETATM   24  C   UNL     1      43.739 -18.243   1.144  1.00  0.00     0.044 A 
HETATM   25  F   UNL     1      43.519 -20.521   1.702  1.00  0.00    -0.206 F 
HETATM   26  C   UNL     1      43.736 -16.907   1.548  1.00  0.00     0.032 A 
ENDBRANCH  17  20
ENDBRANCH  15  16
ENDBRANCH   1  15
TORSDOF 3
ENDMDL
MODEL 5
REMARK VINA RESULT:      -7.7      2.440      3.039
REMARK  3 active torsions:
REMARK  status: ('A' for Active; 'I' for Inactive)
REMARK    1  A    between atoms: C_2  and  N_3 
REMARK       I    between atoms: N_3  and  C_4 
REMARK    2  A    between atoms: C_4  and  C_5 
REMARK    3  A    between atoms: C_5  and  C_6 
ROOT
HETATM    1  C   UNL     1      41.418 -16.463   3.200  1.00  0.00     0.286 C 
HETATM    2  N   UNL     1      40.491 -15.341   2.710  1.00  0.00    -0.056 N 
HETATM    3  H   UNL     1      40.763 -15.060   1.752  1.00  0.00     0.278 HD
HETATM    4  H   UNL     1      39.534 -15.712   2.608  1.00  0.00     0.278 HD
HETATM    5  C   UNL     1      40.513 -14.182   3.661  1.00  0.00     0.209 C 
HETATM    6  C   UNL     1      39.955 -14.680   5.012  1.00  0.00     0.115 C 
HETATM    7  N   UNL     1      40.693 -15.843   5.503  1.00  0.00    -0.353 N 
HETATM    8  C   UNL     1      41.144 -16.847   4.672  1.00  0.00     0.249 C 
HETATM    9  O   UNL     1      41.397 -17.958   5.125  1.00  0.00    -0.271 OA
HETATM   10  C   UNL     1      39.702 -13.022   3.107  1.00  0.00     0.035 C 
HETATM   11  C   UNL     1      39.689 -11.875   4.117  1.00  0.00     0.002 C 
HETATM   12  C   UNL     1      39.173 -12.326   5.484  1.00  0.00     0.002 C 
HETATM   13  C   UNL     1      39.933 -13.539   6.029  1.00  0.00     0.027 C 
HETATM   14  H   UNL     1      40.499 -16.173   6.449  1.00  0.00     0.163 HD
ENDROOT
BRANCH   1  15
HETATM   15  C   UNL     1      41.299 -17.665   2.273  1.00  0.00     0.146 C 
BRANCH  15  16
HETATM   16  C   UNL     1      42.481 -17.640   1.351  1.00  0.00     0.224 C 
HETATM   17  N   UNL     1      43.568 -18.441   1.465  1.00  0.00    -0.327 N 
HETATM   18  H   UNL     1      44.305 -18.136   0.832  1.00  0.00     0.169 HD
HETATM   19  O   UNL     1      42.565 -16.671   0.582  1.00  0.00    -0.273 OA
BRANCH  17  20
HETATM   20  C   UNL     1      43.923 -19.515   2.299  1.00  0.00     0.034 A 
HETATM   21  C   UNL     1      44.298 -19.421   3.639  1.00  0.00     0.032 A 
HETATM   22  C   UNL     1      44.653 -20.569   4.358  1.00  0.00     0.044 A 
HETATM   23  C   UNL     1      44.622 -21.812   3.742  1.00  0.00     0.116 A 
HETATM   24  C   UNL     1      44.223 -21.934   2.421  1.00  0.00     0.044 A 
HETATM   25  F   UNL     1      44.968 -22.905   4.434  1.00  0.00    -0.206 F 
HETATM   26  C   UNL     1      43.862 -20.790   1.707  1.00  0.00     0.032 A 
ENDBRANCH  17  20
ENDBRANCH  15  16
ENDBRANCH   1  15
TORSDOF 3
ENDMDL
MODEL 6
REMARK VINA RESULT:      -7.7      2.449      6.141
REMARK  3 active torsions:
REMARK  status: ('A' for Active; 'I' for Inactive)
REMARK    1  A    between atoms: C_2  and  N_3 
REMARK       I    between atoms: N_3  and  C_4 
REMARK    2  A    between atoms: C_4  and  C_5 
REMARK    3  A    between atoms: C_5  and  C_6 
ROOT
HETATM    1  C   UNL     1      43.412 -17.722   4.832  1.00  0.00     0.286 C 
HETATM    2  N   UNL     1      43.620 -18.193   3.386  1.00  0.00    -0.056 N 
HETATM    3  H   UNL     1      42.917 -17.747   2.772  1.00  0.00     0.278 HD
HETATM    4  H   UNL     1      44.526 -17.840   3.042  1.00  0.00     0.278 HD
HETATM    5  C   UNL     1      43.568 -19.689   3.304  1.00  0.00     0.209 C 
HETATM    6  C   UNL     1      44.743 -20.242   4.139  1.00  0.00     0.115 C 
HETATM    7  N   UNL     1      44.711 -19.739   5.512  1.00  0.00    -0.353 N 
HETATM    8  C   UNL     1      44.353 -18.443   5.824  1.00  0.00     0.249 C 
HETATM    9  O   UNL     1      44.701 -17.946   6.889  1.00  0.00    -0.271 OA
HETATM   10  C   UNL     1      43.639 -20.146   1.855  1.00  0.00     0.035 C 
HETATM   11  C   UNL     1      43.644 -21.674   1.798  1.00  0.00     0.002 C 
HETATM   12  C   UNL     1      44.774 -22.272   2.637  1.00  0.00     0.002 C 
HETATM   13  C   UNL     1      44.761 -21.769   4.084  1.00  0.00     0.027 C 
HETATM   14  H   UNL     1      45.360 -20.142   6.188  1.00  0.00     0.163 HD
ENDROOT
BRANCH   1  15
HETATM   15  C   UNL     1      43.572 -16.210   4.905  1.00  0.00     0.146 C 
BRANCH  15  16
HETATM   16  C   UNL     1      42.205 -15.622   5.089  1.00  0.00     0.224 C 
HETATM   17  N   UNL     1      41.367 -15.282   4.080  1.00  0.00    -0.327 N 
HETATM   18  H   UNL     1      40.571 -14.757   4.439  1.00  0.00     0.169 HD
HETATM   19  O   UNL     1      41.925 -15.213   6.226  1.00  0.00    -0.273 OA
BRANCH  17  20
HETATM   20  C   UNL     1      41.396 -15.415   2.682  1.00  0.00     0.034 A 
HETATM   21  C   UNL     1      41.805 -14.437   1.775  1.00  0.00     0.032 A 
HETATM   22  C   UNL     1      41.765 -14.686   0.398  1.00  0.00     0.044 A 
HETATM   23  C   UNL     1      41.328 -15.916  -0.074  1.00  0.00     0.116 A 
HETATM   24  C   UNL     1      40.946 -16.913   0.809  1.00  0.00     0.044 A 
HETATM   25  F   UNL     1      41.287 -16.145  -1.392  1.00  0.00    -0.206 F 
HETATM   26  C   UNL     1      40.993 -16.666   2.182  1.00  0.00     0.032 A 
ENDBRANCH  17  20
ENDBRANCH  15  16
ENDBRANCH   1  15
TORSDOF 3
ENDMDL
MODEL 7
REMARK VINA RESULT:      -7.7      4.278      7.579
REMARK  3 active torsions:
REMARK  status: ('A' for Active; 'I' for Inactive)
REMARK    1  A    between atoms: C_2  and  N_3 
REMARK       I    between atoms: N_3  and  C_4 
REMARK    2  A    between atoms: C_4  and  C_5 
REMARK    3  A    between atoms: C_5  and  C_6 
ROOT
HETATM    1  C   UNL     1      42.530 -17.856   2.245  1.00  0.00     0.286 C 
HETATM    2  N   UNL     1      43.315 -19.058   1.698  1.00  0.00    -0.056 N 
HETATM    3  H   UNL     1      42.822 -19.448   0.875  1.00  0.00     0.278 HD
HETATM    4  H   UNL     1      44.219 -18.731   1.326  1.00  0.00     0.278 HD
HETATM    5  C   UNL     1      43.521 -20.087   2.768  1.00  0.00     0.209 C 
HETATM    6  C   UNL     1      44.384 -19.442   3.874  1.00  0.00     0.115 C 
HETATM    7  N   UNL     1      43.783 -18.205   4.371  1.00  0.00    -0.353 N 
HETATM    8  C   UNL     1      43.147 -17.299   3.548  1.00  0.00     0.249 C 
HETATM    9  O   UNL     1      43.008 -16.133   3.901  1.00  0.00    -0.271 OA
HETATM   10  C   UNL     1      44.177 -21.332   2.191  1.00  0.00     0.035 C 
HETATM   11  C   UNL     1      44.432 -22.343   3.309  1.00  0.00     0.002 C 
HETATM   12  C   UNL     1      45.258 -21.741   4.446  1.00  0.00     0.002 C 
HETATM   13  C   UNL     1      44.649 -20.447   4.994  1.00  0.00     0.027 C 
HETATM   14  H   UNL     1      44.197 -17.766   5.194  1.00  0.00     0.163 HD
ENDROOT
BRANCH   1  15
HETATM   15  C   UNL     1      42.424 -16.784   1.169  1.00  0.00     0.146 C 
BRANCH  15  16
HETATM   16  C   UNL     1      40.967 -16.483   0.977  1.00  0.00     0.224 C 
HETATM   17  N   UNL     1      40.472 -15.600   0.077  1.00  0.00    -0.327 N 
HETATM   18  H   UNL     1      39.478 -15.445   0.238  1.00  0.00     0.169 HD
HETATM   19  O   UNL     1      40.195 -16.899   1.853  1.00  0.00    -0.273 OA
BRANCH  17  20
HETATM   20  C   UNL     1      41.028 -14.812  -0.945  1.00  0.00     0.034 A 
HETATM   21  C   UNL     1      40.997 -15.100  -2.309  1.00  0.00     0.032 A 
HETATM   22  C   UNL     1      41.611 -14.240  -3.229  1.00  0.00     0.044 A 
HETATM   23  C   UNL     1      42.245 -13.088  -2.788  1.00  0.00     0.116 A 
HETATM   24  C   UNL     1      42.262 -12.765  -1.440  1.00  0.00     0.044 A 
HETATM   25  F   UNL     1      42.835 -12.274  -3.672  1.00  0.00    -0.206 F 
HETATM   26  C   UNL     1      41.643 -13.619  -0.525  1.00  0.00     0.032 A 
ENDBRANCH  17  20
ENDBRANCH  15  16
ENDBRANCH   1  15
TORSDOF 3
ENDMDL
MODEL 8
REMARK VINA RESULT:      -7.5      3.109      3.760
REMARK  3 active torsions:
REMARK  status: ('A' for Active; 'I' for Inactive)
REMARK    1  A    between atoms: C_2  and  N_3 
REMARK       I    between atoms: N_3  and  C_4 
REMARK    2  A    between atoms: C_4  and  C_5 
REMARK    3  A    between atoms: C_5  and  C_6 
ROOT
HETATM    1  C   UNL     1      41.799 -16.836   1.987  1.00  0.00     0.286 C 
HETATM    2  N   UNL     1      41.151 -16.469   0.644  1.00  0.00    -0.056 N 
HETATM    3  H   UNL     1      41.845 -16.579  -0.116  1.00  0.00     0.278 HD
HETATM    4  H   UNL     1      40.416 -17.157   0.425  1.00  0.00     0.278 HD
HETATM    5  C   UNL     1      40.585 -15.082   0.691  1.00  0.00     0.209 C 
HETATM    6  C   UNL     1      39.467 -15.072   1.757  1.00  0.00     0.115 C 
HETATM    7  N   UNL     1      39.957 -15.539   3.054  1.00  0.00    -0.353 N 
HETATM    8  C   UNL     1      40.854 -16.579   3.183  1.00  0.00     0.249 C 
HETATM    9  O   UNL     1      40.942 -17.192   4.242  1.00  0.00    -0.271 OA
HETATM   10  C   UNL     1      40.065 -14.672  -0.677  1.00  0.00     0.035 C 
HETATM   11  C   UNL     1      39.439 -13.280  -0.594  1.00  0.00     0.002 C 
HETATM   12  C   UNL     1      38.345 -13.210   0.472  1.00  0.00     0.002 C 
HETATM   13  C   UNL     1      38.831 -13.685   1.845  1.00  0.00     0.027 C 
HETATM   14  H   UNL     1      39.341 -15.448   3.862  1.00  0.00     0.163 HD
ENDROOT
BRANCH   1  15
HETATM   15  C   UNL     1      42.275 -18.282   1.948  1.00  0.00     0.146 C 
BRANCH  15  16
HETATM   16  C   UNL     1      43.772 -18.261   1.864  1.00  0.00     0.224 C 
HETATM   17  N   UNL     1      44.605 -18.789   2.792  1.00  0.00    -0.327 N 
HETATM   18  H   UNL     1      45.568 -18.514   2.605  1.00  0.00     0.169 HD
HETATM   19  O   UNL     1      44.270 -17.512   1.010  1.00  0.00    -0.273 OA
BRANCH  17  20
HETATM   20  C   UNL     1      44.430 -19.539   3.968  1.00  0.00     0.034 A 
HETATM   21  C   UNL     1      44.747 -20.887   4.133  1.00  0.00     0.032 A 
HETATM   22  C   UNL     1      44.502 -21.529   5.353  1.00  0.00     0.044 A 
HETATM   23  C   UNL     1      43.951 -20.821   6.412  1.00  0.00     0.116 A 
HETATM   24  C   UNL     1      43.656 -19.474   6.281  1.00  0.00     0.044 A 
HETATM   25  F   UNL     1      43.714 -21.442   7.574  1.00  0.00    -0.206 F 
HETATM   26  C   UNL     1      43.908 -18.833   5.066  1.00  0.00     0.032 A 
ENDBRANCH  17  20
ENDBRANCH  15  16
ENDBRANCH   1  15
TORSDOF 3
ENDMDL
MODEL 9
REMARK VINA RESULT:      -7.5      5.787      8.571
REMARK  3 active torsions:
REMARK  status: ('A' for Active; 'I' for Inactive)
REMARK    1  A    between atoms: C_2  and  N_3 
REMARK       I    between atoms: N_3  and  C_4 
REMARK    2  A    between atoms: C_4  and  C_5 
REMARK    3  A    between atoms: C_5  and  C_6 
ROOT
HETATM    1  C   UNL     1      40.787 -15.704   0.117  1.00  0.00     0.286 C 
HETATM    2  N   UNL     1      42.272 -16.078   0.223  1.00  0.00    -0.056 N 
HETATM    3  H   UNL     1      42.643 -16.294  -0.718  1.00  0.00     0.278 HD
HETATM    4  H   UNL     1      42.808 -15.253   0.529  1.00  0.00     0.278 HD
HETATM    5  C   UNL     1      42.463 -17.219   1.177  1.00  0.00     0.209 C 
HETATM    6  C   UNL     1      42.011 -16.739   2.573  1.00  0.00     0.115 C 
HETATM    7  N   UNL     1      40.640 -16.232   2.549  1.00  0.00    -0.353 N 
HETATM    8  C   UNL     1      40.137 -15.486   1.502  1.00  0.00     0.249 C 
HETATM    9  O   UNL     1      39.161 -14.764   1.671  1.00  0.00    -0.271 OA
HETATM   10  C   UNL     1      43.914 -17.675   1.178  1.00  0.00     0.035 C 
HETATM   11  C   UNL     1      44.099 -18.798   2.198  1.00  0.00     0.002 C 
HETATM   12  C   UNL     1      43.634 -18.382   3.595  1.00  0.00     0.002 C 
HETATM   13  C   UNL     1      42.197 -17.853   3.603  1.00  0.00     0.027 C 
HETATM   14  H   UNL     1      40.191 -16.014   3.439  1.00  0.00     0.163 HD
ENDROOT
BRANCH   1  15
HETATM   15  C   UNL     1      40.631 -14.480  -0.776  1.00  0.00     0.146 C 
BRANCH  15  16
HETATM   16  C   UNL     1      41.327 -14.776  -2.070  1.00  0.00     0.224 C 
HETATM   17  N   UNL     1      42.022 -13.870  -2.799  1.00  0.00    -0.327 N 
HETATM   18  H   UNL     1      42.266 -14.256  -3.710  1.00  0.00     0.169 HD
HETATM   19  O   UNL     1      41.052 -15.856  -2.614  1.00  0.00    -0.273 OA
BRANCH  17  20
HETATM   20  C   UNL     1      42.396 -12.528  -2.615  1.00  0.00     0.034 A 
HETATM   21  C   UNL     1      42.937 -11.982  -1.451  1.00  0.00     0.032 A 
HETATM   22  C   UNL     1      43.247 -10.618  -1.386  1.00  0.00     0.044 A 
HETATM   23  C   UNL     1      43.028  -9.802  -2.486  1.00  0.00     0.116 A 
HETATM   24  C   UNL     1      42.520 -10.328  -3.663  1.00  0.00     0.044 A 
HETATM   25  F   UNL     1      43.321  -8.498  -2.414  1.00  0.00    -0.206 F 
HETATM   26  C   UNL     1      42.218 -11.690  -3.729  1.00  0.00     0.032 A 
ENDBRANCH  17  20
ENDBRANCH  15  16
ENDBRANCH   1  15
TORSDOF 3
ENDMDL
MODEL 10
REMARK VINA RESULT:      -7.4      1.901      2.674
REMARK  3 active torsions:
REMARK  status: ('A' for Active; 'I' for Inactive)
REMARK    1  A    between atoms: C_2  and  N_3 
REMARK       I    between atoms: N_3  and  C_4 
REMARK    2  A    between atoms: C_4  and  C_5 
REMARK    3  A    between atoms: C_5  and  C_6 
ROOT
HETATM    1  C   UNL     1      44.000 -15.399   5.961  1.00  0.00     0.286 C 
HETATM    2  N   UNL     1      42.600 -15.766   5.447  1.00  0.00    -0.056 N 
HETATM    3  H   UNL     1      42.673 -16.545   4.769  1.00  0.00     0.278 HD
HETATM    4  H   UNL     1      42.044 -16.152   6.225  1.00  0.00     0.278 HD
HETATM    5  C   UNL     1      41.923 -14.568   4.853  1.00  0.00     0.209 C 
HETATM    6  C   UNL     1      41.739 -13.531   5.982  1.00  0.00     0.115 C 
HETATM    7  N   UNL     1      43.010 -13.212   6.632  1.00  0.00    -0.353 N 
HETATM    8  C   UNL     1      43.978 -14.162   6.886  1.00  0.00     0.249 C 
HETATM    9  O   UNL     1      44.825 -13.964   7.750  1.00  0.00    -0.271 OA
HETATM   10  C   UNL     1      40.596 -14.962   4.225  1.00  0.00     0.035 C 
HETATM   11  C   UNL     1      39.896 -13.718   3.679  1.00  0.00     0.002 C 
HETATM   12  C   UNL     1      39.718 -12.646   4.754  1.00  0.00     0.002 C 
HETATM   13  C   UNL     1      41.035 -12.284   5.448  1.00  0.00     0.027 C 
HETATM   14  H   UNL     1      43.029 -12.442   7.300  1.00  0.00     0.163 HD
ENDROOT
BRANCH   1  15
HETATM   15  C   UNL     1      44.624 -16.605   6.649  1.00  0.00     0.146 C 
BRANCH  15  16
HETATM   16  C   UNL     1      43.509 -17.532   7.031  1.00  0.00     0.224 C 
HETATM   17  N   UNL     1      43.124 -18.615   6.314  1.00  0.00    -0.327 N 
HETATM   18  H   UNL     1      42.251 -18.993   6.679  1.00  0.00     0.169 HD
HETATM   19  O   UNL     1      42.751 -17.146   7.933  1.00  0.00    -0.273 OA
BRANCH  17  20
HETATM   20  C   UNL     1      43.604 -19.262   5.162  1.00  0.00     0.034 A 
HETATM   21  C   UNL     1      43.367 -18.868   3.845  1.00  0.00     0.032 A 
HETATM   22  C   UNL     1      43.885 -19.614   2.779  1.00  0.00     0.044 A 
HETATM   23  C   UNL     1      44.648 -20.746   3.028  1.00  0.00     0.116 A 
HETATM   24  C   UNL     1      44.921 -21.139   4.328  1.00  0.00     0.044 A 
HETATM   25  F   UNL     1      45.134 -21.458   2.004  1.00  0.00    -0.206 F 
HETATM   26  C   UNL     1      44.411 -20.390   5.391  1.00  0.00     0.032 A 
ENDBRANCH  17  20
ENDBRANCH  15  16
ENDBRANCH   1  15
TORSDOF 3
ENDMDL
