MODEL 1
REMARK VINA RESULT:      -8.8      0.000      0.000
REMARK  7 active torsions:
REMARK  status: ('A' for Active; 'I' for Inactive)
REMARK    1  A    between atoms: C_2  and  N_3 
REMARK    2  A    between atoms: C_2  and  C_10 
REMARK    3  A    between atoms: N_11  and  C_12 
REMARK    4  A    between atoms: C_19  and  S_20 
REMARK    5  A    between atoms: S_20  and  C_21 
REMARK    6  A    between atoms: C_21  and  C_22 
REMARK    7  A    between atoms: C_21  and  C_28 
REMARK       I    between atoms: C_22  and  N_23 
REMARK       I    between atoms: N_23  and  C_24 
REMARK       I    between atoms: C_24  and  N_25 
ROOT
HETATM    1  C   UNL     1      43.598 -17.651   5.487  1.00  0.00     0.166 A 
HETATM    2  N   UNL     1      42.615 -16.871   4.888  1.00  0.00    -0.274 N 
HETATM    3  C   UNL     1      42.007 -16.231   5.953  1.00  0.00     0.197 A 
HETATM    4  N   UNL     1      42.533 -16.641   7.085  1.00  0.00    -0.122 NA
HETATM    5  N   UNL     1      43.525 -17.535   6.796  1.00  0.00    -0.131 NA
ENDROOT
BRANCH   3   6
HETATM    6  S   UNL     1      40.649 -15.158   5.873  1.00  0.00    -0.070 SA
BRANCH   6   7
HETATM    7  C   UNL     1      41.392 -13.630   5.194  1.00  0.00     0.180 C 
BRANCH   7   8
HETATM    8  C   UNL     1      42.893 -13.588   5.524  1.00  0.00     0.244 C 
HETATM    9  N   UNL     1      43.197 -13.435   6.868  1.00  0.00    -0.278 N 
HETATM   10  C   UNL     1      44.399 -13.590   7.493  1.00  0.00     0.320 C 
HETATM   11  H   UNL     1      42.441 -13.336   7.535  1.00  0.00     0.173 HD
HETATM   12  N   UNL     1      45.465 -13.866   6.716  1.00  0.00    -0.352 N 
HETATM   13  O   UNL     1      44.496 -13.526   8.713  1.00  0.00    -0.247 OA
HETATM   14  H   UNL     1      45.420 -13.675   5.722  1.00  0.00     0.160 HD
HETATM   15  H   UNL     1      46.370 -13.894   7.167  1.00  0.00     0.160 HD
HETATM   16  O   UNL     1      43.736 -13.599   4.620  1.00  0.00    -0.271 OA
ENDBRANCH   7   8
BRANCH   7  17
HETATM   17  C   UNL     1      41.103 -13.359   3.720  1.00  0.00    -0.035 A 
HETATM   18  C   UNL     1      41.877 -12.514   2.908  1.00  0.00     0.009 A 
HETATM   19  C   UNL     1      41.533 -12.292   1.571  1.00  0.00     0.001 A 
HETATM   20  C   UNL     1      40.404 -12.896   1.027  1.00  0.00     0.000 A 
HETATM   21  C   UNL     1      39.617 -13.728   1.816  1.00  0.00     0.001 A 
HETATM   22  C   UNL     1      39.963 -13.959   3.148  1.00  0.00     0.009 A 
ENDBRANCH   7  17
ENDBRANCH   6   7
ENDBRANCH   3   6
BRANCH   2  23
HETATM   23  C   UNL     1      42.335 -16.766   3.505  1.00  0.00     0.043 A 
HETATM   24  C   UNL     1      41.180 -17.371   2.986  1.00  0.00     0.033 A 
HETATM   25  C   UNL     1      40.899 -17.269   1.622  1.00  0.00     0.044 A 
HETATM   26  C   UNL     1      41.763 -16.565   0.792  1.00  0.00     0.116 A 
HETATM   27  F   UNL     1      41.488 -16.473  -0.514  1.00  0.00    -0.206 F 
HETATM   28  C   UNL     1      42.901 -15.950   1.300  1.00  0.00     0.044 A 
HETATM   29  C   UNL     1      43.192 -16.044   2.663  1.00  0.00     0.033 A 
ENDBRANCH   2  23
BRANCH   1  30
HETATM   30  C   UNL     1      44.709 -18.376   4.788  1.00  0.00     0.255 C 
HETATM   31  C   UNL     1      45.786 -18.712   5.830  1.00  0.00     0.049 C 
BRANCH  30  32
HETATM   32  N   UNL     1      44.188 -19.670   4.119  1.00  0.00    -0.060 N 
HETATM   33  H   UNL     1      43.198 -19.731   4.409  1.00  0.00     0.280 HD
HETATM   34  C   UNL     1      44.179 -19.538   2.604  1.00  0.00     0.236 C 
HETATM   35  C   UNL     1      43.548 -20.768   1.970  1.00  0.00     0.028 C 
HETATM   36  C   UNL     1      44.264 -22.042   2.392  1.00  0.00     0.003 C 
HETATM   37  C   UNL     1      44.290 -22.156   3.909  1.00  0.00     0.028 C 
HETATM   38  C   UNL     1      44.902 -20.927   4.564  1.00  0.00     0.236 C 
ENDBRANCH  30  32
ENDBRANCH   1  30
TORSDOF 7
ENDMDL
MODEL 2
REMARK VINA RESULT:      -8.4      3.561      7.677
REMARK  7 active torsions:
REMARK  status: ('A' for Active; 'I' for Inactive)
REMARK    1  A    between atoms: C_2  and  N_3 
REMARK    2  A    between atoms: C_2  and  C_10 
REMARK    3  A    between atoms: N_11  and  C_12 
REMARK    4  A    between atoms: C_19  and  S_20 
REMARK    5  A    between atoms: S_20  and  C_21 
REMARK    6  A    between atoms: C_21  and  C_22 
REMARK    7  A    between atoms: C_21  and  C_28 
REMARK       I    between atoms: C_22  and  N_23 
REMARK       I    between atoms: N_23  and  C_24 
REMARK       I    between atoms: C_24  and  N_25 
ROOT
HETATM    1  C   UNL     1      41.761 -12.646   0.684  1.00  0.00     0.166 A 
HETATM    2  N   UNL     1      41.347 -13.913   0.288  1.00  0.00    -0.274 N 
HETATM    3  C   UNL     1      41.858 -14.748   1.266  1.00  0.00     0.197 A 
HETATM    4  N   UNL     1      42.564 -14.052   2.128  1.00  0.00    -0.122 NA
HETATM    5  N   UNL     1      42.511 -12.737   1.763  1.00  0.00    -0.131 NA
ENDROOT
BRANCH   3   6
HETATM    6  S   UNL     1      41.742 -16.475   1.311  1.00  0.00    -0.070 SA
BRANCH   6   7
HETATM    7  C   UNL     1      42.573 -16.887   2.888  1.00  0.00     0.180 C 
BRANCH   7   8
HETATM    8  C   UNL     1      41.618 -16.626   4.064  1.00  0.00     0.244 C 
HETATM    9  N   UNL     1      41.750 -15.384   4.667  1.00  0.00    -0.278 N 
HETATM   10  C   UNL     1      40.917 -14.777   5.560  1.00  0.00     0.320 C 
HETATM   11  H   UNL     1      42.461 -14.747   4.328  1.00  0.00     0.173 HD
HETATM   12  N   UNL     1      39.848 -15.482   5.981  1.00  0.00    -0.352 N 
HETATM   13  O   UNL     1      41.109 -13.625   5.928  1.00  0.00    -0.247 OA
HETATM   14  H   UNL     1      39.838 -16.489   5.866  1.00  0.00     0.160 HD
HETATM   15  H   UNL     1      39.280 -15.067   6.707  1.00  0.00     0.160 HD
HETATM   16  O   UNL     1      40.867 -17.518   4.473  1.00  0.00    -0.271 OA
ENDBRANCH   7   8
BRANCH   7  17
HETATM   17  C   UNL     1      43.221 -18.268   2.947  1.00  0.00    -0.035 A 
HETATM   18  C   UNL     1      44.086 -18.689   3.970  1.00  0.00     0.009 A 
HETATM   19  C   UNL     1      44.665 -19.961   3.941  1.00  0.00     0.001 A 
HETATM   20  C   UNL     1      44.402 -20.828   2.885  1.00  0.00     0.000 A 
HETATM   21  C   UNL     1      43.557 -20.428   1.857  1.00  0.00     0.001 A 
HETATM   22  C   UNL     1      42.971 -19.162   1.887  1.00  0.00     0.009 A 
ENDBRANCH   7  17
ENDBRANCH   6   7
ENDBRANCH   3   6
BRANCH   2  23
HETATM   23  C   UNL     1      40.573 -14.239  -0.851  1.00  0.00     0.043 A 
HETATM   24  C   UNL     1      39.207 -13.914  -0.873  1.00  0.00     0.033 A 
HETATM   25  C   UNL     1      38.439 -14.232  -1.995  1.00  0.00     0.044 A 
HETATM   26  C   UNL     1      39.035 -14.862  -3.081  1.00  0.00     0.116 A 
HETATM   27  F   UNL     1      38.292 -15.166  -4.152  1.00  0.00    -0.206 F 
HETATM   28  C   UNL     1      40.390 -15.174  -3.073  1.00  0.00     0.044 A 
HETATM   29  C   UNL     1      41.168 -14.859  -1.957  1.00  0.00     0.033 A 
ENDBRANCH   2  23
BRANCH   1  30
HETATM   30  C   UNL     1      41.295 -11.338   0.118  1.00  0.00     0.255 C 
HETATM   31  C   UNL     1      40.161 -10.810   1.009  1.00  0.00     0.049 C 
BRANCH  30  32
HETATM   32  N   UNL     1      42.455 -10.315   0.064  1.00  0.00    -0.060 N 
HETATM   33  H   UNL     1      43.114 -10.634   0.794  1.00  0.00     0.280 HD
HETATM   34  C   UNL     1      43.206 -10.407  -1.255  1.00  0.00     0.236 C 
HETATM   35  C   UNL     1      44.416  -9.486  -1.240  1.00  0.00     0.028 C 
HETATM   36  C   UNL     1      44.016  -8.047  -0.949  1.00  0.00     0.003 C 
HETATM   37  C   UNL     1      43.247  -7.966   0.360  1.00  0.00     0.028 C 
HETATM   38  C   UNL     1      42.041  -8.894   0.372  1.00  0.00     0.236 C 
ENDBRANCH  30  32
ENDBRANCH   1  30
TORSDOF 7
ENDMDL
MODEL 3
REMARK VINA RESULT:      -8.4      2.998      6.166
REMARK  7 active torsions:
REMARK  status: ('A' for Active; 'I' for Inactive)
REMARK    1  A    between atoms: C_2  and  N_3 
REMARK    2  A    between atoms: C_2  and  C_10 
REMARK    3  A    between atoms: N_11  and  C_12 
REMARK    4  A    between atoms: C_19  and  S_20 
REMARK    5  A    between atoms: S_20  and  C_21 
REMARK    6  A    between atoms: C_21  and  C_22 
REMARK    7  A    between atoms: C_21  and  C_28 
REMARK       I    between atoms: C_22  and  N_23 
REMARK       I    between atoms: N_23  and  C_24 
REMARK       I    between atoms: C_24  and  N_25 
ROOT
HETATM    1  C   UNL     1      40.926 -14.258   1.821  1.00  0.00     0.166 A 
HETATM    2  N   UNL     1      41.997 -14.873   2.460  1.00  0.00    -0.274 N 
HETATM    3  C   UNL     1      42.457 -13.908   3.338  1.00  0.00     0.197 A 
HETATM    4  N   UNL     1      41.768 -12.799   3.190  1.00  0.00    -0.122 NA
HETATM    5  N   UNL     1      40.813 -13.013   2.237  1.00  0.00    -0.131 NA
ENDROOT
BRANCH   3   6
HETATM    6  S   UNL     1      43.829 -14.037   4.386  1.00  0.00    -0.070 SA
BRANCH   6   7
HETATM    7  C   UNL     1      43.095 -14.725   5.916  1.00  0.00     0.180 C 
BRANCH   7   8
HETATM    8  C   UNL     1      41.570 -14.541   5.890  1.00  0.00     0.244 C 
HETATM    9  N   UNL     1      41.115 -13.314   6.349  1.00  0.00    -0.278 N 
HETATM   10  C   UNL     1      39.870 -12.770   6.239  1.00  0.00     0.320 C 
HETATM   11  H   UNL     1      41.788 -12.638   6.689  1.00  0.00     0.173 HD
HETATM   12  N   UNL     1      38.914 -13.533   5.670  1.00  0.00    -0.352 N 
HETATM   13  O   UNL     1      39.641 -11.623   6.602  1.00  0.00    -0.247 OA
HETATM   14  H   UNL     1      39.049 -14.535   5.605  1.00  0.00     0.160 HD
HETATM   15  H   UNL     1      37.973 -13.165   5.668  1.00  0.00     0.160 HD
HETATM   16  O   UNL     1      40.829 -15.477   5.565  1.00  0.00    -0.271 OA
ENDBRANCH   7   8
BRANCH   7  17
HETATM   17  C   UNL     1      43.514 -16.152   6.258  1.00  0.00    -0.035 A 
HETATM   18  C   UNL     1      44.020 -17.070   5.324  1.00  0.00     0.009 A 
HETATM   19  C   UNL     1      44.355 -18.373   5.707  1.00  0.00     0.001 A 
HETATM   20  C   UNL     1      44.177 -18.785   7.023  1.00  0.00     0.000 A 
HETATM   21  C   UNL     1      43.667 -17.896   7.963  1.00  0.00     0.001 A 
HETATM   22  C   UNL     1      43.340 -16.593   7.586  1.00  0.00     0.009 A 
ENDBRANCH   7  17
ENDBRANCH   6   7
ENDBRANCH   3   6
BRANCH   2  23
HETATM   23  C   UNL     1      42.473 -16.189   2.249  1.00  0.00     0.043 A 
HETATM   24  C   UNL     1      41.718 -17.279   2.711  1.00  0.00     0.033 A 
HETATM   25  C   UNL     1      42.183 -18.579   2.503  1.00  0.00     0.044 A 
HETATM   26  C   UNL     1      43.386 -18.782   1.837  1.00  0.00     0.116 A 
HETATM   27  F   UNL     1      43.827 -20.031   1.644  1.00  0.00    -0.206 F 
HETATM   28  C   UNL     1      44.132 -17.709   1.364  1.00  0.00     0.044 A 
HETATM   29  C   UNL     1      43.677 -16.404   1.565  1.00  0.00     0.033 A 
ENDBRANCH   2  23
BRANCH   1  30
HETATM   30  C   UNL     1      39.914 -14.923   0.936  1.00  0.00     0.255 C 
HETATM   31  C   UNL     1      38.517 -14.494   1.406  1.00  0.00     0.049 C 
BRANCH  30  32
HETATM   32  N   UNL     1      40.129 -14.523  -0.543  1.00  0.00    -0.060 N 
HETATM   33  H   UNL     1      40.761 -13.707  -0.502  1.00  0.00     0.280 HD
HETATM   34  C   UNL     1      40.884 -15.606  -1.299  1.00  0.00     0.236 C 
HETATM   35  C   UNL     1      41.195 -15.143  -2.715  1.00  0.00     0.028 C 
HETATM   36  C   UNL     1      39.930 -14.750  -3.462  1.00  0.00     0.003 C 
HETATM   37  C   UNL     1      39.169 -13.683  -2.689  1.00  0.00     0.028 C 
HETATM   38  C   UNL     1      38.862 -14.120  -1.264  1.00  0.00     0.236 C 
ENDBRANCH  30  32
ENDBRANCH   1  30
TORSDOF 7
ENDMDL
MODEL 4
REMARK VINA RESULT:      -8.1      2.837      6.816
REMARK  7 active torsions:
REMARK  status: ('A' for Active; 'I' for Inactive)
REMARK    1  A    between atoms: C_2  and  N_3 
REMARK    2  A    between atoms: C_2  and  C_10 
REMARK    3  A    between atoms: N_11  and  C_12 
REMARK    4  A    between atoms: C_19  and  S_20 
REMARK    5  A    between atoms: S_20  and  C_21 
REMARK    6  A    between atoms: C_21  and  C_22 
REMARK    7  A    between atoms: C_21  and  C_28 
REMARK       I    between atoms: C_22  and  N_23 
REMARK       I    between atoms: N_23  and  C_24 
REMARK       I    between atoms: C_24  and  N_25 
ROOT
HETATM    1  C   UNL     1      43.667 -14.642   6.930  1.00  0.00     0.166 A 
HETATM    2  N   UNL     1      43.014 -15.443   5.999  1.00  0.00    -0.274 N 
HETATM    3  C   UNL     1      43.015 -16.697   6.583  1.00  0.00     0.197 A 
HETATM    4  N   UNL     1      43.665 -16.662   7.724  1.00  0.00    -0.122 NA
HETATM    5  N   UNL     1      44.080 -15.379   7.941  1.00  0.00    -0.131 NA
ENDROOT
BRANCH   3   6
HETATM    6  S   UNL     1      42.401 -18.159   5.887  1.00  0.00    -0.070 SA
BRANCH   6   7
HETATM    7  C   UNL     1      43.674 -18.567   4.637  1.00  0.00     0.180 C 
BRANCH   7   8
HETATM    8  C   UNL     1      44.075 -20.046   4.766  1.00  0.00     0.244 C 
HETATM    9  N   UNL     1      44.066 -20.765   3.581  1.00  0.00    -0.278 N 
HETATM   10  C   UNL     1      44.582 -22.002   3.331  1.00  0.00     0.320 C 
HETATM   11  H   UNL     1      43.781 -20.301   2.728  1.00  0.00     0.173 HD
HETATM   12  N   UNL     1      45.120 -22.666   4.373  1.00  0.00    -0.352 N 
HETATM   13  O   UNL     1      44.593 -22.470   2.199  1.00  0.00    -0.247 OA
HETATM   14  H   UNL     1      44.887 -22.384   5.318  1.00  0.00     0.160 HD
HETATM   15  H   UNL     1      45.423 -23.617   4.207  1.00  0.00     0.160 HD
HETATM   16  O   UNL     1      44.292 -20.543   5.877  1.00  0.00    -0.271 OA
ENDBRANCH   7   8
BRANCH   7  17
HETATM   17  C   UNL     1      43.335 -18.169   3.203  1.00  0.00    -0.035 A 
HETATM   18  C   UNL     1      44.292 -17.808   2.239  1.00  0.00     0.009 A 
HETATM   19  C   UNL     1      43.904 -17.426   0.952  1.00  0.00     0.001 A 
HETATM   20  C   UNL     1      42.556 -17.384   0.609  1.00  0.00     0.000 A 
HETATM   21  C   UNL     1      41.592 -17.727   1.550  1.00  0.00     0.001 A 
HETATM   22  C   UNL     1      41.976 -18.117   2.833  1.00  0.00     0.009 A 
ENDBRANCH   7  17
ENDBRANCH   6   7
ENDBRANCH   3   6
BRANCH   2  23
HETATM   23  C   UNL     1      42.473 -15.036   4.757  1.00  0.00     0.043 A 
HETATM   24  C   UNL     1      41.082 -15.071   4.565  1.00  0.00     0.033 A 
HETATM   25  C   UNL     1      40.543 -14.668   3.341  1.00  0.00     0.044 A 
HETATM   26  C   UNL     1      41.388 -14.232   2.327  1.00  0.00     0.116 A 
HETATM   27  F   UNL     1      40.864 -13.850   1.156  1.00  0.00    -0.206 F 
HETATM   28  C   UNL     1      42.764 -14.180   2.514  1.00  0.00     0.044 A 
HETATM   29  C   UNL     1      43.314 -14.579   3.734  1.00  0.00     0.033 A 
ENDBRANCH   2  23
BRANCH   1  30
HETATM   30  C   UNL     1      43.745 -13.145   6.920  1.00  0.00     0.255 C 
HETATM   31  C   UNL     1      42.382 -12.601   6.468  1.00  0.00     0.049 C 
BRANCH  30  32
HETATM   32  N   UNL     1      44.100 -12.602   8.325  1.00  0.00    -0.060 N 
HETATM   33  H   UNL     1      43.863 -13.374   8.969  1.00  0.00     0.280 HD
HETATM   34  C   UNL     1      45.599 -12.380   8.463  1.00  0.00     0.236 C 
HETATM   35  C   UNL     1      45.942 -11.967   9.886  1.00  0.00     0.028 C 
HETATM   36  C   UNL     1      45.175 -10.722  10.305  1.00  0.00     0.003 C 
HETATM   37  C   UNL     1      43.679 -10.943  10.143  1.00  0.00     0.028 C 
HETATM   38  C   UNL     1      43.316 -11.374   8.729  1.00  0.00     0.236 C 
ENDBRANCH  30  32
ENDBRANCH   1  30
TORSDOF 7
ENDMDL
MODEL 5
REMARK VINA RESULT:      -8.1      2.681      6.254
REMARK  7 active torsions:
REMARK  status: ('A' for Active; 'I' for Inactive)
REMARK    1  A    between atoms: C_2  and  N_3 
REMARK    2  A    between atoms: C_2  and  C_10 
REMARK    3  A    between atoms: N_11  and  C_12 
REMARK    4  A    between atoms: C_19  and  S_20 
REMARK    5  A    between atoms: S_20  and  C_21 
REMARK    6  A    between atoms: C_21  and  C_22 
REMARK    7  A    between atoms: C_21  and  C_28 
REMARK       I    between atoms: C_22  and  N_23 
REMARK       I    between atoms: N_23  and  C_24 
REMARK       I    between atoms: C_24  and  N_25 
ROOT
HETATM    1  C   UNL     1      41.855 -13.523   2.031  1.00  0.00     0.166 A 
HETATM    2  N   UNL     1      42.071 -14.341   3.134  1.00  0.00    -0.274 N 
HETATM    3  C   UNL     1      41.888 -13.496   4.214  1.00  0.00     0.197 A 
HETATM    4  N   UNL     1      41.650 -12.274   3.794  1.00  0.00    -0.122 NA
HETATM    5  N   UNL     1      41.635 -12.286   2.429  1.00  0.00    -0.131 NA
ENDROOT
BRANCH   3   6
HETATM    6  S   UNL     1      42.083 -13.902   5.886  1.00  0.00    -0.070 SA
BRANCH   6   7
HETATM    7  C   UNL     1      43.769 -14.613   5.927  1.00  0.00     0.180 C 
BRANCH   7   8
HETATM    8  C   UNL     1      44.698 -13.705   6.748  1.00  0.00     0.244 C 
HETATM    9  N   UNL     1      44.112 -13.108   7.854  1.00  0.00    -0.278 N 
HETATM   10  C   UNL     1      44.714 -12.452   8.887  1.00  0.00     0.320 C 
HETATM   11  H   UNL     1      43.131 -13.277   8.041  1.00  0.00     0.173 HD
HETATM   12  N   UNL     1      46.050 -12.288   8.817  1.00  0.00    -0.352 N 
HETATM   13  O   UNL     1      44.072 -12.067   9.857  1.00  0.00    -0.247 OA
HETATM   14  H   UNL     1      46.518 -12.386   7.924  1.00  0.00     0.160 HD
HETATM   15  H   UNL     1      46.483 -11.726   9.537  1.00  0.00     0.160 HD
HETATM   16  O   UNL     1      45.851 -13.474   6.366  1.00  0.00    -0.271 OA
ENDBRANCH   7   8
BRANCH   7  17
HETATM   17  C   UNL     1      43.852 -16.079   6.345  1.00  0.00    -0.035 A 
HETATM   18  C   UNL     1      44.932 -16.925   6.041  1.00  0.00     0.009 A 
HETATM   19  C   UNL     1      44.924 -18.266   6.433  1.00  0.00     0.001 A 
HETATM   20  C   UNL     1      43.835 -18.790   7.122  1.00  0.00     0.000 A 
HETATM   21  C   UNL     1      42.751 -17.974   7.425  1.00  0.00     0.001 A 
HETATM   22  C   UNL     1      42.759 -16.631   7.042  1.00  0.00     0.009 A 
ENDBRANCH   7  17
ENDBRANCH   6   7
ENDBRANCH   3   6
BRANCH   2  23
HETATM   23  C   UNL     1      42.390 -15.720   3.122  1.00  0.00     0.043 A 
HETATM   24  C   UNL     1      41.466 -16.646   3.632  1.00  0.00     0.033 A 
HETATM   25  C   UNL     1      41.776 -18.008   3.620  1.00  0.00     0.044 A 
HETATM   26  C   UNL     1      42.992 -18.433   3.100  1.00  0.00     0.116 A 
HETATM   27  F   UNL     1      43.283 -19.740   3.095  1.00  0.00    -0.206 F 
HETATM   28  C   UNL     1      43.906 -17.524   2.580  1.00  0.00     0.044 A 
HETATM   29  C   UNL     1      43.607 -16.159   2.585  1.00  0.00     0.033 A 
ENDBRANCH   2  23
BRANCH   1  30
HETATM   30  C   UNL     1      41.697 -13.967   0.608  1.00  0.00     0.255 C 
HETATM   31  C   UNL     1      40.408 -14.796   0.509  1.00  0.00     0.049 C 
BRANCH  30  32
HETATM   32  N   UNL     1      41.626 -12.751  -0.346  1.00  0.00    -0.060 N 
HETATM   33  H   UNL     1      41.971 -11.958   0.220  1.00  0.00     0.280 HD
HETATM   34  C   UNL     1      42.603 -12.903  -1.502  1.00  0.00     0.236 C 
HETATM   35  C   UNL     1      42.610 -11.645  -2.357  1.00  0.00     0.028 C 
HETATM   36  C   UNL     1      41.217 -11.314  -2.871  1.00  0.00     0.003 C 
HETATM   37  C   UNL     1      40.241 -11.186  -1.712  1.00  0.00     0.028 C 
HETATM   38  C   UNL     1      40.232 -12.428  -0.833  1.00  0.00     0.236 C 
ENDBRANCH  30  32
ENDBRANCH   1  30
TORSDOF 7
ENDMDL
MODEL 6
REMARK VINA RESULT:      -8.1      3.885      7.634
REMARK  7 active torsions:
REMARK  status: ('A' for Active; 'I' for Inactive)
REMARK    1  A    between atoms: C_2  and  N_3 
REMARK    2  A    between atoms: C_2  and  C_10 
REMARK    3  A    between atoms: N_11  and  C_12 
REMARK    4  A    between atoms: C_19  and  S_20 
REMARK    5  A    between atoms: S_20  and  C_21 
REMARK    6  A    between atoms: C_21  and  C_22 
REMARK    7  A    between atoms: C_21  and  C_28 
REMARK       I    between atoms: C_22  and  N_23 
REMARK       I    between atoms: N_23  and  C_24 
REMARK       I    between atoms: C_24  and  N_25 
ROOT
HETATM    1  C   UNL     1      41.654 -12.599   0.319  1.00  0.00     0.166 A 
HETATM    2  N   UNL     1      41.203 -13.879   0.016  1.00  0.00    -0.274 N 
HETATM    3  C   UNL     1      41.681 -14.653   1.059  1.00  0.00     0.197 A 
HETATM    4  N   UNL     1      42.404 -13.916   1.872  1.00  0.00    -0.122 NA
HETATM    5  N   UNL     1      42.394 -12.632   1.408  1.00  0.00    -0.131 NA
ENDROOT
BRANCH   3   6
HETATM    6  S   UNL     1      41.510 -16.367   1.234  1.00  0.00    -0.070 SA
BRANCH   6   7
HETATM    7  C   UNL     1      42.402 -16.697   2.797  1.00  0.00     0.180 C 
BRANCH   7   8
HETATM    8  C   UNL     1      41.477 -16.420   3.993  1.00  0.00     0.244 C 
HETATM    9  N   UNL     1      41.638 -15.178   4.588  1.00  0.00    -0.278 N 
HETATM   10  C   UNL     1      40.832 -14.557   5.497  1.00  0.00     0.320 C 
HETATM   11  H   UNL     1      42.348 -14.551   4.231  1.00  0.00     0.173 HD
HETATM   12  N   UNL     1      39.764 -15.248   5.945  1.00  0.00    -0.352 N 
HETATM   13  O   UNL     1      41.046 -13.406   5.856  1.00  0.00    -0.247 OA
HETATM   14  H   UNL     1      39.740 -16.255   5.834  1.00  0.00     0.160 HD
HETATM   15  H   UNL     1      39.218 -14.824   6.682  1.00  0.00     0.160 HD
HETATM   16  O   UNL     1      40.724 -17.302   4.423  1.00  0.00    -0.271 OA
ENDBRANCH   7   8
BRANCH   7  17
HETATM   17  C   UNL     1      43.092 -18.056   2.885  1.00  0.00    -0.035 A 
HETATM   18  C   UNL     1      43.974 -18.427   3.913  1.00  0.00     0.009 A 
HETATM   19  C   UNL     1      44.592 -19.681   3.911  1.00  0.00     0.001 A 
HETATM   20  C   UNL     1      44.351 -20.579   2.876  1.00  0.00     0.000 A 
HETATM   21  C   UNL     1      43.490 -20.230   1.843  1.00  0.00     0.001 A 
HETATM   22  C   UNL     1      42.865 -18.982   1.847  1.00  0.00     0.009 A 
ENDBRANCH   7  17
ENDBRANCH   6   7
ENDBRANCH   3   6
BRANCH   2  23
HETATM   23  C   UNL     1      40.426 -14.267  -1.101  1.00  0.00     0.043 A 
HETATM   24  C   UNL     1      41.031 -14.973  -2.152  1.00  0.00     0.033 A 
HETATM   25  C   UNL     1      40.267 -15.359  -3.255  1.00  0.00     0.044 A 
HETATM   26  C   UNL     1      38.914 -15.046  -3.300  1.00  0.00     0.116 A 
HETATM   27  F   UNL     1      38.189 -15.417  -4.361  1.00  0.00    -0.206 F 
HETATM   28  C   UNL     1      38.304 -14.360  -2.256  1.00  0.00     0.044 A 
HETATM   29  C   UNL     1      39.057 -13.969  -1.147  1.00  0.00     0.033 A 
ENDBRANCH   2  23
BRANCH   1  30
HETATM   30  C   UNL     1      41.233 -11.324  -0.350  1.00  0.00     0.255 C 
HETATM   31  C   UNL     1      42.206 -10.218   0.083  1.00  0.00     0.049 C 
BRANCH  30  32
HETATM   32  N   UNL     1      41.247 -11.478  -1.889  1.00  0.00    -0.060 N 
HETATM   33  H   UNL     1      40.749 -12.367  -2.065  1.00  0.00     0.280 HD
HETATM   34  C   UNL     1      40.419 -10.390  -2.556  1.00  0.00     0.236 C 
HETATM   35  C   UNL     1      40.340 -10.629  -4.056  1.00  0.00     0.028 C 
HETATM   36  C   UNL     1      41.725 -10.709  -4.680  1.00  0.00     0.003 C 
HETATM   37  C   UNL     1      42.555 -11.783  -3.994  1.00  0.00     0.028 C 
HETATM   38  C   UNL     1      42.631 -11.571  -2.489  1.00  0.00     0.236 C 
ENDBRANCH  30  32
ENDBRANCH   1  30
TORSDOF 7
ENDMDL
MODEL 7
REMARK VINA RESULT:      -7.9      3.103      7.428
REMARK  7 active torsions:
REMARK  status: ('A' for Active; 'I' for Inactive)
REMARK    1  A    between atoms: C_2  and  N_3 
REMARK    2  A    between atoms: C_2  and  C_10 
REMARK    3  A    between atoms: N_11  and  C_12 
REMARK    4  A    between atoms: C_19  and  S_20 
REMARK    5  A    between atoms: S_20  and  C_21 
REMARK    6  A    between atoms: C_21  and  C_22 
REMARK    7  A    between atoms: C_21  and  C_28 
REMARK       I    between atoms: C_22  and  N_23 
REMARK       I    between atoms: N_23  and  C_24 
REMARK       I    between atoms: C_24  and  N_25 
ROOT
HETATM    1  C   UNL     1      41.391 -14.192   0.059  1.00  0.00     0.166 A 
HETATM    2  N   UNL     1      41.271 -14.830   1.289  1.00  0.00    -0.274 N 
HETATM    3  C   UNL     1      41.301 -16.175   0.967  1.00  0.00     0.197 A 
HETATM    4  N   UNL     1      41.366 -16.325  -0.336  1.00  0.00    -0.122 NA
HETATM    5  N   UNL     1      41.416 -15.086  -0.908  1.00  0.00    -0.131 NA
ENDROOT
BRANCH   3   6
HETATM    6  S   UNL     1      41.127 -17.502   2.066  1.00  0.00    -0.070 SA
BRANCH   6   7
HETATM    7  C   UNL     1      42.784 -17.597   2.838  1.00  0.00     0.180 C 
BRANCH   7   8
HETATM    8  C   UNL     1      42.760 -16.903   4.209  1.00  0.00     0.244 C 
HETATM    9  N   UNL     1      41.555 -16.982   4.889  1.00  0.00    -0.278 N 
HETATM   10  C   UNL     1      41.289 -16.678   6.192  1.00  0.00     0.320 C 
HETATM   11  H   UNL     1      40.774 -17.454   4.451  1.00  0.00     0.173 HD
HETATM   12  N   UNL     1      42.301 -16.167   6.923  1.00  0.00    -0.352 N 
HETATM   13  O   UNL     1      40.191 -16.900   6.687  1.00  0.00    -0.247 OA
HETATM   14  H   UNL     1      43.104 -15.768   6.451  1.00  0.00     0.160 HD
HETATM   15  H   UNL     1      42.082 -15.860   7.861  1.00  0.00     0.160 HD
HETATM   16  O   UNL     1      43.735 -16.252   4.601  1.00  0.00    -0.271 OA
ENDBRANCH   7   8
BRANCH   7  17
HETATM   17  C   UNL     1      43.404 -18.991   2.891  1.00  0.00    -0.035 A 
HETATM   18  C   UNL     1      44.289 -19.422   3.892  1.00  0.00     0.009 A 
HETATM   19  C   UNL     1      44.841 -20.706   3.858  1.00  0.00     0.001 A 
HETATM   20  C   UNL     1      44.529 -21.576   2.818  1.00  0.00     0.000 A 
HETATM   21  C   UNL     1      43.663 -21.167   1.811  1.00  0.00     0.001 A 
HETATM   22  C   UNL     1      43.104 -19.889   1.846  1.00  0.00     0.009 A 
ENDBRANCH   7  17
ENDBRANCH   6   7
ENDBRANCH   3   6
BRANCH   2  23
HETATM   23  C   UNL     1      41.160 -14.217   2.559  1.00  0.00     0.043 A 
HETATM   24  C   UNL     1      42.277 -13.576   3.116  1.00  0.00     0.033 A 
HETATM   25  C   UNL     1      42.172 -12.968   4.369  1.00  0.00     0.044 A 
HETATM   26  C   UNL     1      40.961 -12.999   5.050  1.00  0.00     0.116 A 
HETATM   27  F   UNL     1      40.868 -12.416   6.251  1.00  0.00    -0.206 F 
HETATM   28  C   UNL     1      39.846 -13.618   4.498  1.00  0.00     0.044 A 
HETATM   29  C   UNL     1      39.938 -14.229   3.246  1.00  0.00     0.033 A 
ENDBRANCH   2  23
BRANCH   1  30
HETATM   30  C   UNL     1      41.648 -12.732  -0.167  1.00  0.00     0.255 C 
HETATM   31  C   UNL     1      42.275 -12.569  -1.559  1.00  0.00     0.049 C 
BRANCH  30  32
HETATM   32  N   UNL     1      40.334 -11.920  -0.073  1.00  0.00    -0.060 N 
HETATM   33  H   UNL     1      40.371 -11.274  -0.879  1.00  0.00     0.280 HD
HETATM   34  C   UNL     1      39.122 -12.811  -0.300  1.00  0.00     0.236 C 
HETATM   35  C   UNL     1      37.850 -11.977  -0.329  1.00  0.00     0.028 C 
HETATM   36  C   UNL     1      37.688 -11.165   0.947  1.00  0.00     0.003 C 
HETATM   37  C   UNL     1      38.913 -10.293   1.179  1.00  0.00     0.028 C 
HETATM   38  C   UNL     1      40.198 -11.108   1.195  1.00  0.00     0.236 C 
ENDBRANCH  30  32
ENDBRANCH   1  30
TORSDOF 7
ENDMDL
MODEL 8
REMARK VINA RESULT:      -7.9      2.424      6.422
REMARK  7 active torsions:
REMARK  status: ('A' for Active; 'I' for Inactive)
REMARK    1  A    between atoms: C_2  and  N_3 
REMARK    2  A    between atoms: C_2  and  C_10 
REMARK    3  A    between atoms: N_11  and  C_12 
REMARK    4  A    between atoms: C_19  and  S_20 
REMARK    5  A    between atoms: S_20  and  C_21 
REMARK    6  A    between atoms: C_21  and  C_22 
REMARK    7  A    between atoms: C_21  and  C_28 
REMARK       I    between atoms: C_22  and  N_23 
REMARK       I    between atoms: N_23  and  C_24 
REMARK       I    between atoms: C_24  and  N_25 
ROOT
HETATM    1  C   UNL     1      41.044 -12.014   2.830  1.00  0.00     0.166 A 
HETATM    2  N   UNL     1      41.212 -13.287   3.363  1.00  0.00    -0.274 N 
HETATM    3  C   UNL     1      41.397 -13.057   4.715  1.00  0.00     0.197 A 
HETATM    4  N   UNL     1      41.405 -11.765   4.955  1.00  0.00    -0.122 NA
HETATM    5  N   UNL     1      41.190 -11.110   3.776  1.00  0.00    -0.131 NA
ENDROOT
BRANCH   3   6
HETATM    6  S   UNL     1      41.727 -14.248   5.928  1.00  0.00    -0.070 SA
BRANCH   6   7
HETATM    7  C   UNL     1      43.427 -14.781   5.507  1.00  0.00     0.180 C 
BRANCH   7   8
HETATM    8  C   UNL     1      44.447 -13.915   6.264  1.00  0.00     0.244 C 
HETATM    9  N   UNL     1      44.072 -13.547   7.547  1.00  0.00    -0.278 N 
HETATM   10  C   UNL     1      44.834 -12.992   8.532  1.00  0.00     0.320 C 
HETATM   11  H   UNL     1      43.167 -13.838   7.896  1.00  0.00     0.173 HD
HETATM   12  N   UNL     1      46.111 -12.687   8.224  1.00  0.00    -0.352 N 
HETATM   13  O   UNL     1      44.389 -12.819   9.660  1.00  0.00    -0.247 OA
HETATM   14  H   UNL     1      46.383 -12.606   7.251  1.00  0.00     0.160 HD
HETATM   15  H   UNL     1      46.649 -12.197   8.925  1.00  0.00     0.160 HD
HETATM   16  O   UNL     1      45.473 -13.516   5.701  1.00  0.00    -0.271 OA
ENDBRANCH   7   8
BRANCH   7  17
HETATM   17  C   UNL     1      43.699 -16.276   5.650  1.00  0.00    -0.035 A 
HETATM   18  C   UNL     1      44.541 -16.834   6.627  1.00  0.00     0.009 A 
HETATM   19  C   UNL     1      44.765 -18.212   6.677  1.00  0.00     0.001 A 
HETATM   20  C   UNL     1      44.167 -19.056   5.746  1.00  0.00     0.000 A 
HETATM   21  C   UNL     1      43.339 -18.524   4.764  1.00  0.00     0.001 A 
HETATM   22  C   UNL     1      43.105 -17.149   4.716  1.00  0.00     0.009 A 
ENDBRANCH   7  17
ENDBRANCH   6   7
ENDBRANCH   3   6
BRANCH   2  23
HETATM   23  C   UNL     1      41.181 -14.516   2.662  1.00  0.00     0.043 A 
HETATM   24  C   UNL     1      40.035 -15.324   2.734  1.00  0.00     0.033 A 
HETATM   25  C   UNL     1      40.000 -16.536   2.042  1.00  0.00     0.044 A 
HETATM   26  C   UNL     1      41.097 -16.929   1.285  1.00  0.00     0.116 A 
HETATM   27  F   UNL     1      41.056 -18.093   0.626  1.00  0.00    -0.206 F 
HETATM   28  C   UNL     1      42.229 -16.128   1.196  1.00  0.00     0.044 A 
HETATM   29  C   UNL     1      42.276 -14.912   1.882  1.00  0.00     0.033 A 
ENDBRANCH   2  23
BRANCH   1  30
HETATM   30  C   UNL     1      40.579 -11.683   1.443  1.00  0.00     0.255 C 
HETATM   31  C   UNL     1      39.667 -10.450   1.529  1.00  0.00     0.049 C 
BRANCH  30  32
HETATM   32  N   UNL     1      41.781 -11.397   0.512  1.00  0.00    -0.060 N 
HETATM   33  H   UNL     1      42.592 -11.807   1.003  1.00  0.00     0.280 HD
HETATM   34  C   UNL     1      41.651 -12.156  -0.800  1.00  0.00     0.236 C 
HETATM   35  C   UNL     1      42.898 -11.963  -1.649  1.00  0.00     0.028 C 
HETATM   36  C   UNL     1      43.172 -10.489  -1.907  1.00  0.00     0.003 C 
HETATM   37  C   UNL     1      43.279  -9.732  -0.592  1.00  0.00     0.028 C 
HETATM   38  C   UNL     1      42.047  -9.927   0.280  1.00  0.00     0.236 C 
ENDBRANCH  30  32
ENDBRANCH   1  30
TORSDOF 7
ENDMDL
MODEL 9
REMARK VINA RESULT:      -7.8      3.432      6.658
REMARK  7 active torsions:
REMARK  status: ('A' for Active; 'I' for Inactive)
REMARK    1  A    between atoms: C_2  and  N_3 
REMARK    2  A    between atoms: C_2  and  C_10 
REMARK    3  A    between atoms: N_11  and  C_12 
REMARK    4  A    between atoms: C_19  and  S_20 
REMARK    5  A    between atoms: S_20  and  C_21 
REMARK    6  A    between atoms: C_21  and  C_22 
REMARK    7  A    between atoms: C_21  and  C_28 
REMARK       I    between atoms: C_22  and  N_23 
REMARK       I    between atoms: N_23  and  C_24 
REMARK       I    between atoms: C_24  and  N_25 
ROOT
HETATM    1  C   UNL     1      41.037 -13.840   0.305  1.00  0.00     0.166 A 
HETATM    2  N   UNL     1      41.133 -14.671   1.416  1.00  0.00    -0.274 N 
HETATM    3  C   UNL     1      40.354 -14.039   2.370  1.00  0.00     0.197 A 
HETATM    4  N   UNL     1      39.892 -12.905   1.894  1.00  0.00    -0.122 NA
HETATM    5  N   UNL     1      40.323 -12.775   0.605  1.00  0.00    -0.131 NA
ENDROOT
BRANCH   3   6
HETATM    6  S   UNL     1      40.118 -14.545   4.009  1.00  0.00    -0.070 SA
BRANCH   6   7
HETATM    7  C   UNL     1      41.797 -14.384   4.719  1.00  0.00     0.180 C 
BRANCH   7   8
HETATM    8  C   UNL     1      41.816 -13.252   5.759  1.00  0.00     0.244 C 
HETATM    9  N   UNL     1      40.601 -12.615   5.960  1.00  0.00    -0.278 N 
HETATM   10  C   UNL     1      40.245 -11.752   6.954  1.00  0.00     0.320 C 
HETATM   11  H   UNL     1      39.799 -12.903   5.413  1.00  0.00     0.173 HD
HETATM   12  N   UNL     1      41.203 -11.401   7.836  1.00  0.00    -0.352 N 
HETATM   13  O   UNL     1      39.094 -11.349   7.065  1.00  0.00    -0.247 OA
HETATM   14  H   UNL     1      42.177 -11.539   7.594  1.00  0.00     0.160 HD
HETATM   15  H   UNL     1      40.963 -10.695   8.518  1.00  0.00     0.160 HD
HETATM   16  O   UNL     1      42.878 -12.901   6.286  1.00  0.00    -0.271 OA
ENDBRANCH   7   8
BRANCH   7  17
HETATM   17  C   UNL     1      42.414 -15.678   5.243  1.00  0.00    -0.035 A 
HETATM   18  C   UNL     1      43.667 -15.754   5.873  1.00  0.00     0.009 A 
HETATM   19  C   UNL     1      44.181 -16.982   6.300  1.00  0.00     0.001 A 
HETATM   20  C   UNL     1      43.461 -18.155   6.094  1.00  0.00     0.000 A 
HETATM   21  C   UNL     1      42.224 -18.104   5.463  1.00  0.00     0.001 A 
HETATM   22  C   UNL     1      41.704 -16.879   5.043  1.00  0.00     0.009 A 
ENDBRANCH   7  17
ENDBRANCH   6   7
ENDBRANCH   3   6
BRANCH   2  23
HETATM   23  C   UNL     1      41.856 -15.883   1.513  1.00  0.00     0.043 A 
HETATM   24  C   UNL     1      43.243 -15.845   1.723  1.00  0.00     0.033 A 
HETATM   25  C   UNL     1      43.960 -17.039   1.822  1.00  0.00     0.044 A 
HETATM   26  C   UNL     1      43.293 -18.254   1.716  1.00  0.00     0.116 A 
HETATM   27  F   UNL     1      43.988 -19.394   1.810  1.00  0.00    -0.206 F 
HETATM   28  C   UNL     1      41.918 -18.300   1.524  1.00  0.00     0.044 A 
HETATM   29  C   UNL     1      41.189 -17.113   1.425  1.00  0.00     0.033 A 
ENDBRANCH   2  23
BRANCH   1  30
HETATM   30  C   UNL     1      41.495 -14.157  -1.087  1.00  0.00     0.255 C 
HETATM   31  C   UNL     1      40.566 -15.237  -1.659  1.00  0.00     0.049 C 
BRANCH  30  32
HETATM   32  N   UNL     1      41.460 -12.893  -1.980  1.00  0.00    -0.060 N 
HETATM   33  H   UNL     1      40.896 -12.213  -1.444  1.00  0.00     0.280 HD
HETATM   34  C   UNL     1      42.846 -12.281  -2.116  1.00  0.00     0.236 C 
HETATM   35  C   UNL     1      42.772 -10.973  -2.890  1.00  0.00     0.028 C 
HETATM   36  C   UNL     1      42.137 -11.172  -4.257  1.00  0.00     0.003 C 
HETATM   37  C   UNL     1      40.761 -11.805  -4.115  1.00  0.00     0.028 C 
HETATM   38  C   UNL     1      40.811 -13.107  -3.328  1.00  0.00     0.236 C 
ENDBRANCH  30  32
ENDBRANCH   1  30
TORSDOF 7
ENDMDL
MODEL 10
REMARK VINA RESULT:      -7.5      2.581      7.081
REMARK  7 active torsions:
REMARK  status: ('A' for Active; 'I' for Inactive)
REMARK    1  A    between atoms: C_2  and  N_3 
REMARK    2  A    between atoms: C_2  and  C_10 
REMARK    3  A    between atoms: N_11  and  C_12 
REMARK    4  A    between atoms: C_19  and  S_20 
REMARK    5  A    between atoms: S_20  and  C_21 
REMARK    6  A    between atoms: C_21  and  C_22 
REMARK    7  A    between atoms: C_21  and  C_28 
REMARK       I    between atoms: C_22  and  N_23 
REMARK       I    between atoms: N_23  and  C_24 
REMARK       I    between atoms: C_24  and  N_25 
ROOT
HETATM    1  C   UNL     1      42.016 -13.218   3.793  1.00  0.00     0.166 A 
HETATM    2  N   UNL     1      42.037 -14.143   2.755  1.00  0.00    -0.274 N 
HETATM    3  C   UNL     1      42.952 -15.091   3.176  1.00  0.00     0.197 A 
HETATM    4  N   UNL     1      43.478 -14.731   4.325  1.00  0.00    -0.122 NA
HETATM    5  N   UNL     1      42.899 -13.556   4.711  1.00  0.00    -0.131 NA
ENDROOT
BRANCH   3   6
HETATM    6  S   UNL     1      43.478 -16.482   2.289  1.00  0.00    -0.070 SA
BRANCH   6   7
HETATM    7  C   UNL     1      43.741 -17.719   3.612  1.00  0.00     0.180 C 
BRANCH   7   8
HETATM    8  C   UNL     1      42.638 -17.588   4.674  1.00  0.00     0.244 C 
HETATM    9  N   UNL     1      43.088 -17.473   5.981  1.00  0.00    -0.278 N 
HETATM   10  C   UNL     1      42.387 -17.118   7.095  1.00  0.00     0.320 C 
HETATM   11  H   UNL     1      44.083 -17.505   6.162  1.00  0.00     0.173 HD
HETATM   12  N   UNL     1      41.063 -16.910   6.949  1.00  0.00    -0.352 N 
HETATM   13  O   UNL     1      42.945 -16.953   8.173  1.00  0.00    -0.247 OA
HETATM   14  H   UNL     1      40.587 -17.280   6.135  1.00  0.00     0.160 HD
HETATM   15  H   UNL     1      40.529 -16.733   7.789  1.00  0.00     0.160 HD
HETATM   16  O   UNL     1      41.446 -17.679   4.357  1.00  0.00    -0.271 OA
ENDBRANCH   7   8
BRANCH   7  17
HETATM   17  C   UNL     1      43.937 -19.156   3.136  1.00  0.00    -0.035 A 
HETATM   18  C   UNL     1      43.406 -19.669   1.941  1.00  0.00     0.009 A 
HETATM   19  C   UNL     1      43.602 -21.007   1.584  1.00  0.00     0.001 A 
HETATM   20  C   UNL     1      44.319 -21.858   2.420  1.00  0.00     0.000 A 
HETATM   21  C   UNL     1      44.844 -21.374   3.613  1.00  0.00     0.001 A 
HETATM   22  C   UNL     1      44.657 -20.037   3.968  1.00  0.00     0.009 A 
ENDBRANCH   7  17
ENDBRANCH   6   7
ENDBRANCH   3   6
BRANCH   2  23
HETATM   23  C   UNL     1      41.275 -14.104   1.564  1.00  0.00     0.043 A 
HETATM   24  C   UNL     1      40.024 -14.740   1.523  1.00  0.00     0.033 A 
HETATM   25  C   UNL     1      39.267 -14.702   0.350  1.00  0.00     0.044 A 
HETATM   26  C   UNL     1      39.757 -14.031  -0.764  1.00  0.00     0.116 A 
HETATM   27  F   UNL     1      39.027 -14.001  -1.885  1.00  0.00    -0.206 F 
HETATM   28  C   UNL     1      40.987 -13.385  -0.727  1.00  0.00     0.044 A 
HETATM   29  C   UNL     1      41.753 -13.415   0.441  1.00  0.00     0.033 A 
ENDBRANCH   2  23
BRANCH   1  30
HETATM   30  C   UNL     1      41.031 -12.102   3.974  1.00  0.00     0.255 C 
HETATM   31  C   UNL     1      39.703 -12.713   4.443  1.00  0.00     0.049 C 
BRANCH  30  32
HETATM   32  N   UNL     1      41.544 -11.075   5.011  1.00  0.00    -0.060 N 
HETATM   33  H   UNL     1      42.573 -11.103   4.916  1.00  0.00     0.280 HD
HETATM   34  C   UNL     1      41.123  -9.662   4.638  1.00  0.00     0.236 C 
HETATM   35  C   UNL     1      41.741  -8.655   5.596  1.00  0.00     0.028 C 
HETATM   36  C   UNL     1      41.371  -8.962   7.039  1.00  0.00     0.003 C 
HETATM   37  C   UNL     1      41.774 -10.383   7.399  1.00  0.00     0.028 C 
HETATM   38  C   UNL     1      41.180 -11.405   6.441  1.00  0.00     0.236 C 
ENDBRANCH  30  32
ENDBRANCH   1  30
TORSDOF 7
ENDMDL
