MODEL 1
REMARK VINA RESULT:      -9.4      0.000      0.000
REMARK  6 active torsions:
REMARK  status: ('A' for Active; 'I' for Inactive)
REMARK    1  A    between atoms: N_2  and  C_5 
REMARK    2  A    between atoms: C_10  and  N_11 
REMARK       I    between atoms: N_11  and  C_12 
REMARK    3  A    between atoms: C_12  and  C_14 
REMARK    4  A    between atoms: C_18  and  C_20 
REMARK       I    between atoms: N_24  and  C_25 
REMARK    5  A    between atoms: C_25  and  C_27 
REMARK    6  A    between atoms: C_32  and  O_33 
ROOT
HETATM    1  C   UNL     1      42.239 -17.403   2.326  1.00  0.00     0.033 A 
HETATM    2  C   UNL     1      43.481 -17.633   1.720  1.00  0.00     0.017 A 
HETATM    3  C   UNL     1      44.511 -18.247   2.431  1.00  0.00     0.002 A 
HETATM    4  C   UNL     1      44.309 -18.638   3.754  1.00  0.00     0.009 A 
HETATM    5  C   UNL     1      43.073 -18.421   4.384  1.00  0.00    -0.034 A 
HETATM    6  C   UNL     1      42.034 -17.820   3.649  1.00  0.00     0.026 A 
ENDROOT
BRANCH   5   7
HETATM    7  C   UNL     1      42.845 -18.809   5.830  1.00  0.00     0.120 C 
HETATM    8  C   UNL     1      43.355 -20.230   6.123  1.00  0.00     0.032 C 
HETATM    9  C   UNL     1      43.691 -20.180   7.607  1.00  0.00     0.022 C 
HETATM   10  C   UNL     1      44.268 -18.783   7.775  1.00  0.00     0.127 C 
HETATM   11  N   UNL     1      43.537 -17.970   6.817  1.00  0.00    -0.339 N 
HETATM   12  C   UNL     1      43.447 -16.602   7.006  1.00  0.00     0.254 C 
HETATM   13  O   UNL     1      44.032 -15.996   7.898  1.00  0.00    -0.267 OA
BRANCH  12  14
HETATM   14  C   UNL     1      42.629 -15.819   6.063  1.00  0.00     0.033 A 
HETATM   15  C   UNL     1      41.245 -15.810   6.230  1.00  0.00     0.018 A 
HETATM   16  C   UNL     1      40.459 -15.008   5.405  1.00  0.00     0.013 A 
HETATM   17  C   UNL     1      41.046 -14.232   4.394  1.00  0.00    -0.023 A 
HETATM   18  C   UNL     1      40.265 -13.403   3.573  1.00  0.00     0.048 A 
HETATM   19  C   UNL     1      42.449 -14.289   4.194  1.00  0.00    -0.025 A 
HETATM   20  C   UNL     1      40.865 -12.657   2.563  1.00  0.00     0.066 A 
HETATM   21  C   UNL     1      42.234 -12.725   2.345  1.00  0.00     0.037 A 
HETATM   22  C   UNL     1      43.026 -13.535   3.158  1.00  0.00     0.015 A 
HETATM   23  C   UNL     1      43.234 -15.091   5.034  1.00  0.00     0.029 A 
BRANCH  20  24
HETATM   24  O   UNL     1      40.132 -11.837   1.756  1.00  0.00    -0.361 OA
HETATM   25  H   UNL     1      39.528 -11.318   2.315  1.00  0.00     0.217 HD
ENDBRANCH  20  24
ENDBRANCH  12  14
ENDBRANCH   5   7
BRANCH   1  26
HETATM   26  C   UNL     1      41.162 -16.769   1.506  1.00  0.00     0.257 C 
HETATM   27  N   UNL     1      41.589 -15.981   0.460  1.00  0.00    -0.301 N 
HETATM   28  H   UNL     1      42.558 -15.951   0.181  1.00  0.00     0.171 HD
HETATM   29  O   UNL     1      39.997 -16.998   1.815  1.00  0.00    -0.267 OA
BRANCH  27  30
HETATM   30  C   UNL     1      40.713 -15.232  -0.276  1.00  0.00     0.174 A 
HETATM   31  N   UNL     1      39.804 -14.379   0.128  1.00  0.00    -0.228 NA
HETATM   32  C   UNL     1      39.171 -13.829  -0.955  1.00  0.00     0.050 A 
HETATM   33  C   UNL     1      38.084 -12.827  -0.778  1.00  0.00     0.062 C 
HETATM   34  C   UNL     1      39.643 -14.242  -2.183  1.00  0.00     0.013 A 
HETATM   35  C   UNL     1      37.297 -12.634  -2.088  1.00  0.00     0.039 C 
HETATM   36  C   UNL     1      38.256 -12.504  -3.294  1.00  0.00     0.192 C 
HETATM   37  C   UNL     1      39.126 -13.779  -3.501  1.00  0.00     0.081 C 
HETATM   38  S   UNL     1      40.876 -15.401  -1.975  1.00  0.00    -0.055 SA
BRANCH  36  39
HETATM   39  N   UNL     1      37.509 -12.138  -4.583  1.00  0.00    -0.074 N 
HETATM   40  C   UNL     1      36.069 -12.582  -4.660  1.00  0.00     0.269 C 
HETATM   41  H   UNL     1      37.997 -12.634  -5.343  1.00  0.00     0.279 HD
HETATM   42  C   UNL     1      37.636 -10.674  -4.934  1.00  0.00     0.269 C 
ENDBRANCH  36  39
ENDBRANCH  27  30
ENDBRANCH   1  26
TORSDOF 6
ENDMDL
MODEL 2
REMARK VINA RESULT:      -9.1      6.670     10.431
REMARK  6 active torsions:
REMARK  status: ('A' for Active; 'I' for Inactive)
REMARK    1  A    between atoms: N_2  and  C_5 
REMARK    2  A    between atoms: C_10  and  N_11 
REMARK       I    between atoms: N_11  and  C_12 
REMARK    3  A    between atoms: C_12  and  C_14 
REMARK    4  A    between atoms: C_18  and  C_20 
REMARK       I    between atoms: N_24  and  C_25 
REMARK    5  A    between atoms: C_25  and  C_27 
REMARK    6  A    between atoms: C_32  and  O_33 
ROOT
HETATM    1  C   UNL     1      43.813 -11.768   8.803  1.00  0.00     0.033 A 
HETATM    2  C   UNL     1      44.417 -11.399  10.011  1.00  0.00     0.017 A 
HETATM    3  C   UNL     1      43.981 -10.270  10.703  1.00  0.00     0.002 A 
HETATM    4  C   UNL     1      42.937  -9.500  10.193  1.00  0.00     0.009 A 
HETATM    5  C   UNL     1      42.313  -9.849   8.985  1.00  0.00    -0.034 A 
HETATM    6  C   UNL     1      42.748 -11.003   8.306  1.00  0.00     0.026 A 
ENDROOT
BRANCH   5   7
HETATM    7  C   UNL     1      41.199  -9.006   8.399  1.00  0.00     0.120 C 
HETATM    8  C   UNL     1      41.452  -8.684   6.916  1.00  0.00     0.032 C 
HETATM    9  C   UNL     1      40.049  -8.494   6.357  1.00  0.00     0.022 C 
HETATM   10  C   UNL     1      39.246  -9.552   7.098  1.00  0.00     0.127 C 
HETATM   11  N   UNL     1      39.872  -9.634   8.407  1.00  0.00    -0.339 N 
HETATM   12  C   UNL     1      39.151 -10.119   9.484  1.00  0.00     0.254 C 
HETATM   13  O   UNL     1      38.018 -10.584   9.393  1.00  0.00    -0.267 OA
BRANCH  12  14
HETATM   14  C   UNL     1      39.787 -10.111  10.813  1.00  0.00     0.033 A 
HETATM   15  C   UNL     1      40.269 -11.313  11.329  1.00  0.00     0.018 A 
HETATM   16  C   UNL     1      40.951 -11.315  12.544  1.00  0.00     0.013 A 
HETATM   17  C   UNL     1      41.134 -10.122  13.262  1.00  0.00    -0.023 A 
HETATM   18  C   UNL     1      41.840 -10.111  14.475  1.00  0.00     0.048 A 
HETATM   19  C   UNL     1      40.593  -8.912  12.757  1.00  0.00    -0.025 A 
HETATM   20  C   UNL     1      41.993  -8.921  15.180  1.00  0.00     0.066 A 
HETATM   21  C   UNL     1      41.446  -7.736  14.706  1.00  0.00     0.037 A 
HETATM   22  C   UNL     1      40.751  -7.729  13.497  1.00  0.00     0.015 A 
HETATM   23  C   UNL     1      39.915  -8.918  11.529  1.00  0.00     0.029 A 
BRANCH  20  24
HETATM   24  O   UNL     1      42.681  -8.878  16.358  1.00  0.00    -0.361 OA
HETATM   25  H   UNL     1      42.132  -8.415  17.015  1.00  0.00     0.217 HD
ENDBRANCH  20  24
ENDBRANCH  12  14
ENDBRANCH   5   7
BRANCH   1  26
HETATM   26  C   UNL     1      44.301 -13.005   8.120  1.00  0.00     0.257 C 
HETATM   27  N   UNL     1      43.425 -13.582   7.226  1.00  0.00    -0.301 N 
HETATM   28  H   UNL     1      42.572 -13.121   6.947  1.00  0.00     0.171 HD
HETATM   29  O   UNL     1      45.427 -13.406   8.395  1.00  0.00    -0.267 OA
BRANCH  27  30
HETATM   30  C   UNL     1      43.690 -14.791   6.644  1.00  0.00     0.174 A 
HETATM   31  N   UNL     1      44.177 -15.884   7.179  1.00  0.00    -0.228 NA
HETATM   32  C   UNL     1      44.247 -16.871   6.233  1.00  0.00     0.050 A 
HETATM   33  C   UNL     1      44.774 -18.222   6.575  1.00  0.00     0.062 C 
HETATM   34  C   UNL     1      43.764 -16.527   4.988  1.00  0.00     0.013 A 
HETATM   35  C   UNL     1      45.090 -19.026   5.300  1.00  0.00     0.039 C 
HETATM   36  C   UNL     1      43.945 -18.900   4.270  1.00  0.00     0.192 C 
HETATM   37  C   UNL     1      43.723 -17.430   3.804  1.00  0.00     0.081 C 
HETATM   38  S   UNL     1      43.264 -14.897   4.986  1.00  0.00    -0.055 SA
BRANCH  36  39
HETATM   39  N   UNL     1      44.153 -19.827   3.065  1.00  0.00    -0.074 N 
HETATM   40  C   UNL     1      44.374 -21.284   3.385  1.00  0.00     0.269 C 
HETATM   41  H   UNL     1      45.019 -19.506   2.607  1.00  0.00     0.279 HD
HETATM   42  C   UNL     1      43.079 -19.667   2.015  1.00  0.00     0.269 C 
ENDBRANCH  36  39
ENDBRANCH  27  30
ENDBRANCH   1  26
TORSDOF 6
ENDMDL
MODEL 3
REMARK VINA RESULT:      -9.1      2.823      9.746
REMARK  6 active torsions:
REMARK  status: ('A' for Active; 'I' for Inactive)
REMARK    1  A    between atoms: N_2  and  C_5 
REMARK    2  A    between atoms: C_10  and  N_11 
REMARK       I    between atoms: N_11  and  C_12 
REMARK    3  A    between atoms: C_12  and  C_14 
REMARK    4  A    between atoms: C_18  and  C_20 
REMARK       I    between atoms: N_24  and  C_25 
REMARK    5  A    between atoms: C_25  and  C_27 
REMARK    6  A    between atoms: C_32  and  O_33 
ROOT
HETATM    1  C   UNL     1      39.313 -14.187   1.091  1.00  0.00     0.033 A 
HETATM    2  C   UNL     1      37.920 -14.060   1.027  1.00  0.00     0.017 A 
HETATM    3  C   UNL     1      37.340 -12.963   0.392  1.00  0.00     0.002 A 
HETATM    4  C   UNL     1      38.147 -11.983  -0.185  1.00  0.00     0.009 A 
HETATM    5  C   UNL     1      39.546 -12.089  -0.137  1.00  0.00    -0.034 A 
HETATM    6  C   UNL     1      40.120 -13.211   0.488  1.00  0.00     0.026 A 
ENDROOT
BRANCH   5   7
HETATM    7  C   UNL     1      40.440 -11.019  -0.729  1.00  0.00     0.120 C 
HETATM    8  C   UNL     1      41.079 -10.145   0.363  1.00  0.00     0.032 C 
HETATM    9  C   UNL     1      42.370  -9.666  -0.286  1.00  0.00     0.022 C 
HETATM   10  C   UNL     1      42.819 -10.883  -1.079  1.00  0.00     0.127 C 
HETATM   11  N   UNL     1      41.583 -11.519  -1.503  1.00  0.00    -0.339 N 
HETATM   12  C   UNL     1      41.583 -12.352  -2.608  1.00  0.00     0.254 C 
HETATM   13  O   UNL     1      42.597 -12.675  -3.220  1.00  0.00    -0.267 OA
BRANCH  12  14
HETATM   14  C   UNL     1      40.298 -12.913  -3.060  1.00  0.00     0.033 A 
HETATM   15  C   UNL     1      40.107 -14.292  -2.978  1.00  0.00     0.018 A 
HETATM   16  C   UNL     1      38.870 -14.835  -3.319  1.00  0.00     0.013 A 
HETATM   17  C   UNL     1      37.826 -14.010  -3.766  1.00  0.00    -0.023 A 
HETATM   18  C   UNL     1      36.570 -14.546  -4.089  1.00  0.00     0.048 A 
HETATM   19  C   UNL     1      38.045 -12.615  -3.900  1.00  0.00    -0.025 A 
HETATM   20  C   UNL     1      35.555 -13.713  -4.550  1.00  0.00     0.066 A 
HETATM   21  C   UNL     1      35.768 -12.350  -4.706  1.00  0.00     0.037 A 
HETATM   22  C   UNL     1      37.007 -11.800  -4.380  1.00  0.00     0.015 A 
HETATM   23  C   UNL     1      39.291 -12.076  -3.546  1.00  0.00     0.029 A 
BRANCH  20  24
HETATM   24  O   UNL     1      34.321 -14.204  -4.863  1.00  0.00    -0.361 OA
HETATM   25  H   UNL     1      33.954 -14.635  -4.072  1.00  0.00     0.217 HD
ENDBRANCH  20  24
ENDBRANCH  12  14
ENDBRANCH   5   7
BRANCH   1  26
HETATM   26  C   UNL     1      39.880 -15.400   1.756  1.00  0.00     0.257 C 
HETATM   27  N   UNL     1      41.251 -15.421   1.899  1.00  0.00    -0.301 N 
HETATM   28  H   UNL     1      41.817 -14.610   1.696  1.00  0.00     0.171 HD
HETATM   29  O   UNL     1      39.098 -16.269   2.127  1.00  0.00    -0.267 OA
BRANCH  27  30
HETATM   30  C   UNL     1      41.906 -16.530   2.359  1.00  0.00     0.174 A 
HETATM   31  N   UNL     1      42.575 -17.438   1.692  1.00  0.00    -0.228 NA
HETATM   32  C   UNL     1      43.096 -18.359   2.561  1.00  0.00     0.050 A 
HETATM   33  C   UNL     1      43.901 -19.510   2.063  1.00  0.00     0.062 C 
HETATM   34  C   UNL     1      42.852 -18.112   3.895  1.00  0.00     0.013 A 
HETATM   35  C   UNL     1      44.064 -20.580   3.159  1.00  0.00     0.039 C 
HETATM   36  C   UNL     1      44.429 -19.932   4.513  1.00  0.00     0.192 C 
HETATM   37  C   UNL     1      43.324 -18.961   5.025  1.00  0.00     0.081 C 
HETATM   38  S   UNL     1      41.888 -16.716   4.063  1.00  0.00    -0.055 SA
BRANCH  36  39
HETATM   39  N   UNL     1      44.766 -20.983   5.579  1.00  0.00    -0.074 N 
HETATM   40  C   UNL     1      43.806 -21.079   6.738  1.00  0.00     0.269 C 
HETATM   41  H   UNL     1      45.669 -20.696   5.984  1.00  0.00     0.279 HD
HETATM   42  C   UNL     1      45.027 -22.349   4.987  1.00  0.00     0.269 C 
ENDBRANCH  36  39
ENDBRANCH  27  30
ENDBRANCH   1  26
TORSDOF 6
ENDMDL
MODEL 4
REMARK VINA RESULT:      -9.0      2.436      9.250
REMARK  6 active torsions:
REMARK  status: ('A' for Active; 'I' for Inactive)
REMARK    1  A    between atoms: N_2  and  C_5 
REMARK    2  A    between atoms: C_10  and  N_11 
REMARK       I    between atoms: N_11  and  C_12 
REMARK    3  A    between atoms: C_12  and  C_14 
REMARK    4  A    between atoms: C_18  and  C_20 
REMARK       I    between atoms: N_24  and  C_25 
REMARK    5  A    between atoms: C_25  and  C_27 
REMARK    6  A    between atoms: C_32  and  O_33 
ROOT
HETATM    1  C   UNL     1      41.205 -15.295  -1.177  1.00  0.00     0.033 A 
HETATM    2  C   UNL     1      40.580 -15.920  -2.263  1.00  0.00     0.017 A 
HETATM    3  C   UNL     1      40.367 -15.224  -3.452  1.00  0.00     0.002 A 
HETATM    4  C   UNL     1      40.777 -13.896  -3.565  1.00  0.00     0.009 A 
HETATM    5  C   UNL     1      41.407 -13.247  -2.492  1.00  0.00    -0.034 A 
HETATM    6  C   UNL     1      41.636 -13.967  -1.305  1.00  0.00     0.026 A 
ENDROOT
BRANCH   5   7
HETATM    7  C   UNL     1      41.830 -11.795  -2.585  1.00  0.00     0.120 C 
HETATM    8  C   UNL     1      42.743 -11.548  -3.797  1.00  0.00     0.032 C 
HETATM    9  C   UNL     1      42.492 -10.083  -4.128  1.00  0.00     0.022 C 
HETATM   10  C   UNL     1      41.002  -9.929  -3.865  1.00  0.00     0.127 C 
HETATM   11  N   UNL     1      40.732 -10.837  -2.762  1.00  0.00    -0.339 N 
HETATM   12  C   UNL     1      39.627 -10.626  -1.956  1.00  0.00     0.254 C 
HETATM   13  O   UNL     1      38.784  -9.759  -2.165  1.00  0.00    -0.267 OA
BRANCH  12  14
HETATM   14  C   UNL     1      39.428 -11.514  -0.797  1.00  0.00     0.033 A 
HETATM   15  C   UNL     1      38.488 -12.539  -0.895  1.00  0.00     0.018 A 
HETATM   16  C   UNL     1      38.345 -13.443   0.155  1.00  0.00     0.013 A 
HETATM   17  C   UNL     1      39.120 -13.315   1.318  1.00  0.00    -0.023 A 
HETATM   18  C   UNL     1      39.000 -14.235   2.372  1.00  0.00     0.048 A 
HETATM   19  C   UNL     1      40.036 -12.238   1.434  1.00  0.00    -0.025 A 
HETATM   20  C   UNL     1      39.764 -14.078   3.524  1.00  0.00     0.066 A 
HETATM   21  C   UNL     1      40.645 -13.014   3.655  1.00  0.00     0.037 A 
HETATM   22  C   UNL     1      40.784 -12.097   2.614  1.00  0.00     0.015 A 
HETATM   23  C   UNL     1      40.179 -11.338   0.368  1.00  0.00     0.029 A 
BRANCH  20  24
HETATM   24  O   UNL     1      39.674 -14.961   4.561  1.00  0.00    -0.361 OA
HETATM   25  H   UNL     1      40.240 -15.726   4.360  1.00  0.00     0.217 HD
ENDBRANCH  20  24
ENDBRANCH  12  14
ENDBRANCH   5   7
BRANCH   1  26
HETATM   26  C   UNL     1      41.435 -16.100   0.062  1.00  0.00     0.257 C 
HETATM   27  N   UNL     1      42.744 -16.185   0.487  1.00  0.00    -0.301 N 
HETATM   28  H   UNL     1      43.473 -15.625   0.072  1.00  0.00     0.171 HD
HETATM   29  O   UNL     1      40.460 -16.611   0.603  1.00  0.00    -0.267 OA
BRANCH  27  30
HETATM   30  C   UNL     1      43.108 -17.004   1.520  1.00  0.00     0.174 A 
HETATM   31  N   UNL     1      43.756 -18.143   1.491  1.00  0.00    -0.228 NA
HETATM   32  C   UNL     1      43.935 -18.607   2.766  1.00  0.00     0.050 A 
HETATM   33  C   UNL     1      44.640 -19.894   3.020  1.00  0.00     0.062 C 
HETATM   34  C   UNL     1      43.454 -17.784   3.763  1.00  0.00     0.013 A 
HETATM   35  C   UNL     1      44.402 -20.375   4.464  1.00  0.00     0.039 C 
HETATM   36  C   UNL     1      44.567 -19.212   5.468  1.00  0.00     0.192 C 
HETATM   37  C   UNL     1      43.541 -18.065   5.224  1.00  0.00     0.081 C 
HETATM   38  S   UNL     1      42.702 -16.416   3.078  1.00  0.00    -0.055 SA
BRANCH  36  39
HETATM   39  N   UNL     1      44.506 -19.697   6.922  1.00  0.00    -0.074 N 
HETATM   40  C   UNL     1      44.120 -18.660   7.947  1.00  0.00     0.269 C 
HETATM   41  H   UNL     1      45.464 -19.988   7.163  1.00  0.00     0.279 HD
HETATM   42  C   UNL     1      43.670 -20.945   7.084  1.00  0.00     0.269 C 
ENDBRANCH  36  39
ENDBRANCH  27  30
ENDBRANCH   1  26
TORSDOF 6
ENDMDL
MODEL 5
REMARK VINA RESULT:      -9.0      5.389     10.348
REMARK  6 active torsions:
REMARK  status: ('A' for Active; 'I' for Inactive)
REMARK    1  A    between atoms: N_2  and  C_5 
REMARK    2  A    between atoms: C_10  and  N_11 
REMARK       I    between atoms: N_11  and  C_12 
REMARK    3  A    between atoms: C_12  and  C_14 
REMARK    4  A    between atoms: C_18  and  C_20 
REMARK       I    between atoms: N_24  and  C_25 
REMARK    5  A    between atoms: C_25  and  C_27 
REMARK    6  A    between atoms: C_32  and  O_33 
ROOT
HETATM    1  C   UNL     1      40.566 -11.334   4.579  1.00  0.00     0.033 A 
HETATM    2  C   UNL     1      41.032 -10.237   3.846  1.00  0.00     0.017 A 
HETATM    3  C   UNL     1      40.799 -10.153   2.474  1.00  0.00     0.002 A 
HETATM    4  C   UNL     1      40.098 -11.167   1.823  1.00  0.00     0.009 A 
HETATM    5  C   UNL     1      39.618 -12.277   2.535  1.00  0.00    -0.034 A 
HETATM    6  C   UNL     1      39.841 -12.340   3.923  1.00  0.00     0.026 A 
ENDROOT
BRANCH   5   7
HETATM    7  C   UNL     1      38.882 -13.404   1.840  1.00  0.00     0.120 C 
HETATM    8  C   UNL     1      37.582 -12.911   1.182  1.00  0.00     0.032 C 
HETATM    9  C   UNL     1      37.380 -13.891   0.035  1.00  0.00     0.022 C 
HETATM   10  C   UNL     1      38.799 -14.133  -0.455  1.00  0.00     0.127 C 
HETATM   11  N   UNL     1      39.618 -14.045   0.743  1.00  0.00    -0.339 N 
HETATM   12  C   UNL     1      40.856 -14.663   0.775  1.00  0.00     0.254 C 
HETATM   13  O   UNL     1      41.367 -15.219  -0.192  1.00  0.00    -0.267 OA
BRANCH  12  14
HETATM   14  C   UNL     1      41.623 -14.626   2.033  1.00  0.00     0.033 A 
HETATM   15  C   UNL     1      42.624 -13.666   2.174  1.00  0.00     0.018 A 
HETATM   16  C   UNL     1      43.303 -13.557   3.386  1.00  0.00     0.013 A 
HETATM   17  C   UNL     1      43.005 -14.419   4.453  1.00  0.00    -0.023 A 
HETATM   18  C   UNL     1      43.668 -14.301   5.685  1.00  0.00     0.048 A 
HETATM   19  C   UNL     1      42.024 -15.429   4.283  1.00  0.00    -0.025 A 
HETATM   20  C   UNL     1      43.371 -15.179   6.722  1.00  0.00     0.066 A 
HETATM   21  C   UNL     1      42.429 -16.185   6.557  1.00  0.00     0.037 A 
HETATM   22  C   UNL     1      41.754 -16.310   5.343  1.00  0.00     0.015 A 
HETATM   23  C   UNL     1      41.339 -15.527   3.063  1.00  0.00     0.029 A 
BRANCH  20  24
HETATM   24  O   UNL     1      43.993 -15.083   7.933  1.00  0.00    -0.361 OA
HETATM   25  H   UNL     1      44.126 -14.140   8.134  1.00  0.00     0.217 HD
ENDBRANCH  20  24
ENDBRANCH  12  14
ENDBRANCH   5   7
BRANCH   1  26
HETATM   26  C   UNL     1      40.818 -11.356   6.052  1.00  0.00     0.257 C 
HETATM   27  N   UNL     1      41.375 -10.211   6.583  1.00  0.00    -0.301 N 
HETATM   28  H   UNL     1      41.472  -9.368   6.038  1.00  0.00     0.171 HD
HETATM   29  O   UNL     1      40.511 -12.369   6.672  1.00  0.00    -0.267 OA
BRANCH  27  30
HETATM   30  C   UNL     1      41.786 -10.154   7.886  1.00  0.00     0.174 A 
HETATM   31  N   UNL     1      42.865 -10.649   8.441  1.00  0.00    -0.228 NA
HETATM   32  C   UNL     1      42.891 -10.325   9.771  1.00  0.00     0.050 A 
HETATM   33  C   UNL     1      44.012 -10.771  10.645  1.00  0.00     0.062 C 
HETATM   34  C   UNL     1      41.844  -9.540  10.205  1.00  0.00     0.013 A 
HETATM   35  C   UNL     1      43.648 -10.605  12.132  1.00  0.00     0.039 C 
HETATM   36  C   UNL     1      42.991  -9.230  12.389  1.00  0.00     0.192 C 
HETATM   37  C   UNL     1      41.660  -9.049  11.600  1.00  0.00     0.081 C 
HETATM   38  S   UNL     1      40.760  -9.251   8.921  1.00  0.00    -0.055 SA
BRANCH  36  39
HETATM   39  N   UNL     1      42.776  -8.968  13.885  1.00  0.00    -0.074 N 
HETATM   40  C   UNL     1      41.960  -7.747  14.231  1.00  0.00     0.269 C 
HETATM   41  H   UNL     1      43.713  -8.800  14.280  1.00  0.00     0.279 HD
HETATM   42  C   UNL     1      42.260 -10.182  14.621  1.00  0.00     0.269 C 
ENDBRANCH  36  39
ENDBRANCH  27  30
ENDBRANCH   1  26
TORSDOF 6
ENDMDL
MODEL 6
REMARK VINA RESULT:      -8.9      2.754     10.025
REMARK  6 active torsions:
REMARK  status: ('A' for Active; 'I' for Inactive)
REMARK    1  A    between atoms: N_2  and  C_5 
REMARK    2  A    between atoms: C_10  and  N_11 
REMARK       I    between atoms: N_11  and  C_12 
REMARK    3  A    between atoms: C_12  and  C_14 
REMARK    4  A    between atoms: C_18  and  C_20 
REMARK       I    between atoms: N_24  and  C_25 
REMARK    5  A    between atoms: C_25  and  C_27 
REMARK    6  A    between atoms: C_32  and  O_33 
ROOT
HETATM    1  C   UNL     1      39.724 -11.723   0.546  1.00  0.00     0.033 A 
HETATM    2  C   UNL     1      40.131 -10.385   0.610  1.00  0.00     0.017 A 
HETATM    3  C   UNL     1      39.227  -9.359   0.339  1.00  0.00     0.002 A 
HETATM    4  C   UNL     1      37.909  -9.661   0.001  1.00  0.00     0.009 A 
HETATM    5  C   UNL     1      37.475 -10.995  -0.069  1.00  0.00    -0.034 A 
HETATM    6  C   UNL     1      38.391 -12.021   0.228  1.00  0.00     0.026 A 
ENDROOT
BRANCH   5   7
HETATM    7  C   UNL     1      36.056 -11.344  -0.465  1.00  0.00     0.120 C 
HETATM    8  C   UNL     1      35.047 -10.936   0.621  1.00  0.00     0.032 C 
HETATM    9  C   UNL     1      33.765 -10.702  -0.166  1.00  0.00     0.022 C 
HETATM   10  C   UNL     1      34.270 -10.062  -1.450  1.00  0.00     0.127 C 
HETATM   11  N   UNL     1      35.566 -10.678  -1.678  1.00  0.00    -0.339 N 
HETATM   12  C   UNL     1      36.097 -10.705  -2.956  1.00  0.00     0.254 C 
HETATM   13  O   UNL     1      35.581 -10.151  -3.922  1.00  0.00    -0.267 OA
BRANCH  12  14
HETATM   14  C   UNL     1      37.373 -11.411  -3.168  1.00  0.00     0.033 A 
HETATM   15  C   UNL     1      38.529 -10.655  -3.361  1.00  0.00     0.018 A 
HETATM   16  C   UNL     1      39.759 -11.299  -3.476  1.00  0.00     0.013 A 
HETATM   17  C   UNL     1      39.840 -12.699  -3.426  1.00  0.00    -0.023 A 
HETATM   18  C   UNL     1      41.077 -13.355  -3.518  1.00  0.00     0.048 A 
HETATM   19  C   UNL     1      38.653 -13.464  -3.285  1.00  0.00    -0.025 A 
HETATM   20  C   UNL     1      41.133 -14.745  -3.486  1.00  0.00     0.066 A 
HETATM   21  C   UNL     1      39.974 -15.502  -3.373  1.00  0.00     0.037 A 
HETATM   22  C   UNL     1      38.738 -14.866  -3.269  1.00  0.00     0.015 A 
HETATM   23  C   UNL     1      37.420 -12.807  -3.161  1.00  0.00     0.029 A 
BRANCH  20  24
HETATM   24  O   UNL     1      42.322 -15.410  -3.566  1.00  0.00    -0.361 OA
HETATM   25  H   UNL     1      42.135 -16.364  -3.618  1.00  0.00     0.217 HD
ENDBRANCH  20  24
ENDBRANCH  12  14
ENDBRANCH   5   7
BRANCH   1  26
HETATM   26  C   UNL     1      40.728 -12.781   0.877  1.00  0.00     0.257 C 
HETATM   27  N   UNL     1      40.271 -14.081   0.818  1.00  0.00    -0.301 N 
HETATM   28  H   UNL     1      39.364 -14.306   0.440  1.00  0.00     0.171 HD
HETATM   29  O   UNL     1      41.865 -12.423   1.165  1.00  0.00    -0.267 OA
BRANCH  27  30
HETATM   30  C   UNL     1      41.044 -15.130   1.235  1.00  0.00     0.174 A 
HETATM   31  N   UNL     1      42.013 -15.750   0.609  1.00  0.00    -0.228 NA
HETATM   32  C   UNL     1      42.536 -16.725   1.416  1.00  0.00     0.050 A 
HETATM   33  C   UNL     1      43.653 -17.589   0.945  1.00  0.00     0.062 C 
HETATM   34  C   UNL     1      41.981 -16.804   2.676  1.00  0.00     0.013 A 
HETATM   35  C   UNL     1      43.820 -18.817   1.860  1.00  0.00     0.039 C 
HETATM   36  C   UNL     1      43.757 -18.409   3.348  1.00  0.00     0.192 C 
HETATM   37  C   UNL     1      42.389 -17.772   3.733  1.00  0.00     0.081 C 
HETATM   38  S   UNL     1      40.725 -15.663   2.833  1.00  0.00    -0.055 SA
BRANCH  36  39
HETATM   39  N   UNL     1      44.093 -19.582   4.279  1.00  0.00    -0.074 N 
HETATM   40  C   UNL     1      44.813 -20.743   3.643  1.00  0.00     0.269 C 
HETATM   41  H   UNL     1      43.188 -19.955   4.602  1.00  0.00     0.279 HD
HETATM   42  C   UNL     1      44.799 -19.140   5.540  1.00  0.00     0.269 C 
ENDBRANCH  36  39
ENDBRANCH  27  30
ENDBRANCH   1  26
TORSDOF 6
ENDMDL
MODEL 7
REMARK VINA RESULT:      -8.8      6.059     10.444
REMARK  6 active torsions:
REMARK  status: ('A' for Active; 'I' for Inactive)
REMARK    1  A    between atoms: N_2  and  C_5 
REMARK    2  A    between atoms: C_10  and  N_11 
REMARK       I    between atoms: N_11  and  C_12 
REMARK    3  A    between atoms: C_12  and  C_14 
REMARK    4  A    between atoms: C_18  and  C_20 
REMARK       I    between atoms: N_24  and  C_25 
REMARK    5  A    between atoms: C_25  and  C_27 
REMARK    6  A    between atoms: C_32  and  O_33 
ROOT
HETATM    1  C   UNL     1      39.819 -12.553   5.685  1.00  0.00     0.033 A 
HETATM    2  C   UNL     1      40.006 -13.881   6.085  1.00  0.00     0.017 A 
HETATM    3  C   UNL     1      40.012 -14.909   5.143  1.00  0.00     0.002 A 
HETATM    4  C   UNL     1      39.832 -14.617   3.792  1.00  0.00     0.009 A 
HETATM    5  C   UNL     1      39.644 -13.293   3.364  1.00  0.00    -0.034 A 
HETATM    6  C   UNL     1      39.661 -12.262   4.322  1.00  0.00     0.026 A 
ENDROOT
BRANCH   5   7
HETATM    7  C   UNL     1      39.414 -12.960   1.904  1.00  0.00     0.120 C 
HETATM    8  C   UNL     1      38.133 -12.132   1.707  1.00  0.00     0.032 C 
HETATM    9  C   UNL     1      38.420 -11.344   0.437  1.00  0.00     0.022 C 
HETATM   10  C   UNL     1      39.897 -11.009   0.575  1.00  0.00     0.127 C 
HETATM   11  N   UNL     1      40.465 -12.148   1.277  1.00  0.00    -0.339 N 
HETATM   12  C   UNL     1      41.817 -12.419   1.164  1.00  0.00     0.254 C 
HETATM   13  O   UNL     1      42.611 -11.695   0.572  1.00  0.00    -0.267 OA
BRANCH  12  14
HETATM   14  C   UNL     1      42.344 -13.629   1.819  1.00  0.00     0.033 A 
HETATM   15  C   UNL     1      42.998 -13.493   3.043  1.00  0.00     0.018 A 
HETATM   16  C   UNL     1      43.428 -14.631   3.722  1.00  0.00     0.013 A 
HETATM   17  C   UNL     1      43.232 -15.908   3.172  1.00  0.00    -0.023 A 
HETATM   18  C   UNL     1      43.641 -17.061   3.860  1.00  0.00     0.048 A 
HETATM   19  C   UNL     1      42.616 -16.035   1.901  1.00  0.00    -0.025 A 
HETATM   20  C   UNL     1      43.455 -18.316   3.287  1.00  0.00     0.066 A 
HETATM   21  C   UNL     1      42.875 -18.448   2.033  1.00  0.00     0.037 A 
HETATM   22  C   UNL     1      42.453 -17.313   1.342  1.00  0.00     0.015 A 
HETATM   23  C   UNL     1      42.178 -14.884   1.228  1.00  0.00     0.029 A 
BRANCH  20  24
HETATM   24  O   UNL     1      43.835 -19.455   3.935  1.00  0.00    -0.361 OA
HETATM   25  H   UNL     1      44.066 -19.222   4.852  1.00  0.00     0.217 HD
ENDBRANCH  20  24
ENDBRANCH  12  14
ENDBRANCH   5   7
BRANCH   1  26
HETATM   26  C   UNL     1      39.852 -11.489   6.735  1.00  0.00     0.257 C 
HETATM   27  N   UNL     1      39.532 -11.897   8.012  1.00  0.00    -0.301 N 
HETATM   28  H   UNL     1      39.423 -12.872   8.245  1.00  0.00     0.171 HD
HETATM   29  O   UNL     1      40.163 -10.353   6.391  1.00  0.00    -0.267 OA
BRANCH  27  30
HETATM   30  C   UNL     1      39.386 -10.999   9.034  1.00  0.00     0.174 A 
HETATM   31  N   UNL     1      38.362 -10.240   9.335  1.00  0.00    -0.228 NA
HETATM   32  C   UNL     1      38.638  -9.515  10.463  1.00  0.00     0.050 A 
HETATM   33  C   UNL     1      37.640  -8.562  11.023  1.00  0.00     0.062 C 
HETATM   34  C   UNL     1      39.865  -9.769  11.038  1.00  0.00     0.013 A 
HETATM   35  C   UNL     1      38.297  -7.620  12.050  1.00  0.00     0.039 C 
HETATM   36  C   UNL     1      39.214  -8.407  13.013  1.00  0.00     0.192 C 
HETATM   37  C   UNL     1      40.386  -9.117  12.273  1.00  0.00     0.081 C 
HETATM   38  S   UNL     1      40.724 -10.905  10.102  1.00  0.00    -0.055 SA
BRANCH  36  39
HETATM   39  N   UNL     1      39.744  -7.524  14.150  1.00  0.00    -0.074 N 
HETATM   40  C   UNL     1      38.805  -7.310  15.312  1.00  0.00     0.269 C 
HETATM   41  H   UNL     1      39.896  -6.592  13.737  1.00  0.00     0.279 HD
HETATM   42  C   UNL     1      41.107  -7.958  14.637  1.00  0.00     0.269 C 
ENDBRANCH  36  39
ENDBRANCH  27  30
ENDBRANCH   1  26
TORSDOF 6
ENDMDL
MODEL 8
REMARK VINA RESULT:      -8.8      2.924      9.952
REMARK  6 active torsions:
REMARK  status: ('A' for Active; 'I' for Inactive)
REMARK    1  A    between atoms: N_2  and  C_5 
REMARK    2  A    between atoms: C_10  and  N_11 
REMARK       I    between atoms: N_11  and  C_12 
REMARK    3  A    between atoms: C_12  and  C_14 
REMARK    4  A    between atoms: C_18  and  C_20 
REMARK       I    between atoms: N_24  and  C_25 
REMARK    5  A    between atoms: C_25  and  C_27 
REMARK    6  A    between atoms: C_32  and  O_33 
ROOT
HETATM    1  C   UNL     1      38.595 -12.738   1.106  1.00  0.00     0.033 A 
HETATM    2  C   UNL     1      39.385 -11.590   1.242  1.00  0.00     0.017 A 
HETATM    3  C   UNL     1      38.902 -10.348   0.833  1.00  0.00     0.002 A 
HETATM    4  C   UNL     1      37.625 -10.243   0.284  1.00  0.00     0.009 A 
HETATM    5  C   UNL     1      36.812 -11.378   0.138  1.00  0.00    -0.034 A 
HETATM    6  C   UNL     1      37.302 -12.623   0.575  1.00  0.00     0.026 A 
ENDROOT
BRANCH   5   7
HETATM    7  C   UNL     1      35.435 -11.288  -0.486  1.00  0.00     0.120 C 
HETATM    8  C   UNL     1      34.415 -10.660   0.479  1.00  0.00     0.032 C 
HETATM    9  C   UNL     1      33.392 -10.033  -0.458  1.00  0.00     0.022 C 
HETATM   10  C   UNL     1      34.254  -9.505  -1.594  1.00  0.00     0.127 C 
HETATM   11  N   UNL     1      35.350 -10.454  -1.691  1.00  0.00    -0.339 N 
HETATM   12  C   UNL     1      36.052 -10.572  -2.878  1.00  0.00     0.254 C 
HETATM   13  O   UNL     1      35.871  -9.850  -3.853  1.00  0.00    -0.267 OA
BRANCH  12  14
HETATM   14  C   UNL     1      37.102 -11.602  -2.969  1.00  0.00     0.033 A 
HETATM   15  C   UNL     1      36.724 -12.916  -3.246  1.00  0.00     0.018 A 
HETATM   16  C   UNL     1      37.705 -13.889  -3.422  1.00  0.00     0.013 A 
HETATM   17  C   UNL     1      39.065 -13.564  -3.299  1.00  0.00    -0.023 A 
HETATM   18  C   UNL     1      40.060 -14.533  -3.498  1.00  0.00     0.048 A 
HETATM   19  C   UNL     1      39.439 -12.238  -2.963  1.00  0.00    -0.025 A 
HETATM   20  C   UNL     1      41.402 -14.194  -3.351  1.00  0.00     0.066 A 
HETATM   21  C   UNL     1      41.776 -12.905  -3.000  1.00  0.00     0.037 A 
HETATM   22  C   UNL     1      40.800 -11.927  -2.808  1.00  0.00     0.015 A 
HETATM   23  C   UNL     1      38.446 -11.262  -2.796  1.00  0.00     0.029 A 
BRANCH  20  24
HETATM   24  O   UNL     1      42.392 -15.113  -3.547  1.00  0.00    -0.361 OA
HETATM   25  H   UNL     1      42.207 -15.885  -2.983  1.00  0.00     0.217 HD
ENDBRANCH  20  24
ENDBRANCH  12  14
ENDBRANCH   5   7
BRANCH   1  26
HETATM   26  C   UNL     1      39.152 -14.038   1.590  1.00  0.00     0.257 C 
HETATM   27  N   UNL     1      40.448 -13.998   2.060  1.00  0.00    -0.301 N 
HETATM   28  H   UNL     1      40.934 -13.126   2.199  1.00  0.00     0.171 HD
HETATM   29  O   UNL     1      38.426 -15.026   1.542  1.00  0.00    -0.267 OA
BRANCH  27  30
HETATM   30  C   UNL     1      41.121 -15.140   2.397  1.00  0.00     0.174 A 
HETATM   31  N   UNL     1      41.107 -15.814   3.521  1.00  0.00    -0.228 NA
HETATM   32  C   UNL     1      41.910 -16.918   3.409  1.00  0.00     0.050 A 
HETATM   33  C   UNL     1      42.079 -17.859   4.550  1.00  0.00     0.062 C 
HETATM   34  C   UNL     1      42.495 -17.095   2.173  1.00  0.00     0.013 A 
HETATM   35  C   UNL     1      43.281 -18.794   4.316  1.00  0.00     0.039 C 
HETATM   36  C   UNL     1      43.276 -19.349   2.874  1.00  0.00     0.192 C 
HETATM   37  C   UNL     1      43.395 -18.223   1.804  1.00  0.00     0.081 C 
HETATM   38  S   UNL     1      42.075 -15.807   1.138  1.00  0.00    -0.055 SA
BRANCH  36  39
HETATM   39  N   UNL     1      44.360 -20.415   2.666  1.00  0.00    -0.074 N 
HETATM   40  C   UNL     1      45.020 -20.936   3.918  1.00  0.00     0.269 C 
HETATM   41  H   UNL     1      45.107 -19.957   2.124  1.00  0.00     0.279 HD
HETATM   42  C   UNL     1      43.893 -21.556   1.793  1.00  0.00     0.269 C 
ENDBRANCH  36  39
ENDBRANCH  27  30
ENDBRANCH   1  26
TORSDOF 6
ENDMDL
MODEL 9
REMARK VINA RESULT:      -8.8      2.651      3.300
REMARK  6 active torsions:
REMARK  status: ('A' for Active; 'I' for Inactive)
REMARK    1  A    between atoms: N_2  and  C_5 
REMARK    2  A    between atoms: C_10  and  N_11 
REMARK       I    between atoms: N_11  and  C_12 
REMARK    3  A    between atoms: C_12  and  C_14 
REMARK    4  A    between atoms: C_18  and  C_20 
REMARK       I    between atoms: N_24  and  C_25 
REMARK    5  A    between atoms: C_25  and  C_27 
REMARK    6  A    between atoms: C_32  and  O_33 
ROOT
HETATM    1  C   UNL     1      41.786 -16.550   1.945  1.00  0.00     0.033 A 
HETATM    2  C   UNL     1      42.750 -16.276   0.967  1.00  0.00     0.017 A 
HETATM    3  C   UNL     1      43.890 -17.070   0.857  1.00  0.00     0.002 A 
HETATM    4  C   UNL     1      44.077 -18.146   1.723  1.00  0.00     0.009 A 
HETATM    5  C   UNL     1      43.125 -18.444   2.712  1.00  0.00    -0.034 A 
HETATM    6  C   UNL     1      41.968 -17.648   2.799  1.00  0.00     0.026 A 
ENDROOT
BRANCH   5   7
HETATM    7  C   UNL     1      43.327 -19.589   3.683  1.00  0.00     0.120 C 
HETATM    8  C   UNL     1      43.790 -20.867   2.964  1.00  0.00     0.032 C 
HETATM    9  C   UNL     1      44.571 -21.607   4.041  1.00  0.00     0.022 C 
HETATM   10  C   UNL     1      45.278 -20.481   4.778  1.00  0.00     0.127 C 
HETATM   11  N   UNL     1      44.352 -19.362   4.708  1.00  0.00    -0.339 N 
HETATM   12  C   UNL     1      44.431 -18.347   5.645  1.00  0.00     0.254 C 
HETATM   13  O   UNL     1      45.308 -18.274   6.500  1.00  0.00    -0.267 OA
BRANCH  12  14
HETATM   14  C   UNL     1      43.425 -17.272   5.597  1.00  0.00     0.033 A 
HETATM   15  C   UNL     1      42.170 -17.508   6.158  1.00  0.00     0.018 A 
HETATM   16  C   UNL     1      41.233 -16.477   6.201  1.00  0.00     0.013 A 
HETATM   17  C   UNL     1      41.532 -15.216   5.662  1.00  0.00    -0.023 A 
HETATM   18  C   UNL     1      40.603 -14.166   5.722  1.00  0.00     0.048 A 
HETATM   19  C   UNL     1      42.790 -15.000   5.043  1.00  0.00    -0.025 A 
HETATM   20  C   UNL     1      40.913 -12.930   5.164  1.00  0.00     0.066 A 
HETATM   21  C   UNL     1      42.132 -12.716   4.535  1.00  0.00     0.037 A 
HETATM   22  C   UNL     1      43.071 -13.746   4.477  1.00  0.00     0.015 A 
HETATM   23  C   UNL     1      43.731 -16.040   5.012  1.00  0.00     0.029 A 
BRANCH  20  24
HETATM   24  O   UNL     1      40.032 -11.888   5.214  1.00  0.00    -0.361 OA
HETATM   25  H   UNL     1      40.278 -11.247   4.524  1.00  0.00     0.217 HD
ENDBRANCH  20  24
ENDBRANCH  12  14
ENDBRANCH   5   7
BRANCH   1  26
HETATM   26  C   UNL     1      40.569 -15.684   1.998  1.00  0.00     0.257 C 
HETATM   27  N   UNL     1      40.636 -14.511   1.276  1.00  0.00    -0.301 N 
HETATM   28  H   UNL     1      41.398 -14.321   0.644  1.00  0.00     0.171 HD
HETATM   29  O   UNL     1      39.614 -16.077   2.660  1.00  0.00    -0.267 OA
BRANCH  27  30
HETATM   30  C   UNL     1      39.650 -13.566   1.355  1.00  0.00     0.174 A 
HETATM   31  N   UNL     1      39.618 -12.452   2.043  1.00  0.00    -0.228 NA
HETATM   32  C   UNL     1      38.444 -11.791   1.800  1.00  0.00     0.050 A 
HETATM   33  C   UNL     1      38.146 -10.491   2.464  1.00  0.00     0.062 C 
HETATM   34  C   UNL     1      37.608 -12.396   0.885  1.00  0.00     0.013 A 
HETATM   35  C   UNL     1      36.654 -10.132   2.323  1.00  0.00     0.039 C 
HETATM   36  C   UNL     1      36.163 -10.373   0.878  1.00  0.00     0.192 C 
HETATM   37  C   UNL     1      36.286 -11.865   0.448  1.00  0.00     0.081 C 
HETATM   38  S   UNL     1      38.287 -13.868   0.359  1.00  0.00    -0.055 SA
BRANCH  36  39
HETATM   39  N   UNL     1      34.732  -9.862   0.667  1.00  0.00    -0.074 N 
HETATM   40  C   UNL     1      33.651 -10.599   1.417  1.00  0.00     0.269 C 
HETATM   41  H   UNL     1      34.526 -10.002  -0.333  1.00  0.00     0.279 HD
HETATM   42  C   UNL     1      34.609  -8.371   0.880  1.00  0.00     0.269 C 
ENDBRANCH  36  39
ENDBRANCH  27  30
ENDBRANCH   1  26
TORSDOF 6
ENDMDL
MODEL 10
REMARK VINA RESULT:      -8.7      1.646      2.355
REMARK  6 active torsions:
REMARK  status: ('A' for Active; 'I' for Inactive)
REMARK    1  A    between atoms: N_2  and  C_5 
REMARK    2  A    between atoms: C_10  and  N_11 
REMARK       I    between atoms: N_11  and  C_12 
REMARK    3  A    between atoms: C_12  and  C_14 
REMARK    4  A    between atoms: C_18  and  C_20 
REMARK       I    between atoms: N_24  and  C_25 
REMARK    5  A    between atoms: C_25  and  C_27 
REMARK    6  A    between atoms: C_32  and  O_33 
ROOT
HETATM    1  C   UNL     1      41.303 -16.103   1.993  1.00  0.00     0.033 A 
HETATM    2  C   UNL     1      42.348 -16.350   1.094  1.00  0.00     0.017 A 
HETATM    3  C   UNL     1      43.512 -16.987   1.522  1.00  0.00     0.002 A 
HETATM    4  C   UNL     1      43.641 -17.384   2.852  1.00  0.00     0.009 A 
HETATM    5  C   UNL     1      42.607 -17.151   3.773  1.00  0.00    -0.034 A 
HETATM    6  C   UNL     1      41.428 -16.526   3.325  1.00  0.00     0.026 A 
ENDROOT
BRANCH   5   7
HETATM    7  C   UNL     1      42.742 -17.546   5.229  1.00  0.00     0.120 C 
HETATM    8  C   UNL     1      43.035 -19.048   5.384  1.00  0.00     0.032 C 
HETATM    9  C   UNL     1      43.793 -19.120   6.702  1.00  0.00     0.022 C 
HETATM   10  C   UNL     1      44.648 -17.863   6.668  1.00  0.00     0.127 C 
HETATM   11  N   UNL     1      43.838 -16.891   5.953  1.00  0.00    -0.339 N 
HETATM   12  C   UNL     1      44.069 -15.539   6.136  1.00  0.00     0.254 C 
HETATM   13  O   UNL     1      44.992 -15.088   6.806  1.00  0.00    -0.267 OA
BRANCH  12  14
HETATM   14  C   UNL     1      43.175 -14.580   5.462  1.00  0.00     0.033 A 
HETATM   15  C   UNL     1      43.615 -13.971   4.288  1.00  0.00     0.018 A 
HETATM   16  C   UNL     1      42.754 -13.128   3.587  1.00  0.00     0.013 A 
HETATM   17  C   UNL     1      41.461 -12.868   4.068  1.00  0.00    -0.023 A 
HETATM   18  C   UNL     1      40.580 -12.039   3.357  1.00  0.00     0.048 A 
HETATM   19  C   UNL     1      41.041 -13.447   5.293  1.00  0.00    -0.025 A 
HETATM   20  C   UNL     1      39.310 -11.778   3.862  1.00  0.00     0.066 A 
HETATM   21  C   UNL     1      38.898 -12.321   5.071  1.00  0.00     0.037 A 
HETATM   22  C   UNL     1      39.758 -13.156   5.784  1.00  0.00     0.015 A 
HETATM   23  C   UNL     1      41.910 -14.301   5.986  1.00  0.00     0.029 A 
BRANCH  20  24
HETATM   24  O   UNL     1      38.428 -10.982   3.189  1.00  0.00    -0.361 OA
HETATM   25  H   UNL     1      38.809 -10.774   2.318  1.00  0.00     0.217 HD
ENDBRANCH  20  24
ENDBRANCH  12  14
ENDBRANCH   5   7
BRANCH   1  26
HETATM   26  C   UNL     1      40.066 -15.445   1.472  1.00  0.00     0.257 C 
HETATM   27  N   UNL     1      40.256 -14.521   0.466  1.00  0.00    -0.301 N 
HETATM   28  H   UNL     1      41.151 -14.406   0.016  1.00  0.00     0.171 HD
HETATM   29  O   UNL     1      38.991 -15.772   1.965  1.00  0.00    -0.267 OA
BRANCH  27  30
HETATM   30  C   UNL     1      39.228 -13.746   0.003  1.00  0.00     0.174 A 
HETATM   31  N   UNL     1      38.377 -13.007   0.671  1.00  0.00    -0.228 NA
HETATM   32  C   UNL     1      37.533 -12.373  -0.200  1.00  0.00     0.050 A 
HETATM   33  C   UNL     1      36.458 -11.470   0.297  1.00  0.00     0.062 C 
HETATM   34  C   UNL     1      37.784 -12.604  -1.536  1.00  0.00     0.013 A 
HETATM   35  C   UNL     1      35.434 -11.171  -0.814  1.00  0.00     0.039 C 
HETATM   36  C   UNL     1      36.146 -10.836  -2.144  1.00  0.00     0.192 C 
HETATM   37  C   UNL     1      37.013 -12.019  -2.669  1.00  0.00     0.081 C 
HETATM   38  S   UNL     1      39.080 -13.699  -1.704  1.00  0.00    -0.055 SA
BRANCH  36  39
HETATM   39  N   UNL     1      35.158 -10.366  -3.220  1.00  0.00    -0.074 N 
HETATM   40  C   UNL     1      35.710  -9.412  -4.249  1.00  0.00     0.269 C 
HETATM   41  H   UNL     1      34.422  -9.847  -2.721  1.00  0.00     0.279 HD
HETATM   42  C   UNL     1      34.436 -11.513  -3.888  1.00  0.00     0.269 C 
ENDBRANCH  36  39
ENDBRANCH  27  30
ENDBRANCH   1  26
TORSDOF 6
ENDMDL
