MODEL 1
REMARK VINA RESULT:      -8.2      0.000      0.000
REMARK  5 active torsions:
REMARK  status: ('A' for Active; 'I' for Inactive)
REMARK    1  A    between atoms: O_2  and  C_3 
REMARK    2  A    between atoms: C_16  and  C_17 
REMARK    3  A    between atoms: C_19  and  O_20 
REMARK    4  A    between atoms: C_22  and  O_23 
REMARK    5  A    between atoms: O_23  and  C_24 
ROOT
HETATM    1  C   UNL     1      41.348 -17.021   3.860  1.00  0.00     0.069 A 
HETATM    2  C   UNL     1      40.878 -15.748   3.512  1.00  0.00     0.051 A 
HETATM    3  C   UNL     1      40.504 -14.838   4.519  1.00  0.00     0.002 A 
HETATM    4  C   UNL     1      40.605 -15.236   5.852  1.00  0.00     0.043 A 
HETATM    5  N   UNL     1      40.185 -14.185   6.638  1.00  0.00    -0.356 N 
HETATM    6  H   UNL     1      40.168 -14.210   7.652  1.00  0.00     0.166 HD
HETATM    7  C   UNL     1      39.860 -13.117   5.840  1.00  0.00     0.052 A 
HETATM    8  C   UNL     1      40.018 -13.505   4.522  1.00  0.00    -0.019 A 
HETATM    9  C   UNL     1      39.729 -12.585   3.385  1.00  0.00     0.069 C 
HETATM   10  C   UNL     1      38.884 -11.390   3.863  1.00  0.00     0.238 C 
HETATM   11  N   UNL     1      39.434 -10.824   5.148  1.00  0.00    -0.061 N 
HETATM   12  H   UNL     1      40.414 -10.558   5.006  1.00  0.00     0.278 HD
HETATM   13  H   UNL     1      38.939  -9.966   5.414  1.00  0.00     0.278 HD
HETATM   14  C   UNL     1      39.392 -11.782   6.313  1.00  0.00     0.269 C 
HETATM   15  C   UNL     1      41.065 -16.504   6.223  1.00  0.00     0.033 A 
HETATM   16  C   UNL     1      41.437 -17.390   5.201  1.00  0.00     0.039 A 
ENDROOT
BRANCH  14  17
HETATM   17  C   UNL     1      40.188 -11.216   7.472  1.00  0.00    -0.019 A 
HETATM   18  C   UNL     1      41.595 -11.262   7.486  1.00  0.00     0.049 A 
HETATM   19  C   UNL     1      42.321 -10.723   8.553  1.00  0.00     0.102 A 
HETATM   20  C   UNL     1      41.645 -10.100   9.618  1.00  0.00     0.102 A 
HETATM   21  C   UNL     1      40.252 -10.028   9.595  1.00  0.00     0.040 A 
HETATM   22  C   UNL     1      39.528 -10.584   8.535  1.00  0.00     0.012 A 
BRANCH  19  23
HETATM   23  O   UNL     1      43.691 -10.729   8.615  1.00  0.00    -0.353 OA
HETATM   24  C   UNL     1      44.323 -11.969   8.912  1.00  0.00     0.210 C 
ENDBRANCH  19  23
BRANCH  20  25
HETATM   25  O   UNL     1      42.436  -9.587  10.610  1.00  0.00    -0.343 OA
BRANCH  25  26
HETATM   26  C   UNL     1      41.996  -9.657  11.963  1.00  0.00     0.129 C 
HETATM   27  C   UNL     1      42.452 -10.932  12.671  1.00  0.00     0.032 C 
HETATM   28  C   UNL     1      42.482 -10.526  14.132  1.00  0.00     0.002 C 
HETATM   29  C   UNL     1      43.101  -9.138  14.095  1.00  0.00     0.002 C 
HETATM   30  C   UNL     1      42.673  -8.530  12.760  1.00  0.00     0.032 C 
ENDBRANCH  25  26
ENDBRANCH  20  25
ENDBRANCH  14  17
BRANCH   1  31
HETATM   31  O   UNL     1      41.686 -17.803   2.788  1.00  0.00    -0.356 OA
HETATM   32  C   UNL     1      42.884 -18.566   2.895  1.00  0.00     0.210 C 
ENDBRANCH   1  31
TORSDOF 5
ENDMDL
MODEL 2
REMARK VINA RESULT:      -8.1      5.715      9.703
REMARK  5 active torsions:
REMARK  status: ('A' for Active; 'I' for Inactive)
REMARK    1  A    between atoms: O_2  and  C_3 
REMARK    2  A    between atoms: C_16  and  C_17 
REMARK    3  A    between atoms: C_19  and  O_20 
REMARK    4  A    between atoms: C_22  and  O_23 
REMARK    5  A    between atoms: O_23  and  C_24 
ROOT
HETATM    1  C   UNL     1      44.171 -19.711   4.553  1.00  0.00     0.069 A 
HETATM    2  C   UNL     1      43.846 -18.466   5.111  1.00  0.00     0.051 A 
HETATM    3  C   UNL     1      43.638 -17.354   4.274  1.00  0.00     0.002 A 
HETATM    4  C   UNL     1      43.770 -17.521   2.895  1.00  0.00     0.043 A 
HETATM    5  N   UNL     1      43.522 -16.302   2.300  1.00  0.00    -0.356 N 
HETATM    6  H   UNL     1      43.544 -16.150   1.297  1.00  0.00     0.166 HD
HETATM    7  C   UNL     1      43.196 -15.380   3.261  1.00  0.00     0.052 A 
HETATM    8  C   UNL     1      43.292 -15.996   4.495  1.00  0.00    -0.019 A 
HETATM    9  C   UNL     1      43.021 -15.269   5.768  1.00  0.00     0.069 C 
HETATM   10  C   UNL     1      43.046 -13.747   5.532  1.00  0.00     0.238 C 
HETATM   11  N   UNL     1      42.265 -13.383   4.294  1.00  0.00    -0.061 N 
HETATM   12  H   UNL     1      41.305 -13.734   4.387  1.00  0.00     0.278 HD
HETATM   13  H   UNL     1      42.191 -12.366   4.192  1.00  0.00     0.278 HD
HETATM   14  C   UNL     1      42.830 -13.954   3.017  1.00  0.00     0.269 C 
HETATM   15  C   UNL     1      44.099 -18.751   2.316  1.00  0.00     0.033 A 
HETATM   16  C   UNL     1      44.295 -19.844   3.172  1.00  0.00     0.039 A 
ENDROOT
BRANCH  14  17
HETATM   17  C   UNL     1      41.846 -13.748   1.883  1.00  0.00    -0.019 A 
HETATM   18  C   UNL     1      42.209 -13.046   0.718  1.00  0.00     0.049 A 
HETATM   19  C   UNL     1      41.298 -12.874  -0.330  1.00  0.00     0.102 A 
HETATM   20  C   UNL     1      40.010 -13.431  -0.239  1.00  0.00     0.102 A 
HETATM   21  C   UNL     1      39.655 -14.150   0.903  1.00  0.00     0.040 A 
HETATM   22  C   UNL     1      40.562 -14.305   1.957  1.00  0.00     0.012 A 
BRANCH  19  23
HETATM   23  O   UNL     1      41.599 -12.210  -1.492  1.00  0.00    -0.353 OA
HETATM   24  C   UNL     1      42.642 -12.747  -2.297  1.00  0.00     0.210 C 
ENDBRANCH  19  23
BRANCH  20  25
HETATM   25  O   UNL     1      39.192 -13.227  -1.317  1.00  0.00    -0.343 OA
BRANCH  25  26
HETATM   26  C   UNL     1      38.600 -14.344  -1.970  1.00  0.00     0.129 C 
HETATM   27  C   UNL     1      37.675 -13.941  -3.117  1.00  0.00     0.032 C 
HETATM   28  C   UNL     1      37.701 -15.154  -4.028  1.00  0.00     0.002 C 
HETATM   29  C   UNL     1      39.168 -15.555  -4.031  1.00  0.00     0.002 C 
HETATM   30  C   UNL     1      39.708 -15.159  -2.658  1.00  0.00     0.032 C 
ENDBRANCH  25  26
ENDBRANCH  20  25
ENDBRANCH  14  17
BRANCH   1  31
HETATM   31  O   UNL     1      44.337 -20.709   5.475  1.00  0.00    -0.356 OA
HETATM   32  C   UNL     1      44.958 -21.909   5.025  1.00  0.00     0.210 C 
ENDBRANCH   1  31
TORSDOF 5
ENDMDL
MODEL 3
REMARK VINA RESULT:      -8.0      2.390      4.313
REMARK  5 active torsions:
REMARK  status: ('A' for Active; 'I' for Inactive)
REMARK    1  A    between atoms: O_2  and  C_3 
REMARK    2  A    between atoms: C_16  and  C_17 
REMARK    3  A    between atoms: C_19  and  O_20 
REMARK    4  A    between atoms: C_22  and  O_23 
REMARK    5  A    between atoms: O_23  and  C_24 
ROOT
HETATM    1  C   UNL     1      44.367 -20.299   3.103  1.00  0.00     0.069 A 
HETATM    2  C   UNL     1      43.486 -19.379   2.519  1.00  0.00     0.051 A 
HETATM    3  C   UNL     1      42.888 -18.379   3.309  1.00  0.00     0.002 A 
HETATM    4  C   UNL     1      43.186 -18.336   4.671  1.00  0.00     0.043 A 
HETATM    5  N   UNL     1      42.486 -17.284   5.221  1.00  0.00    -0.356 N 
HETATM    6  H   UNL     1      42.532 -17.026   6.201  1.00  0.00     0.166 HD
HETATM    7  C   UNL     1      41.785 -16.634   4.236  1.00  0.00     0.052 A 
HETATM    8  C   UNL     1      41.991 -17.311   3.048  1.00  0.00    -0.019 A 
HETATM    9  C   UNL     1      41.355 -16.881   1.769  1.00  0.00     0.069 C 
HETATM   10  C   UNL     1      40.191 -15.913   2.049  1.00  0.00     0.238 C 
HETATM   11  N   UNL     1      40.592 -14.869   3.061  1.00  0.00    -0.061 N 
HETATM   12  H   UNL     1      41.421 -14.371   2.720  1.00  0.00     0.278 HD
HETATM   13  H   UNL     1      39.857 -14.162   3.171  1.00  0.00     0.278 HD
HETATM   14  C   UNL     1      40.930 -15.426   4.422  1.00  0.00     0.269 C 
HETATM   15  C   UNL     1      44.057 -19.247   5.278  1.00  0.00     0.033 A 
HETATM   16  C   UNL     1      44.644 -20.229   4.468  1.00  0.00     0.039 A 
ENDROOT
BRANCH  14  17
HETATM   17  C   UNL     1      41.556 -14.344   5.278  1.00  0.00    -0.019 A 
HETATM   18  C   UNL     1      40.803 -13.248   5.740  1.00  0.00     0.049 A 
HETATM   19  C   UNL     1      41.387 -12.262   6.543  1.00  0.00     0.102 A 
HETATM   20  C   UNL     1      42.736 -12.374   6.922  1.00  0.00     0.102 A 
HETATM   21  C   UNL     1      43.480 -13.473   6.489  1.00  0.00     0.040 A 
HETATM   22  C   UNL     1      42.898 -14.447   5.671  1.00  0.00     0.012 A 
BRANCH  19  23
HETATM   23  O   UNL     1      40.700 -11.180   7.031  1.00  0.00    -0.353 OA
HETATM   24  C   UNL     1      39.536 -11.443   7.805  1.00  0.00     0.210 C 
ENDBRANCH  19  23
BRANCH  20  25
HETATM   25  O   UNL     1      43.219 -11.373   7.721  1.00  0.00    -0.343 OA
BRANCH  25  26
HETATM   26  C   UNL     1      43.706 -11.687   9.021  1.00  0.00     0.129 C 
HETATM   27  C   UNL     1      45.207 -11.436   9.170  1.00  0.00     0.032 C 
HETATM   28  C   UNL     1      45.371 -11.185  10.657  1.00  0.00     0.002 C 
HETATM   29  C   UNL     1      44.180 -10.302  10.995  1.00  0.00     0.002 C 
HETATM   30  C   UNL     1      43.069 -10.721  10.034  1.00  0.00     0.032 C 
ENDBRANCH  25  26
ENDBRANCH  20  25
ENDBRANCH  14  17
BRANCH   1  31
HETATM   31  O   UNL     1      44.886 -21.211   2.224  1.00  0.00    -0.356 OA
HETATM   32  C   UNL     1      43.958 -22.004   1.491  1.00  0.00     0.210 C 
ENDBRANCH   1  31
TORSDOF 5
ENDMDL
MODEL 4
REMARK VINA RESULT:      -7.9      4.985      7.927
REMARK  5 active torsions:
REMARK  status: ('A' for Active; 'I' for Inactive)
REMARK    1  A    between atoms: O_2  and  C_3 
REMARK    2  A    between atoms: C_16  and  C_17 
REMARK    3  A    between atoms: C_19  and  O_20 
REMARK    4  A    between atoms: C_22  and  O_23 
REMARK    5  A    between atoms: O_23  and  C_24 
ROOT
HETATM    1  C   UNL     1      44.412 -20.684   3.485  1.00  0.00     0.069 A 
HETATM    2  C   UNL     1      44.289 -19.878   4.625  1.00  0.00     0.051 A 
HETATM    3  C   UNL     1      43.984 -18.511   4.490  1.00  0.00     0.002 A 
HETATM    4  C   UNL     1      43.817 -17.986   3.208  1.00  0.00     0.043 A 
HETATM    5  N   UNL     1      43.530 -16.644   3.338  1.00  0.00    -0.356 N 
HETATM    6  H   UNL     1      43.354 -16.027   2.553  1.00  0.00     0.166 HD
HETATM    7  C   UNL     1      43.469 -16.315   4.669  1.00  0.00     0.052 A 
HETATM    8  C   UNL     1      43.777 -17.444   5.403  1.00  0.00    -0.019 A 
HETATM    9  C   UNL     1      43.822 -17.434   6.894  1.00  0.00     0.069 C 
HETATM   10  C   UNL     1      43.894 -15.988   7.418  1.00  0.00     0.238 C 
HETATM   11  N   UNL     1      42.899 -15.108   6.703  1.00  0.00    -0.061 N 
HETATM   12  H   UNL     1      41.959 -15.502   6.817  1.00  0.00     0.278 HD
HETATM   13  H   UNL     1      42.870 -14.172   7.120  1.00  0.00     0.278 HD
HETATM   14  C   UNL     1      43.151 -14.966   5.223  1.00  0.00     0.269 C 
HETATM   15  C   UNL     1      43.942 -18.768   2.056  1.00  0.00     0.033 A 
HETATM   16  C   UNL     1      44.241 -20.129   2.218  1.00  0.00     0.039 A 
ENDROOT
BRANCH  14  17
HETATM   17  C   UNL     1      41.970 -14.283   4.564  1.00  0.00    -0.019 A 
HETATM   18  C   UNL     1      42.024 -12.927   4.188  1.00  0.00     0.049 A 
HETATM   19  C   UNL     1      40.933 -12.310   3.566  1.00  0.00     0.102 A 
HETATM   20  C   UNL     1      39.774 -13.054   3.282  1.00  0.00     0.102 A 
HETATM   21  C   UNL     1      39.727 -14.405   3.627  1.00  0.00     0.040 A 
HETATM   22  C   UNL     1      40.812 -15.015   4.266  1.00  0.00     0.012 A 
BRANCH  19  23
HETATM   23  O   UNL     1      40.933 -10.997   3.169  1.00  0.00    -0.353 OA
HETATM   24  C   UNL     1      40.853 -10.010   4.190  1.00  0.00     0.210 C 
ENDBRANCH  19  23
BRANCH  20  25
HETATM   25  O   UNL     1      38.764 -12.373   2.659  1.00  0.00    -0.343 OA
BRANCH  25  26
HETATM   26  C   UNL     1      38.270 -12.842   1.409  1.00  0.00     0.129 C 
HETATM   27  C   UNL     1      37.154 -11.963   0.844  1.00  0.00     0.032 C 
HETATM   28  C   UNL     1      37.247 -12.202  -0.651  1.00  0.00     0.002 C 
HETATM   29  C   UNL     1      38.745 -12.192  -0.913  1.00  0.00     0.002 C 
HETATM   30  C   UNL     1      39.390 -12.733   0.362  1.00  0.00     0.032 C 
ENDBRANCH  25  26
ENDBRANCH  20  25
ENDBRANCH  14  17
BRANCH   1  31
HETATM   31  O   UNL     1      44.702 -21.994   3.755  1.00  0.00    -0.356 OA
HETATM   32  C   UNL     1      45.054 -22.316   5.096  1.00  0.00     0.210 C 
ENDBRANCH   1  31
TORSDOF 5
ENDMDL
MODEL 5
REMARK VINA RESULT:      -7.9      2.654      4.009
REMARK  5 active torsions:
REMARK  status: ('A' for Active; 'I' for Inactive)
REMARK    1  A    between atoms: O_2  and  C_3 
REMARK    2  A    between atoms: C_16  and  C_17 
REMARK    3  A    between atoms: C_19  and  O_20 
REMARK    4  A    between atoms: C_22  and  O_23 
REMARK    5  A    between atoms: O_23  and  C_24 
ROOT
HETATM    1  C   UNL     1      44.498 -20.439   5.196  1.00  0.00     0.069 A 
HETATM    2  C   UNL     1      44.349 -19.389   4.280  1.00  0.00     0.051 A 
HETATM    3  C   UNL     1      43.743 -18.185   4.683  1.00  0.00     0.002 A 
HETATM    4  C   UNL     1      43.294 -18.069   5.999  1.00  0.00     0.043 A 
HETATM    5  N   UNL     1      42.744 -16.814   6.146  1.00  0.00    -0.356 N 
HETATM    6  H   UNL     1      42.349 -16.470   7.015  1.00  0.00     0.166 HD
HETATM    7  C   UNL     1      42.871 -16.117   4.971  1.00  0.00     0.052 A 
HETATM    8  C   UNL     1      43.457 -16.952   4.039  1.00  0.00    -0.019 A 
HETATM    9  C   UNL     1      43.725 -16.515   2.639  1.00  0.00     0.069 C 
HETATM   10  C   UNL     1      42.915 -15.248   2.309  1.00  0.00     0.238 C 
HETATM   11  N   UNL     1      43.015 -14.241   3.428  1.00  0.00    -0.061 N 
HETATM   12  H   UNL     1      44.003 -14.023   3.597  1.00  0.00     0.278 HD
HETATM   13  H   UNL     1      42.565 -13.357   3.168  1.00  0.00     0.278 HD
HETATM   14  C   UNL     1      42.428 -14.711   4.736  1.00  0.00     0.269 C 
HETATM   15  C   UNL     1      43.425 -19.105   6.929  1.00  0.00     0.033 A 
HETATM   16  C   UNL     1      44.038 -20.293   6.504  1.00  0.00     0.039 A 
ENDROOT
BRANCH  14  17
HETATM   17  C   UNL     1      42.800 -13.746   5.842  1.00  0.00    -0.019 A 
HETATM   18  C   UNL     1      44.000 -13.888   6.566  1.00  0.00     0.049 A 
HETATM   19  C   UNL     1      44.342 -12.982   7.575  1.00  0.00     0.102 A 
HETATM   20  C   UNL     1      43.496 -11.895   7.859  1.00  0.00     0.102 A 
HETATM   21  C   UNL     1      42.319 -11.735   7.126  1.00  0.00     0.040 A 
HETATM   22  C   UNL     1      41.971 -12.653   6.129  1.00  0.00     0.012 A 
BRANCH  19  23
HETATM   23  O   UNL     1      45.501 -13.064   8.304  1.00  0.00    -0.353 OA
HETATM   24  C   UNL     1      46.666 -12.473   7.743  1.00  0.00     0.210 C 
ENDBRANCH  19  23
BRANCH  20  25
HETATM   25  O   UNL     1      43.917 -11.051   8.851  1.00  0.00    -0.343 OA
BRANCH  25  26
HETATM   26  C   UNL     1      43.368 -11.177  10.158  1.00  0.00     0.129 C 
HETATM   27  C   UNL     1      44.330 -10.715  11.253  1.00  0.00     0.032 C 
HETATM   28  C   UNL     1      43.402 -10.310  12.382  1.00  0.00     0.002 C 
HETATM   29  C   UNL     1      42.285  -9.567  11.666  1.00  0.00     0.002 C 
HETATM   30  C   UNL     1      42.174 -10.218  10.288  1.00  0.00     0.032 C 
ENDBRANCH  25  26
ENDBRANCH  20  25
ENDBRANCH  14  17
BRANCH   1  31
HETATM   31  O   UNL     1      45.111 -21.548   4.680  1.00  0.00    -0.356 OA
HETATM   32  C   UNL     1      44.489 -22.170   3.560  1.00  0.00     0.210 C 
ENDBRANCH   1  31
TORSDOF 5
ENDMDL
MODEL 6
REMARK VINA RESULT:      -7.9      4.620      8.837
REMARK  5 active torsions:
REMARK  status: ('A' for Active; 'I' for Inactive)
REMARK    1  A    between atoms: O_2  and  C_3 
REMARK    2  A    between atoms: C_16  and  C_17 
REMARK    3  A    between atoms: C_19  and  O_20 
REMARK    4  A    between atoms: C_22  and  O_23 
REMARK    5  A    between atoms: O_23  and  C_24 
ROOT
HETATM    1  C   UNL     1      38.059 -12.242   0.825  1.00  0.00     0.069 A 
HETATM    2  C   UNL     1      38.856 -11.887   1.922  1.00  0.00     0.051 A 
HETATM    3  C   UNL     1      39.377 -12.886   2.765  1.00  0.00     0.002 A 
HETATM    4  C   UNL     1      39.076 -14.220   2.486  1.00  0.00     0.043 A 
HETATM    5  N   UNL     1      39.693 -14.998   3.443  1.00  0.00    -0.356 N 
HETATM    6  H   UNL     1      39.641 -16.010   3.465  1.00  0.00     0.166 HD
HETATM    7  C   UNL     1      40.410 -14.196   4.294  1.00  0.00     0.052 A 
HETATM    8  C   UNL     1      40.206 -12.882   3.917  1.00  0.00    -0.019 A 
HETATM    9  C   UNL     1      40.829 -11.740   4.647  1.00  0.00     0.069 C 
HETATM   10  C   UNL     1      41.332 -12.199   6.029  1.00  0.00     0.238 C 
HETATM   11  N   UNL     1      42.082 -13.503   5.920  1.00  0.00    -0.061 N 
HETATM   12  H   UNL     1      42.856 -13.392   5.256  1.00  0.00     0.278 HD
HETATM   13  H   UNL     1      42.508 -13.758   6.818  1.00  0.00     0.278 HD
HETATM   14  C   UNL     1      41.242 -14.661   5.442  1.00  0.00     0.269 C 
HETATM   15  C   UNL     1      38.279 -14.598   1.401  1.00  0.00     0.033 A 
HETATM   16  C   UNL     1      37.776 -13.583   0.574  1.00  0.00     0.039 A 
ENDROOT
BRANCH  14  17
HETATM   17  C   UNL     1      42.132 -15.846   5.127  1.00  0.00    -0.019 A 
HETATM   18  C   UNL     1      42.274 -16.917   6.031  1.00  0.00     0.049 A 
HETATM   19  C   UNL     1      43.086 -18.013   5.725  1.00  0.00     0.102 A 
HETATM   20  C   UNL     1      43.752 -18.069   4.487  1.00  0.00     0.102 A 
HETATM   21  C   UNL     1      43.593 -17.024   3.577  1.00  0.00     0.040 A 
HETATM   22  C   UNL     1      42.794 -15.920   3.894  1.00  0.00     0.012 A 
BRANCH  19  23
HETATM   23  O   UNL     1      43.253 -19.088   6.561  1.00  0.00    -0.353 OA
HETATM   24  C   UNL     1      43.984 -18.870   7.761  1.00  0.00     0.210 C 
ENDBRANCH  19  23
BRANCH  20  25
HETATM   25  O   UNL     1      44.512 -19.186   4.266  1.00  0.00    -0.343 OA
BRANCH  25  26
HETATM   26  C   UNL     1      43.923 -20.323   3.645  1.00  0.00     0.129 C 
HETATM   27  C   UNL     1      44.035 -20.291   2.120  1.00  0.00     0.032 C 
HETATM   28  C   UNL     1      43.986 -21.758   1.738  1.00  0.00     0.002 C 
HETATM   29  C   UNL     1      44.871 -22.420   2.783  1.00  0.00     0.002 C 
HETATM   30  C   UNL     1      44.721 -21.574   4.047  1.00  0.00     0.032 C 
ENDBRANCH  25  26
ENDBRANCH  20  25
ENDBRANCH  14  17
BRANCH   1  31
HETATM   31  O   UNL     1      37.625 -11.177   0.082  1.00  0.00    -0.356 OA
HETATM   32  C   UNL     1      36.986 -11.468  -1.156  1.00  0.00     0.210 C 
ENDBRANCH   1  31
TORSDOF 5
ENDMDL
MODEL 7
REMARK VINA RESULT:      -7.9      4.674      8.677
REMARK  5 active torsions:
REMARK  status: ('A' for Active; 'I' for Inactive)
REMARK    1  A    between atoms: O_2  and  C_3 
REMARK    2  A    between atoms: C_16  and  C_17 
REMARK    3  A    between atoms: C_19  and  O_20 
REMARK    4  A    between atoms: C_22  and  O_23 
REMARK    5  A    between atoms: O_23  and  C_24 
ROOT
HETATM    1  C   UNL     1      38.115 -12.321   0.811  1.00  0.00     0.069 A 
HETATM    2  C   UNL     1      38.876 -11.958   1.930  1.00  0.00     0.051 A 
HETATM    3  C   UNL     1      39.377 -12.952   2.791  1.00  0.00     0.002 A 
HETATM    4  C   UNL     1      39.092 -14.288   2.509  1.00  0.00     0.043 A 
HETATM    5  N   UNL     1      39.684 -15.059   3.486  1.00  0.00    -0.356 N 
HETATM    6  H   UNL     1      39.638 -16.072   3.510  1.00  0.00     0.166 HD
HETATM    7  C   UNL     1      40.371 -14.251   4.355  1.00  0.00     0.052 A 
HETATM    8  C   UNL     1      40.171 -12.939   3.967  1.00  0.00    -0.019 A 
HETATM    9  C   UNL     1      40.766 -11.792   4.713  1.00  0.00     0.069 C 
HETATM   10  C   UNL     1      41.230 -12.243   6.110  1.00  0.00     0.238 C 
HETATM   11  N   UNL     1      41.990 -13.544   6.029  1.00  0.00    -0.061 N 
HETATM   12  H   UNL     1      42.783 -13.430   5.387  1.00  0.00     0.278 HD
HETATM   13  H   UNL     1      42.390 -13.793   6.939  1.00  0.00     0.278 HD
HETATM   14  C   UNL     1      41.171 -14.708   5.529  1.00  0.00     0.269 C 
HETATM   15  C   UNL     1      38.330 -14.674   1.402  1.00  0.00     0.033 A 
HETATM   16  C   UNL     1      37.847 -13.665   0.556  1.00  0.00     0.039 A 
ENDROOT
BRANCH  14  17
HETATM   17  C   UNL     1      42.077 -15.889   5.246  1.00  0.00    -0.019 A 
HETATM   18  C   UNL     1      42.705 -16.047   3.995  1.00  0.00     0.049 A 
HETATM   19  C   UNL     1      43.552 -17.133   3.749  1.00  0.00     0.102 A 
HETATM   20  C   UNL     1      43.808 -18.068   4.767  1.00  0.00     0.102 A 
HETATM   21  C   UNL     1      43.210 -17.900   6.017  1.00  0.00     0.040 A 
HETATM   22  C   UNL     1      42.349 -16.824   6.254  1.00  0.00     0.012 A 
BRANCH  19  23
HETATM   23  O   UNL     1      44.197 -17.332   2.555  1.00  0.00    -0.353 OA
HETATM   24  C   UNL     1      43.412 -17.782   1.458  1.00  0.00     0.210 C 
ENDBRANCH  19  23
BRANCH  20  25
HETATM   25  O   UNL     1      44.660 -19.088   4.442  1.00  0.00    -0.343 OA
BRANCH  25  26
HETATM   26  C   UNL     1      44.148 -20.408   4.289  1.00  0.00     0.129 C 
HETATM   27  C   UNL     1      44.694 -21.117   3.050  1.00  0.00     0.032 C 
HETATM   28  C   UNL     1      44.590 -22.585   3.416  1.00  0.00     0.002 C 
HETATM   29  C   UNL     1      45.057 -22.618   4.863  1.00  0.00     0.002 C 
HETATM   30  C   UNL     1      44.649 -21.271   5.459  1.00  0.00     0.032 C 
ENDBRANCH  25  26
ENDBRANCH  20  25
ENDBRANCH  14  17
BRANCH   1  31
HETATM   31  O   UNL     1      37.697 -11.262   0.052  1.00  0.00    -0.356 OA
HETATM   32  C   UNL     1      38.468 -10.948  -1.103  1.00  0.00     0.210 C 
ENDBRANCH   1  31
TORSDOF 5
ENDMDL
MODEL 8
REMARK VINA RESULT:      -7.7      6.193      9.584
REMARK  5 active torsions:
REMARK  status: ('A' for Active; 'I' for Inactive)
REMARK    1  A    between atoms: O_2  and  C_3 
REMARK    2  A    between atoms: C_16  and  C_17 
REMARK    3  A    between atoms: C_19  and  O_20 
REMARK    4  A    between atoms: C_22  and  O_23 
REMARK    5  A    between atoms: O_23  and  C_24 
ROOT
HETATM    1  C   UNL     1      40.929 -12.184  -3.073  1.00  0.00     0.069 A 
HETATM    2  C   UNL     1      40.539 -12.100  -1.730  1.00  0.00     0.051 A 
HETATM    3  C   UNL     1      40.518 -13.259  -0.931  1.00  0.00     0.002 A 
HETATM    4  C   UNL     1      40.884 -14.476  -1.507  1.00  0.00     0.043 A 
HETATM    5  N   UNL     1      40.783 -15.447  -0.535  1.00  0.00    -0.356 N 
HETATM    6  H   UNL     1      41.002 -16.425  -0.690  1.00  0.00     0.166 HD
HETATM    7  C   UNL     1      40.404 -14.872   0.651  1.00  0.00     0.052 A 
HETATM    8  C   UNL     1      40.202 -13.523   0.427  1.00  0.00    -0.019 A 
HETATM    9  C   UNL     1      39.760 -12.596   1.509  1.00  0.00     0.069 C 
HETATM   10  C   UNL     1      39.193 -13.392   2.699  1.00  0.00     0.238 C 
HETATM   11  N   UNL     1      40.091 -14.554   3.044  1.00  0.00    -0.061 N 
HETATM   12  H   UNL     1      41.035 -14.203   3.242  1.00  0.00     0.278 HD
HETATM   13  H   UNL     1      39.774 -15.023   3.899  1.00  0.00     0.278 HD
HETATM   14  C   UNL     1      40.216 -15.585   1.949  1.00  0.00     0.269 C 
HETATM   15  C   UNL     1      41.271 -14.584  -2.846  1.00  0.00     0.033 A 
HETATM   16  C   UNL     1      41.288 -13.415  -3.619  1.00  0.00     0.039 A 
ENDROOT
BRANCH  14  17
HETATM   17  C   UNL     1      41.321 -16.564   2.289  1.00  0.00    -0.019 A 
HETATM   18  C   UNL     1      42.097 -16.417   3.455  1.00  0.00     0.049 A 
HETATM   19  C   UNL     1      43.105 -17.336   3.768  1.00  0.00     0.102 A 
HETATM   20  C   UNL     1      43.334 -18.439   2.927  1.00  0.00     0.102 A 
HETATM   21  C   UNL     1      42.550 -18.604   1.785  1.00  0.00     0.040 A 
HETATM   22  C   UNL     1      41.555 -17.673   1.465  1.00  0.00     0.012 A 
BRANCH  19  23
HETATM   23  O   UNL     1      43.883 -17.249   4.893  1.00  0.00    -0.353 OA
HETATM   24  C   UNL     1      43.220 -17.319   6.150  1.00  0.00     0.210 C 
ENDBRANCH  19  23
BRANCH  20  25
HETATM   25  O   UNL     1      44.328 -19.294   3.319  1.00  0.00    -0.343 OA
BRANCH  25  26
HETATM   26  C   UNL     1      43.991 -20.594   3.789  1.00  0.00     0.129 C 
HETATM   27  C   UNL     1      44.539 -21.709   2.900  1.00  0.00     0.032 C 
HETATM   28  C   UNL     1      44.661 -22.884   3.852  1.00  0.00     0.002 C 
HETATM   29  C   UNL     1      45.228 -22.253   5.114  1.00  0.00     0.002 C 
HETATM   30  C   UNL     1      44.684 -20.826   5.142  1.00  0.00     0.032 C 
ENDBRANCH  25  26
ENDBRANCH  20  25
ENDBRANCH  14  17
BRANCH   1  31
HETATM   31  O   UNL     1      40.914 -10.986  -3.735  1.00  0.00    -0.356 OA
HETATM   32  C   UNL     1      41.948 -10.758  -4.686  1.00  0.00     0.210 C 
ENDBRANCH   1  31
TORSDOF 5
ENDMDL
MODEL 9
REMARK VINA RESULT:      -7.7      5.759      8.614
REMARK  5 active torsions:
REMARK  status: ('A' for Active; 'I' for Inactive)
REMARK    1  A    between atoms: O_2  and  C_3 
REMARK    2  A    between atoms: C_16  and  C_17 
REMARK    3  A    between atoms: C_19  and  O_20 
REMARK    4  A    between atoms: C_22  and  O_23 
REMARK    5  A    between atoms: O_23  and  C_24 
ROOT
HETATM    1  C   UNL     1      44.696 -20.475   4.254  1.00  0.00     0.069 A 
HETATM    2  C   UNL     1      44.364 -19.334   4.997  1.00  0.00     0.051 A 
HETATM    3  C   UNL     1      43.935 -18.167   4.339  1.00  0.00     0.002 A 
HETATM    4  C   UNL     1      43.858 -18.174   2.946  1.00  0.00     0.043 A 
HETATM    5  N   UNL     1      43.420 -16.931   2.543  1.00  0.00    -0.356 N 
HETATM    6  H   UNL     1      43.269 -16.674   1.574  1.00  0.00     0.166 HD
HETATM    7  C   UNL     1      43.178 -16.151   3.645  1.00  0.00     0.052 A 
HETATM    8  C   UNL     1      43.519 -16.880   4.768  1.00  0.00    -0.019 A 
HETATM    9  C   UNL     1      43.396 -16.320   6.146  1.00  0.00     0.069 C 
HETATM   10  C   UNL     1      43.259 -14.788   6.090  1.00  0.00     0.238 C 
HETATM   11  N   UNL     1      42.263 -14.375   5.035  1.00  0.00    -0.061 N 
HETATM   12  H   UNL     1      41.363 -14.827   5.228  1.00  0.00     0.278 HD
HETATM   13  H   UNL     1      42.091 -13.365   5.067  1.00  0.00     0.278 HD
HETATM   14  C   UNL     1      42.662 -14.751   3.630  1.00  0.00     0.269 C 
HETATM   15  C   UNL     1      44.190 -19.298   2.183  1.00  0.00     0.033 A 
HETATM   16  C   UNL     1      44.609 -20.451   2.863  1.00  0.00     0.039 A 
ENDROOT
BRANCH  14  17
HETATM   17  C   UNL     1      41.497 -14.525   2.688  1.00  0.00    -0.019 A 
HETATM   18  C   UNL     1      41.656 -13.815   1.482  1.00  0.00     0.049 A 
HETATM   19  C   UNL     1      40.577 -13.626   0.612  1.00  0.00     0.102 A 
HETATM   20  C   UNL     1      39.319 -14.173   0.924  1.00  0.00     0.102 A 
HETATM   21  C   UNL     1      39.164 -14.900   2.105  1.00  0.00     0.040 A 
HETATM   22  C   UNL     1      40.240 -15.072   2.982  1.00  0.00     0.012 A 
BRANCH  19  23
HETATM   23  O   UNL     1      40.675 -12.953  -0.579  1.00  0.00    -0.353 OA
HETATM   24  C   UNL     1      41.953 -12.921  -1.204  1.00  0.00     0.210 C 
ENDBRANCH  19  23
BRANCH  20  25
HETATM   25  O   UNL     1      38.327 -13.951   0.009  1.00  0.00    -0.343 OA
BRANCH  25  26
HETATM   26  C   UNL     1      37.326 -12.976   0.281  1.00  0.00     0.129 C 
HETATM   27  C   UNL     1      37.704 -12.042   1.432  1.00  0.00     0.032 C 
HETATM   28  C   UNL     1      36.916 -10.782   1.128  1.00  0.00     0.002 C 
HETATM   29  C   UNL     1      37.081 -10.620  -0.375  1.00  0.00     0.002 C 
HETATM   30  C   UNL     1      37.206 -12.038  -0.931  1.00  0.00     0.032 C 
ENDBRANCH  25  26
ENDBRANCH  20  25
ENDBRANCH  14  17
BRANCH   1  31
HETATM   31  O   UNL     1      45.088 -21.543   5.015  1.00  0.00    -0.356 OA
HETATM   32  C   UNL     1      44.719 -22.839   4.553  1.00  0.00     0.210 C 
ENDBRANCH   1  31
TORSDOF 5
ENDMDL
MODEL 10
REMARK VINA RESULT:      -7.6      5.882     10.335
REMARK  5 active torsions:
REMARK  status: ('A' for Active; 'I' for Inactive)
REMARK    1  A    between atoms: O_2  and  C_3 
REMARK    2  A    between atoms: C_16  and  C_17 
REMARK    3  A    between atoms: C_19  and  O_20 
REMARK    4  A    between atoms: C_22  and  O_23 
REMARK    5  A    between atoms: O_23  and  C_24 
ROOT
HETATM    1  C   UNL     1      43.879 -19.139   4.477  1.00  0.00     0.069 A 
HETATM    2  C   UNL     1      43.384 -17.863   4.783  1.00  0.00     0.051 A 
HETATM    3  C   UNL     1      43.211 -16.913   3.760  1.00  0.00     0.002 A 
HETATM    4  C   UNL     1      43.546 -17.268   2.453  1.00  0.00     0.043 A 
HETATM    5  N   UNL     1      43.291 -16.182   1.644  1.00  0.00    -0.356 N 
HETATM    6  H   UNL     1      43.442 -16.178   0.641  1.00  0.00     0.166 HD
HETATM    7  C   UNL     1      42.764 -15.163   2.396  1.00  0.00     0.052 A 
HETATM    8  C   UNL     1      42.733 -15.577   3.714  1.00  0.00    -0.019 A 
HETATM    9  C   UNL     1      42.231 -14.699   4.811  1.00  0.00     0.069 C 
HETATM   10  C   UNL     1      42.172 -13.235   4.339  1.00  0.00     0.238 C 
HETATM   11  N   UNL     1      41.546 -13.137   2.970  1.00  0.00    -0.061 N 
HETATM   12  H   UNL     1      40.612 -13.561   2.996  1.00  0.00     0.278 HD
HETATM   13  H   UNL     1      41.409 -12.157   2.699  1.00  0.00     0.278 HD
HETATM   14  C   UNL     1      42.326 -13.832   1.883  1.00  0.00     0.269 C 
HETATM   15  C   UNL     1      44.047 -18.532   2.125  1.00  0.00     0.033 A 
HETATM   16  C   UNL     1      44.206 -19.462   3.162  1.00  0.00     0.039 A 
ENDROOT
BRANCH  14  17
HETATM   17  C   UNL     1      41.499 -13.893   0.616  1.00  0.00    -0.019 A 
HETATM   18  C   UNL     1      42.075 -13.657  -0.648  1.00  0.00     0.049 A 
HETATM   19  C   UNL     1      41.305 -13.731  -1.813  1.00  0.00     0.102 A 
HETATM   20  C   UNL     1      39.943 -14.073  -1.735  1.00  0.00     0.102 A 
HETATM   21  C   UNL     1      39.374 -14.335  -0.488  1.00  0.00     0.040 A 
HETATM   22  C   UNL     1      40.142 -14.242   0.678  1.00  0.00     0.012 A 
BRANCH  19  23
HETATM   23  O   UNL     1      41.814 -13.522  -3.070  1.00  0.00    -0.353 OA
HETATM   24  C   UNL     1      42.421 -12.261  -3.323  1.00  0.00     0.210 C 
ENDBRANCH  19  23
BRANCH  20  25
HETATM   25  O   UNL     1      39.272 -14.137  -2.926  1.00  0.00    -0.343 OA
BRANCH  25  26
HETATM   26  C   UNL     1      37.881 -13.837  -2.964  1.00  0.00     0.129 C 
HETATM   27  C   UNL     1      37.578 -12.510  -3.658  1.00  0.00     0.032 C 
HETATM   28  C   UNL     1      36.161 -12.698  -4.165  1.00  0.00     0.002 C 
HETATM   29  C   UNL     1      36.169 -14.120  -4.704  1.00  0.00     0.002 C 
HETATM   30  C   UNL     1      37.174 -14.883  -3.842  1.00  0.00     0.032 C 
ENDBRANCH  25  26
ENDBRANCH  20  25
ENDBRANCH  14  17
BRANCH   1  31
HETATM   31  O   UNL     1      43.991 -19.968   5.560  1.00  0.00    -0.356 OA
HETATM   32  C   UNL     1      43.883 -19.371   6.848  1.00  0.00     0.210 C 
ENDBRANCH   1  31
TORSDOF 5
ENDMDL
