MODEL 1
REMARK VINA RESULT:      -7.3      0.000      0.000
REMARK  5 active torsions:
REMARK  status: ('A' for Active; 'I' for Inactive)
REMARK    1  A    between atoms: C_5  and  N_6 
REMARK       I    between atoms: N_6  and  C_7 
REMARK       I    between atoms: C_7  and  N_8 
REMARK    2  A    between atoms: N_8  and  C_9 
REMARK    3  A    between atoms: C_16  and  O_17 
REMARK    4  A    between atoms: O_17  and  C_18 
REMARK    5  A    between atoms: C_18  and  C_19 
ROOT
HETATM    1  C   UNL     1      44.437 -20.376   4.096  1.00  0.00     0.026 A 
HETATM    2  C   UNL     1      44.296 -20.609   2.727  1.00  0.00     0.036 A 
HETATM    3 CL   UNL     1      44.607 -22.183   2.103  1.00  0.00    -0.084 Cl
HETATM    4  C   UNL     1      43.923 -19.580   1.859  1.00  0.00     0.056 A 
HETATM    5  C   UNL     1      43.678 -18.301   2.362  1.00  0.00     0.071 A 
HETATM    6  C   UNL     1      43.803 -18.079   3.746  1.00  0.00     0.096 A 
HETATM    7  C   UNL     1      44.195 -19.103   4.610  1.00  0.00     0.041 A 
ENDROOT
BRANCH   5   8
HETATM    8  N   UNL     1      43.325 -17.194   1.560  1.00  0.00    -0.306 N 
HETATM    9  C   UNL     1      42.107 -16.943   0.957  1.00  0.00     0.325 C 
HETATM   10  N   UNL     1      42.187 -15.827   0.141  1.00  0.00    -0.306 N 
HETATM   11  O   UNL     1      41.091 -17.606   1.128  1.00  0.00    -0.247 OA
HETATM   12  H   UNL     1      43.097 -15.452  -0.076  1.00  0.00     0.171 HD
HETATM   13  H   UNL     1      44.001 -16.441   1.559  1.00  0.00     0.171 HD
BRANCH  10  14
HETATM   14  C   UNL     1      41.110 -15.273  -0.523  1.00  0.00     0.072 A 
HETATM   15  C   UNL     1      40.090 -14.398  -0.090  1.00  0.00     0.169 A 
HETATM   16  N   UNL     1      39.234 -14.089  -1.072  1.00  0.00    -0.185 NA
HETATM   17  N   UNL     1      39.705 -14.773  -2.126  1.00  0.00    -0.287 N 
HETATM   18  H   UNL     1      39.205 -14.698  -3.006  1.00  0.00     0.188 HD
HETATM   19  C   UNL     1      40.831 -15.495  -1.851  1.00  0.00     0.140 A 
ENDBRANCH  10  14
ENDBRANCH   5   8
BRANCH   6  20
HETATM   20  O   UNL     1      43.569 -16.810   4.218  1.00  0.00    -0.340 OA
BRANCH  20  21
HETATM   21  C   UNL     1      42.777 -16.827   5.421  1.00  0.00     0.293 C 
BRANCH  21  22
HETATM   22  C   UNL     1      41.301 -16.738   5.069  1.00  0.00     0.408 C 
HETATM   23  F   UNL     1      40.599 -16.134   6.057  1.00  0.00    -0.169 F 
HETATM   24  F   UNL     1      41.119 -16.020   3.939  1.00  0.00    -0.169 F 
HETATM   25  F   UNL     1      40.762 -17.960   4.868  1.00  0.00    -0.169 F 
ENDBRANCH  21  22
ENDBRANCH  20  21
ENDBRANCH   6  20
TORSDOF 5
ENDMDL
MODEL 2
REMARK VINA RESULT:      -7.2      3.032      3.593
REMARK  5 active torsions:
REMARK  status: ('A' for Active; 'I' for Inactive)
REMARK    1  A    between atoms: C_5  and  N_6 
REMARK       I    between atoms: N_6  and  C_7 
REMARK       I    between atoms: C_7  and  N_8 
REMARK    2  A    between atoms: N_8  and  C_9 
REMARK    3  A    between atoms: C_16  and  O_17 
REMARK    4  A    between atoms: O_17  and  C_18 
REMARK    5  A    between atoms: C_18  and  C_19 
ROOT
HETATM    1  C   UNL     1      44.800 -21.492   3.885  1.00  0.00     0.026 A 
HETATM    2  C   UNL     1      44.214 -20.944   2.743  1.00  0.00     0.036 A 
HETATM    3 CL   UNL     1      44.004 -21.930   1.348  1.00  0.00    -0.084 Cl
HETATM    4  C   UNL     1      43.813 -19.606   2.715  1.00  0.00     0.056 A 
HETATM    5  C   UNL     1      43.990 -18.804   3.843  1.00  0.00     0.071 A 
HETATM    6  C   UNL     1      44.564 -19.369   4.997  1.00  0.00     0.096 A 
HETATM    7  C   UNL     1      44.983 -20.701   5.018  1.00  0.00     0.041 A 
ENDROOT
BRANCH   5   8
HETATM    8  N   UNL     1      43.642 -17.436   3.899  1.00  0.00    -0.306 N 
HETATM    9  C   UNL     1      42.389 -16.892   4.107  1.00  0.00     0.325 C 
HETATM   10  N   UNL     1      42.424 -15.516   3.959  1.00  0.00    -0.306 N 
HETATM   11  O   UNL     1      41.386 -17.534   4.396  1.00  0.00    -0.247 OA
HETATM   12  H   UNL     1      43.243 -15.094   3.551  1.00  0.00     0.171 HD
HETATM   13  H   UNL     1      44.430 -16.802   3.935  1.00  0.00     0.171 HD
BRANCH  10  14
HETATM   14  C   UNL     1      41.347 -14.683   4.195  1.00  0.00     0.072 A 
HETATM   15  C   UNL     1      40.727 -14.269   5.395  1.00  0.00     0.169 A 
HETATM   16  N   UNL     1      39.705 -13.433   5.177  1.00  0.00    -0.185 NA
HETATM   17  N   UNL     1      39.672 -13.320   3.840  1.00  0.00    -0.287 N 
HETATM   18  H   UNL     1      38.959 -12.725   3.428  1.00  0.00     0.188 HD
HETATM   19  C   UNL     1      40.639 -14.045   3.205  1.00  0.00     0.140 A 
ENDBRANCH  10  14
ENDBRANCH   5   8
BRANCH   6  20
HETATM   20  O   UNL     1      44.740 -18.557   6.092  1.00  0.00    -0.340 OA
BRANCH  20  21
HETATM   21  C   UNL     1      43.752 -18.814   7.109  1.00  0.00     0.293 C 
BRANCH  21  22
HETATM   22  C   UNL     1      43.242 -17.499   7.677  1.00  0.00     0.408 C 
HETATM   23  F   UNL     1      43.474 -17.421   9.008  1.00  0.00    -0.169 F 
HETATM   24  F   UNL     1      43.860 -16.451   7.090  1.00  0.00    -0.169 F 
HETATM   25  F   UNL     1      41.914 -17.352   7.480  1.00  0.00    -0.169 F 
ENDBRANCH  21  22
ENDBRANCH  20  21
ENDBRANCH   6  20
TORSDOF 5
ENDMDL
MODEL 3
REMARK VINA RESULT:      -7.2      3.294      4.260
REMARK  5 active torsions:
REMARK  status: ('A' for Active; 'I' for Inactive)
REMARK    1  A    between atoms: C_5  and  N_6 
REMARK       I    between atoms: N_6  and  C_7 
REMARK       I    between atoms: C_7  and  N_8 
REMARK    2  A    between atoms: N_8  and  C_9 
REMARK    3  A    between atoms: C_16  and  O_17 
REMARK    4  A    between atoms: O_17  and  C_18 
REMARK    5  A    between atoms: C_18  and  C_19 
ROOT
HETATM    1  C   UNL     1      44.685 -18.726   6.585  1.00  0.00     0.026 A 
HETATM    2  C   UNL     1      43.592 -17.957   6.985  1.00  0.00     0.036 A 
HETATM    3 CL   UNL     1      43.488 -17.425   8.619  1.00  0.00    -0.084 Cl
HETATM    4  C   UNL     1      42.577 -17.628   6.082  1.00  0.00     0.056 A 
HETATM    5  C   UNL     1      42.656 -18.065   4.760  1.00  0.00     0.071 A 
HETATM    6  C   UNL     1      43.771 -18.824   4.359  1.00  0.00     0.096 A 
HETATM    7  C   UNL     1      44.775 -19.168   5.267  1.00  0.00     0.041 A 
ENDROOT
BRANCH   5   8
HETATM    8  N   UNL     1      41.668 -17.808   3.785  1.00  0.00    -0.306 N 
HETATM    9  C   UNL     1      41.377 -16.600   3.177  1.00  0.00     0.325 C 
HETATM   10  N   UNL     1      40.252 -16.717   2.376  1.00  0.00    -0.306 N 
HETATM   11  O   UNL     1      42.027 -15.572   3.315  1.00  0.00    -0.247 OA
HETATM   12  H   UNL     1      39.683 -17.544   2.460  1.00  0.00     0.171 HD
HETATM   13  H   UNL     1      41.234 -18.634   3.394  1.00  0.00     0.171 HD
BRANCH  10  14
HETATM   14  C   UNL     1      39.768 -15.706   1.569  1.00  0.00     0.072 A 
HETATM   15  C   UNL     1      38.655 -14.847   1.704  1.00  0.00     0.169 A 
HETATM   16  N   UNL     1      38.550 -13.986   0.686  1.00  0.00    -0.185 NA
HETATM   17  N   UNL     1      39.591 -14.300  -0.100  1.00  0.00    -0.287 N 
HETATM   18  H   UNL     1      39.720 -13.772  -0.957  1.00  0.00     0.188 HD
HETATM   19  C   UNL     1      40.356 -15.322   0.387  1.00  0.00     0.140 A 
ENDBRANCH  10  14
ENDBRANCH   5   8
BRANCH   6  20
HETATM   20  O   UNL     1      43.822 -19.254   3.055  1.00  0.00    -0.340 OA
BRANCH  20  21
HETATM   21  C   UNL     1      44.765 -20.330   2.886  1.00  0.00     0.293 C 
BRANCH  21  22
HETATM   22  C   UNL     1      44.076 -21.523   2.243  1.00  0.00     0.408 C 
HETATM   23  F   UNL     1      42.847 -21.188   1.785  1.00  0.00    -0.169 F 
HETATM   24  F   UNL     1      44.793 -21.986   1.196  1.00  0.00    -0.169 F 
HETATM   25  F   UNL     1      43.926 -22.543   3.117  1.00  0.00    -0.169 F 
ENDBRANCH  21  22
ENDBRANCH  20  21
ENDBRANCH   6  20
TORSDOF 5
ENDMDL
MODEL 4
REMARK VINA RESULT:      -7.1      1.493      1.908
REMARK  5 active torsions:
REMARK  status: ('A' for Active; 'I' for Inactive)
REMARK    1  A    between atoms: C_5  and  N_6 
REMARK       I    between atoms: N_6  and  C_7 
REMARK       I    between atoms: C_7  and  N_8 
REMARK    2  A    between atoms: N_8  and  C_9 
REMARK    3  A    between atoms: C_16  and  O_17 
REMARK    4  A    between atoms: O_17  and  C_18 
REMARK    5  A    between atoms: C_18  and  C_19 
ROOT
HETATM    1  C   UNL     1      44.476 -20.357   4.201  1.00  0.00     0.026 A 
HETATM    2  C   UNL     1      44.323 -20.535   2.825  1.00  0.00     0.036 A 
HETATM    3 CL   UNL     1      44.645 -22.078   2.133  1.00  0.00    -0.084 Cl
HETATM    4  C   UNL     1      43.928 -19.475   2.005  1.00  0.00     0.056 A 
HETATM    5  C   UNL     1      43.675 -18.221   2.563  1.00  0.00     0.071 A 
HETATM    6  C   UNL     1      43.813 -18.055   3.954  1.00  0.00     0.096 A 
HETATM    7  C   UNL     1      44.226 -19.110   4.770  1.00  0.00     0.041 A 
ENDROOT
BRANCH   5   8
HETATM    8  N   UNL     1      43.300 -17.086   1.812  1.00  0.00    -0.306 N 
HETATM    9  C   UNL     1      42.148 -16.908   1.069  1.00  0.00     0.325 C 
HETATM   10  N   UNL     1      42.201 -15.717   0.364  1.00  0.00    -0.306 N 
HETATM   11  O   UNL     1      41.204 -17.687   1.045  1.00  0.00    -0.247 OA
HETATM   12  H   UNL     1      43.081 -15.229   0.305  1.00  0.00     0.171 HD
HETATM   13  H   UNL     1      43.878 -16.269   1.965  1.00  0.00     0.171 HD
BRANCH  10  14
HETATM   14  C   UNL     1      41.160 -15.219  -0.395  1.00  0.00     0.072 A 
HETATM   15  C   UNL     1      40.919 -15.240  -1.786  1.00  0.00     0.169 A 
HETATM   16  N   UNL     1      39.765 -14.646  -2.112  1.00  0.00    -0.185 NA
HETATM   17  N   UNL     1      39.276 -14.241  -0.930  1.00  0.00    -0.287 N 
HETATM   18  H   UNL     1      38.388 -13.749  -0.923  1.00  0.00     0.188 HD
HETATM   19  C   UNL     1      40.072 -14.564   0.132  1.00  0.00     0.140 A 
ENDBRANCH  10  14
ENDBRANCH   5   8
BRANCH   6  20
HETATM   20  O   UNL     1      43.570 -16.809   4.480  1.00  0.00    -0.340 OA
BRANCH  20  21
HETATM   21  C   UNL     1      42.906 -16.891   5.757  1.00  0.00     0.293 C 
BRANCH  21  22
HETATM   22  C   UNL     1      43.724 -16.164   6.811  1.00  0.00     0.408 C 
HETATM   23  F   UNL     1      43.621 -14.821   6.668  1.00  0.00    -0.169 F 
HETATM   24  F   UNL     1      43.294 -16.478   8.053  1.00  0.00    -0.169 F 
HETATM   25  F   UNL     1      45.033 -16.487   6.738  1.00  0.00    -0.169 F 
ENDBRANCH  21  22
ENDBRANCH  20  21
ENDBRANCH   6  20
TORSDOF 5
ENDMDL
MODEL 5
REMARK VINA RESULT:      -7.0      1.901      2.321
REMARK  5 active torsions:
REMARK  status: ('A' for Active; 'I' for Inactive)
REMARK    1  A    between atoms: C_5  and  N_6 
REMARK       I    between atoms: N_6  and  C_7 
REMARK       I    between atoms: C_7  and  N_8 
REMARK    2  A    between atoms: N_8  and  C_9 
REMARK    3  A    between atoms: C_16  and  O_17 
REMARK    4  A    between atoms: O_17  and  C_18 
REMARK    5  A    between atoms: C_18  and  C_19 
ROOT
HETATM    1  C   UNL     1      44.746 -20.665   3.938  1.00  0.00     0.026 A 
HETATM    2  C   UNL     1      44.175 -20.545   2.670  1.00  0.00     0.036 A 
HETATM    3 CL   UNL     1      44.324 -21.845   1.552  1.00  0.00    -0.084 Cl
HETATM    4  C   UNL     1      43.502 -19.380   2.295  1.00  0.00     0.056 A 
HETATM    5  C   UNL     1      43.388 -18.322   3.197  1.00  0.00     0.071 A 
HETATM    6  C   UNL     1      43.948 -18.458   4.480  1.00  0.00     0.096 A 
HETATM    7  C   UNL     1      44.638 -19.615   4.849  1.00  0.00     0.041 A 
ENDROOT
BRANCH   5   8
HETATM    8  N   UNL     1      42.752 -17.097   2.898  1.00  0.00    -0.306 N 
HETATM    9  C   UNL     1      41.650 -16.893   2.089  1.00  0.00     0.325 C 
HETATM   10  N   UNL     1      41.405 -15.539   1.931  1.00  0.00    -0.306 N 
HETATM   11  O   UNL     1      40.975 -17.784   1.589  1.00  0.00    -0.247 OA
HETATM   12  H   UNL     1      42.108 -14.882   2.230  1.00  0.00     0.171 HD
HETATM   13  H   UNL     1      43.059 -16.314   3.461  1.00  0.00     0.171 HD
BRANCH  10  14
HETATM   14  C   UNL     1      40.317 -15.023   1.253  1.00  0.00     0.072 A 
HETATM   15  C   UNL     1      40.200 -14.442  -0.029  1.00  0.00     0.169 A 
HETATM   16  N   UNL     1      38.942 -14.079  -0.310  1.00  0.00    -0.185 NA
HETATM   17  N   UNL     1      38.262 -14.423   0.795  1.00  0.00    -0.287 N 
HETATM   18  H   UNL     1      37.265 -14.237   0.819  1.00  0.00     0.188 HD
HETATM   19  C   UNL     1      39.040 -14.997   1.760  1.00  0.00     0.140 A 
ENDBRANCH  10  14
ENDBRANCH   5   8
BRANCH   6  20
HETATM   20  O   UNL     1      43.834 -17.399   5.349  1.00  0.00    -0.340 OA
BRANCH  20  21
HETATM   21  C   UNL     1      44.527 -17.649   6.587  1.00  0.00     0.293 C 
BRANCH  21  22
HETATM   22  C   UNL     1      43.615 -17.332   7.762  1.00  0.00     0.408 C 
HETATM   23  F   UNL     1      43.693 -16.023   8.099  1.00  0.00    -0.169 F 
HETATM   24  F   UNL     1      42.327 -17.601   7.456  1.00  0.00    -0.169 F 
HETATM   25  F   UNL     1      43.936 -18.059   8.854  1.00  0.00    -0.169 F 
ENDBRANCH  21  22
ENDBRANCH  20  21
ENDBRANCH   6  20
TORSDOF 5
ENDMDL
MODEL 6
REMARK VINA RESULT:      -6.8      2.546      3.086
REMARK  5 active torsions:
REMARK  status: ('A' for Active; 'I' for Inactive)
REMARK    1  A    between atoms: C_5  and  N_6 
REMARK       I    between atoms: N_6  and  C_7 
REMARK       I    between atoms: C_7  and  N_8 
REMARK    2  A    between atoms: N_8  and  C_9 
REMARK    3  A    between atoms: C_16  and  O_17 
REMARK    4  A    between atoms: O_17  and  C_18 
REMARK    5  A    between atoms: C_18  and  C_19 
ROOT
HETATM    1  C   UNL     1      44.812 -21.078   4.202  1.00  0.00     0.026 A 
HETATM    2  C   UNL     1      44.319 -20.862   2.915  1.00  0.00     0.036 A 
HETATM    3 CL   UNL     1      44.706 -21.980   1.665  1.00  0.00    -0.084 Cl
HETATM    4  C   UNL     1      43.531 -19.744   2.627  1.00  0.00     0.056 A 
HETATM    5  C   UNL     1      43.223 -18.832   3.637  1.00  0.00     0.071 A 
HETATM    6  C   UNL     1      43.708 -19.068   4.937  1.00  0.00     0.096 A 
HETATM    7  C   UNL     1      44.511 -20.175   5.220  1.00  0.00     0.041 A 
ENDROOT
BRANCH   5   8
HETATM    8  N   UNL     1      42.460 -17.661   3.436  1.00  0.00    -0.306 N 
HETATM    9  C   UNL     1      42.890 -16.453   2.919  1.00  0.00     0.325 C 
HETATM   10  N   UNL     1      41.886 -15.502   3.004  1.00  0.00    -0.306 N 
HETATM   11  O   UNL     1      43.999 -16.251   2.440  1.00  0.00    -0.247 OA
HETATM   12  H   UNL     1      41.075 -15.704   3.567  1.00  0.00     0.171 HD
HETATM   13  H   UNL     1      41.462 -17.783   3.550  1.00  0.00     0.171 HD
BRANCH  10  14
HETATM   14  C   UNL     1      41.982 -14.225   2.487  1.00  0.00     0.072 A 
HETATM   15  C   UNL     1      41.980 -13.749   1.157  1.00  0.00     0.169 A 
HETATM   16  N   UNL     1      42.083 -12.416   1.094  1.00  0.00    -0.185 NA
HETATM   17  N   UNL     1      42.156 -12.045   2.382  1.00  0.00    -0.287 N 
HETATM   18  H   UNL     1      42.245 -11.056   2.590  1.00  0.00     0.188 HD
HETATM   19  C   UNL     1      42.096 -13.092   3.257  1.00  0.00     0.140 A 
ENDBRANCH  10  14
ENDBRANCH   5   8
BRANCH   6  20
HETATM   20  O   UNL     1      43.402 -18.151   5.914  1.00  0.00    -0.340 OA
BRANCH  20  21
HETATM   21  C   UNL     1      44.543 -17.342   6.261  1.00  0.00     0.293 C 
BRANCH  21  22
HETATM   22  C   UNL     1      44.079 -16.015   6.840  1.00  0.00     0.408 C 
HETATM   23  F   UNL     1      45.090 -15.115   6.868  1.00  0.00    -0.169 F 
HETATM   24  F   UNL     1      43.082 -15.489   6.095  1.00  0.00    -0.169 F 
HETATM   25  F   UNL     1      43.616 -16.156   8.101  1.00  0.00    -0.169 F 
ENDBRANCH  21  22
ENDBRANCH  20  21
ENDBRANCH   6  20
TORSDOF 5
ENDMDL
MODEL 7
REMARK VINA RESULT:      -6.8      4.892      7.066
REMARK  5 active torsions:
REMARK  status: ('A' for Active; 'I' for Inactive)
REMARK    1  A    between atoms: C_5  and  N_6 
REMARK       I    between atoms: N_6  and  C_7 
REMARK       I    between atoms: C_7  and  N_8 
REMARK    2  A    between atoms: N_8  and  C_9 
REMARK    3  A    between atoms: C_16  and  O_17 
REMARK    4  A    between atoms: O_17  and  C_18 
REMARK    5  A    between atoms: C_18  and  C_19 
ROOT
HETATM    1  C   UNL     1      43.747 -18.058   3.716  1.00  0.00     0.026 A 
HETATM    2  C   UNL     1      44.299 -18.421   4.945  1.00  0.00     0.036 A 
HETATM    3 CL   UNL     1      44.981 -19.991   5.132  1.00  0.00    -0.084 Cl
HETATM    4  C   UNL     1      44.290 -17.535   6.026  1.00  0.00     0.056 A 
HETATM    5  C   UNL     1      43.731 -16.266   5.878  1.00  0.00     0.071 A 
HETATM    6  C   UNL     1      43.194 -15.899   4.630  1.00  0.00     0.096 A 
HETATM    7  C   UNL     1      43.186 -16.792   3.556  1.00  0.00     0.041 A 
ENDROOT
BRANCH   5   8
HETATM    8  N   UNL     1      43.650 -15.315   6.919  1.00  0.00    -0.306 N 
HETATM    9  C   UNL     1      44.503 -14.253   7.159  1.00  0.00     0.325 C 
HETATM   10  N   UNL     1      44.177 -13.627   8.351  1.00  0.00    -0.306 N 
HETATM   11  O   UNL     1      45.412 -13.904   6.418  1.00  0.00    -0.247 OA
HETATM   12  H   UNL     1      43.533 -14.085   8.977  1.00  0.00     0.171 HD
HETATM   13  H   UNL     1      42.788 -15.341   7.449  1.00  0.00     0.171 HD
BRANCH  10  14
HETATM   14  C   UNL     1      44.788 -12.479   8.816  1.00  0.00     0.072 A 
HETATM   15  C   UNL     1      46.070 -11.936   8.578  1.00  0.00     0.169 A 
HETATM   16  N   UNL     1      46.261 -10.780   9.223  1.00  0.00    -0.185 NA
HETATM   17  N   UNL     1      45.104 -10.590   9.876  1.00  0.00    -0.287 N 
HETATM   18  H   UNL     1      45.011  -9.759  10.451  1.00  0.00     0.188 HD
HETATM   19  C   UNL     1      44.186 -11.578   9.661  1.00  0.00     0.140 A 
ENDBRANCH  10  14
ENDBRANCH   5   8
BRANCH   6  20
HETATM   20  O   UNL     1      42.637 -14.648   4.511  1.00  0.00    -0.340 OA
BRANCH  20  21
HETATM   21  C   UNL     1      41.229 -14.718   4.216  1.00  0.00     0.293 C 
BRANCH  21  22
HETATM   22  C   UNL     1      40.423 -14.467   5.480  1.00  0.00     0.408 C 
HETATM   23  F   UNL     1      39.160 -14.078   5.185  1.00  0.00    -0.169 F 
HETATM   24  F   UNL     1      40.343 -15.588   6.230  1.00  0.00    -0.169 F 
HETATM   25  F   UNL     1      40.983 -13.504   6.245  1.00  0.00    -0.169 F 
ENDBRANCH  21  22
ENDBRANCH  20  21
ENDBRANCH   6  20
TORSDOF 5
ENDMDL
MODEL 8
REMARK VINA RESULT:      -6.6      3.153      4.591
REMARK  5 active torsions:
REMARK  status: ('A' for Active; 'I' for Inactive)
REMARK    1  A    between atoms: C_5  and  N_6 
REMARK       I    between atoms: N_6  and  C_7 
REMARK       I    between atoms: C_7  and  N_8 
REMARK    2  A    between atoms: N_8  and  C_9 
REMARK    3  A    between atoms: C_16  and  O_17 
REMARK    4  A    between atoms: O_17  and  C_18 
REMARK    5  A    between atoms: C_18  and  C_19 
ROOT
HETATM    1  C   UNL     1      44.352 -21.748   2.845  1.00  0.00     0.026 A 
HETATM    2  C   UNL     1      44.709 -21.321   4.124  1.00  0.00     0.036 A 
HETATM    3 CL   UNL     1      45.223 -22.483   5.287  1.00  0.00    -0.084 Cl
HETATM    4  C   UNL     1      44.638 -19.971   4.477  1.00  0.00     0.056 A 
HETATM    5  C   UNL     1      44.214 -19.030   3.538  1.00  0.00     0.071 A 
HETATM    6  C   UNL     1      43.875 -19.465   2.243  1.00  0.00     0.096 A 
HETATM    7  C   UNL     1      43.927 -20.817   1.898  1.00  0.00     0.041 A 
ENDROOT
BRANCH   5   8
HETATM    8  N   UNL     1      44.084 -17.650   3.809  1.00  0.00    -0.306 N 
HETATM    9  C   UNL     1      43.044 -17.013   4.461  1.00  0.00     0.325 C 
HETATM   10  N   UNL     1      43.209 -15.639   4.414  1.00  0.00    -0.306 N 
HETATM   11  O   UNL     1      42.112 -17.582   5.015  1.00  0.00    -0.247 OA
HETATM   12  H   UNL     1      43.903 -15.256   3.792  1.00  0.00     0.171 HD
HETATM   13  H   UNL     1      44.917 -17.104   3.631  1.00  0.00     0.171 HD
BRANCH  10  14
HETATM   14  C   UNL     1      42.382 -14.737   5.055  1.00  0.00     0.072 A 
HETATM   15  C   UNL     1      40.984 -14.543   5.003  1.00  0.00     0.169 A 
HETATM   16  N   UNL     1      40.578 -13.552   5.805  1.00  0.00    -0.185 NA
HETATM   17  N   UNL     1      41.716 -13.111   6.362  1.00  0.00    -0.287 N 
HETATM   18  H   UNL     1      41.660 -12.340   7.020  1.00  0.00     0.188 HD
HETATM   19  C   UNL     1      42.826 -13.792   5.950  1.00  0.00     0.140 A 
ENDBRANCH  10  14
ENDBRANCH   5   8
BRANCH   6  20
HETATM   20  O   UNL     1      43.448 -18.522   1.339  1.00  0.00    -0.340 OA
BRANCH  20  21
HETATM   21  C   UNL     1      42.014 -18.382   1.353  1.00  0.00     0.293 C 
BRANCH  21  22
HETATM   22  C   UNL     1      41.634 -16.941   1.050  1.00  0.00     0.408 C 
HETATM   23  F   UNL     1      41.129 -16.823  -0.201  1.00  0.00    -0.169 F 
HETATM   24  F   UNL     1      40.694 -16.501   1.915  1.00  0.00    -0.169 F 
HETATM   25  F   UNL     1      42.697 -16.114   1.145  1.00  0.00    -0.169 F 
ENDBRANCH  21  22
ENDBRANCH  20  21
ENDBRANCH   6  20
TORSDOF 5
ENDMDL
MODEL 9
REMARK VINA RESULT:      -6.5      3.064      4.095
REMARK  5 active torsions:
REMARK  status: ('A' for Active; 'I' for Inactive)
REMARK    1  A    between atoms: C_5  and  N_6 
REMARK       I    between atoms: N_6  and  C_7 
REMARK       I    between atoms: C_7  and  N_8 
REMARK    2  A    between atoms: N_8  and  C_9 
REMARK    3  A    between atoms: C_16  and  O_17 
REMARK    4  A    between atoms: O_17  and  C_18 
REMARK    5  A    between atoms: C_18  and  C_19 
ROOT
HETATM    1  C   UNL     1      44.661 -16.737   6.909  1.00  0.00     0.026 A 
HETATM    2  C   UNL     1      44.163 -15.468   6.610  1.00  0.00     0.036 A 
HETATM    3 CL   UNL     1      44.690 -14.116   7.535  1.00  0.00    -0.084 Cl
HETATM    4  C   UNL     1      43.232 -15.287   5.583  1.00  0.00     0.056 A 
HETATM    5  C   UNL     1      42.797 -16.383   4.838  1.00  0.00     0.071 A 
HETATM    6  C   UNL     1      43.319 -17.656   5.132  1.00  0.00     0.096 A 
HETATM    7  C   UNL     1      44.234 -17.840   6.171  1.00  0.00     0.041 A 
ENDROOT
BRANCH   5   8
HETATM    8  N   UNL     1      41.840 -16.302   3.803  1.00  0.00    -0.306 N 
HETATM    9  C   UNL     1      41.969 -15.666   2.582  1.00  0.00     0.325 C 
HETATM   10  N   UNL     1      40.769 -15.689   1.892  1.00  0.00    -0.306 N 
HETATM   11  O   UNL     1      43.003 -15.163   2.161  1.00  0.00    -0.247 OA
HETATM   12  H   UNL     1      39.934 -15.965   2.383  1.00  0.00     0.171 HD
HETATM   13  H   UNL     1      41.035 -16.903   3.924  1.00  0.00     0.171 HD
BRANCH  10  14
HETATM   14  C   UNL     1      40.607 -15.214   0.604  1.00  0.00     0.072 A 
HETATM   15  C   UNL     1      41.143 -15.645  -0.629  1.00  0.00     0.169 A 
HETATM   16  N   UNL     1      40.713 -14.905  -1.658  1.00  0.00    -0.185 NA
HETATM   17  N   UNL     1      39.908 -14.001  -1.079  1.00  0.00    -0.287 N 
HETATM   18  H   UNL     1      39.457 -13.312  -1.672  1.00  0.00     0.188 HD
HETATM   19  C   UNL     1      39.806 -14.146   0.276  1.00  0.00     0.140 A 
ENDBRANCH  10  14
ENDBRANCH   5   8
BRANCH   6  20
HETATM   20  O   UNL     1      42.868 -18.724   4.393  1.00  0.00    -0.340 OA
BRANCH  20  21
HETATM   21  C   UNL     1      43.922 -19.307   3.602  1.00  0.00     0.293 C 
BRANCH  21  22
HETATM   22  C   UNL     1      43.595 -19.166   2.124  1.00  0.00     0.408 C 
HETATM   23  F   UNL     1      44.319 -18.173   1.557  1.00  0.00    -0.169 F 
HETATM   24  F   UNL     1      43.874 -20.309   1.460  1.00  0.00    -0.169 F 
HETATM   25  F   UNL     1      42.288 -18.888   1.926  1.00  0.00    -0.169 F 
ENDBRANCH  21  22
ENDBRANCH  20  21
ENDBRANCH   6  20
TORSDOF 5
ENDMDL
MODEL 10
REMARK VINA RESULT:      -6.5      3.494      4.802
REMARK  5 active torsions:
REMARK  status: ('A' for Active; 'I' for Inactive)
REMARK    1  A    between atoms: C_5  and  N_6 
REMARK       I    between atoms: N_6  and  C_7 
REMARK       I    between atoms: C_7  and  N_8 
REMARK    2  A    between atoms: N_8  and  C_9 
REMARK    3  A    between atoms: C_16  and  O_17 
REMARK    4  A    between atoms: O_17  and  C_18 
REMARK    5  A    between atoms: C_18  and  C_19 
ROOT
HETATM    1  C   UNL     1      43.960 -19.447   2.790  1.00  0.00     0.026 A 
HETATM    2  C   UNL     1      43.860 -19.079   4.132  1.00  0.00     0.036 A 
HETATM    3 CL   UNL     1      44.958 -19.752   5.274  1.00  0.00    -0.084 Cl
HETATM    4  C   UNL     1      42.873 -18.187   4.560  1.00  0.00     0.056 A 
HETATM    5  C   UNL     1      41.977 -17.648   3.636  1.00  0.00     0.071 A 
HETATM    6  C   UNL     1      42.096 -18.008   2.281  1.00  0.00     0.096 A 
HETATM    7  C   UNL     1      43.071 -18.915   1.857  1.00  0.00     0.041 A 
ENDROOT
BRANCH   5   8
HETATM    8  N   UNL     1      40.931 -16.763   3.978  1.00  0.00    -0.306 N 
HETATM    9  C   UNL     1      41.020 -15.404   4.218  1.00  0.00     0.325 C 
HETATM   10  N   UNL     1      39.804 -14.907   4.659  1.00  0.00    -0.306 N 
HETATM   11  O   UNL     1      42.028 -14.729   4.054  1.00  0.00    -0.247 OA
HETATM   12  H   UNL     1      39.086 -15.559   4.931  1.00  0.00     0.171 HD
HETATM   13  H   UNL     1      40.002 -17.153   3.888  1.00  0.00     0.171 HD
BRANCH  10  14
HETATM   14  C   UNL     1      39.554 -13.569   4.894  1.00  0.00     0.072 A 
HETATM   15  C   UNL     1      39.426 -12.834   6.093  1.00  0.00     0.169 A 
HETATM   16  N   UNL     1      39.193 -11.535   5.871  1.00  0.00    -0.185 NA
HETATM   17  N   UNL     1      39.166 -11.445   4.533  1.00  0.00    -0.287 N 
HETATM   18  H   UNL     1      38.997 -10.534   4.118  1.00  0.00     0.188 HD
HETATM   19  C   UNL     1      39.382 -12.636   3.899  1.00  0.00     0.140 A 
ENDBRANCH  10  14
ENDBRANCH   5   8
BRANCH   6  20
HETATM   20  O   UNL     1      41.196 -17.474   1.391  1.00  0.00    -0.340 OA
BRANCH  20  21
HETATM   21  C   UNL     1      41.837 -16.589   0.452  1.00  0.00     0.293 C 
BRANCH  21  22
HETATM   22  C   UNL     1      41.072 -15.277   0.374  1.00  0.00     0.408 C 
HETATM   23  F   UNL     1      40.746 -14.978  -0.905  1.00  0.00    -0.169 F 
HETATM   24  F   UNL     1      39.925 -15.347   1.085  1.00  0.00    -0.169 F 
HETATM   25  F   UNL     1      41.796 -14.248   0.866  1.00  0.00    -0.169 F 
ENDBRANCH  21  22
ENDBRANCH  20  21
ENDBRANCH   6  20
TORSDOF 5
ENDMDL
