MODEL 1
REMARK VINA RESULT:      -8.4      0.000      0.000
REMARK  5 active torsions:
REMARK  status: ('A' for Active; 'I' for Inactive)
REMARK    1  A    between atoms: O_2  and  C_3 
REMARK    2  A    between atoms: C_4  and  N_5 
REMARK       I    between atoms: N_5  and  C_6 
REMARK    3  A    between atoms: C_6  and  C_7 
REMARK    4  A    between atoms: C_7  and  N_8 
REMARK    5  A    between atoms: N_8  and  C_9 
ROOT
HETATM    1  C   UNL     1      43.641 -19.606   7.070  1.00  0.00     0.195 C 
ENDROOT
BRANCH   1   2
HETATM    2  C   UNL     1      44.008 -18.567   8.139  1.00  0.00     0.235 C 
HETATM    3  N   UNL     1      43.432 -17.331   8.145  1.00  0.00    -0.324 N 
HETATM    4  H   UNL     1      43.372 -16.929   9.076  1.00  0.00     0.169 HD
HETATM    5  O   UNL     1      44.676 -18.907   9.124  1.00  0.00    -0.272 OA
BRANCH   3   6
HETATM    6  C   UNL     1      42.769 -16.600   7.147  1.00  0.00     0.068 A 
HETATM    7  C   UNL     1      43.465 -15.531   6.556  1.00  0.00     0.095 A 
HETATM    8  C   UNL     1      42.908 -14.819   5.492  1.00  0.00     0.039 A 
HETATM    9  C   UNL     1      41.642 -15.163   5.020  1.00  0.00     0.003 A 
HETATM   10  C   UNL     1      40.948 -16.225   5.598  1.00  0.00     0.002 A 
HETATM   11  C   UNL     1      41.511 -16.949   6.654  1.00  0.00     0.032 A 
BRANCH   7  12
HETATM   12  O   UNL     1      44.715 -15.235   7.047  1.00  0.00    -0.354 OA
HETATM   13  C   UNL     1      44.887 -13.831   7.252  1.00  0.00     0.210 C 
ENDBRANCH   7  12
ENDBRANCH   3   6
ENDBRANCH   1   2
BRANCH   1  14
HETATM   14  N   UNL     1      44.690 -19.579   6.043  1.00  0.00    -0.283 NA
HETATM   15  H   UNL     1      45.065 -18.635   5.934  1.00  0.00     0.128 HD
BRANCH  14  16
HETATM   16  C   UNL     1      44.522 -20.173   4.782  1.00  0.00     0.019 A 
HETATM   17  C   UNL     1      44.140 -19.355   3.672  1.00  0.00    -0.005 A 
HETATM   18  C   UNL     1      43.955 -19.948   2.397  1.00  0.00    -0.024 A 
HETATM   19  C   UNL     1      43.941 -17.956   3.770  1.00  0.00     0.014 A 
HETATM   20  C   UNL     1      43.560 -19.159   1.302  1.00  0.00     0.012 A 
HETATM   21  C   UNL     1      44.180 -21.320   2.231  1.00  0.00     0.012 A 
HETATM   22  C   UNL     1      43.361 -17.786   1.438  1.00  0.00     0.001 A 
HETATM   23  C   UNL     1      43.557 -17.183   2.672  1.00  0.00     0.001 A 
HETATM   24  C   UNL     1      44.605 -22.102   3.298  1.00  0.00     0.003 A 
HETATM   25  C   UNL     1      44.788 -21.531   4.556  1.00  0.00     0.024 A 
ENDBRANCH  14  16
ENDBRANCH   1  14
TORSDOF 5
ENDMDL
MODEL 2
REMARK VINA RESULT:      -8.0      1.699      3.345
REMARK  5 active torsions:
REMARK  status: ('A' for Active; 'I' for Inactive)
REMARK    1  A    between atoms: O_2  and  C_3 
REMARK    2  A    between atoms: C_4  and  N_5 
REMARK       I    between atoms: N_5  and  C_6 
REMARK    3  A    between atoms: C_6  and  C_7 
REMARK    4  A    between atoms: C_7  and  N_8 
REMARK    5  A    between atoms: N_8  and  C_9 
ROOT
HETATM    1  C   UNL     1      43.053 -17.702   6.477  1.00  0.00     0.195 C 
ENDROOT
BRANCH   1   2
HETATM    2  C   UNL     1      43.332 -16.456   7.330  1.00  0.00     0.235 C 
HETATM    3  N   UNL     1      43.076 -15.205   6.851  1.00  0.00    -0.324 N 
HETATM    4  H   UNL     1      42.851 -14.541   7.586  1.00  0.00     0.169 HD
HETATM    5  O   UNL     1      43.600 -16.580   8.532  1.00  0.00    -0.272 OA
BRANCH   3   6
HETATM    6  C   UNL     1      42.905 -14.716   5.547  1.00  0.00     0.068 A 
HETATM    7  C   UNL     1      41.596 -14.419   5.131  1.00  0.00     0.095 A 
HETATM    8  C   UNL     1      41.357 -13.841   3.883  1.00  0.00     0.039 A 
HETATM    9  C   UNL     1      42.428 -13.566   3.035  1.00  0.00     0.003 A 
HETATM   10  C   UNL     1      43.731 -13.852   3.443  1.00  0.00     0.002 A 
HETATM   11  C   UNL     1      43.972 -14.418   4.699  1.00  0.00     0.032 A 
BRANCH   7  12
HETATM   12  O   UNL     1      40.570 -14.697   6.006  1.00  0.00    -0.354 OA
HETATM   13  C   UNL     1      39.721 -13.566   6.208  1.00  0.00     0.210 C 
ENDBRANCH   7  12
ENDBRANCH   3   6
ENDBRANCH   1   2
BRANCH   1  14
HETATM   14  N   UNL     1      44.202 -17.899   5.586  1.00  0.00    -0.283 NA
HETATM   15  H   UNL     1      44.778 -17.057   5.546  1.00  0.00     0.128 HD
BRANCH  14  16
HETATM   16  C   UNL     1      44.069 -18.447   4.299  1.00  0.00     0.019 A 
HETATM   17  C   UNL     1      44.286 -19.850   4.115  1.00  0.00    -0.005 A 
HETATM   18  C   UNL     1      44.167 -20.410   2.817  1.00  0.00    -0.024 A 
HETATM   19  C   UNL     1      44.607 -20.733   5.174  1.00  0.00     0.014 A 
HETATM   20  C   UNL     1      44.397 -21.783   2.618  1.00  0.00     0.012 A 
HETATM   21  C   UNL     1      43.809 -19.593   1.738  1.00  0.00     0.012 A 
HETATM   22  C   UNL     1      44.725 -22.621   3.683  1.00  0.00     0.001 A 
HETATM   23  C   UNL     1      44.825 -22.096   4.963  1.00  0.00     0.001 A 
HETATM   24  C   UNL     1      43.544 -18.242   1.931  1.00  0.00     0.003 A 
HETATM   25  C   UNL     1      43.659 -17.680   3.200  1.00  0.00     0.024 A 
ENDBRANCH  14  16
ENDBRANCH   1  14
TORSDOF 5
ENDMDL
MODEL 3
REMARK VINA RESULT:      -7.9      4.786      7.077
REMARK  5 active torsions:
REMARK  status: ('A' for Active; 'I' for Inactive)
REMARK    1  A    between atoms: O_2  and  C_3 
REMARK    2  A    between atoms: C_4  and  N_5 
REMARK       I    between atoms: N_5  and  C_6 
REMARK    3  A    between atoms: C_6  and  C_7 
REMARK    4  A    between atoms: C_7  and  N_8 
REMARK    5  A    between atoms: N_8  and  C_9 
ROOT
HETATM    1  C   UNL     1      42.450 -16.582   0.998  1.00  0.00     0.195 C 
ENDROOT
BRANCH   1   2
HETATM    2  C   UNL     1      40.983 -16.128   0.966  1.00  0.00     0.235 C 
HETATM    3  N   UNL     1      40.511 -15.344  -0.046  1.00  0.00    -0.324 N 
HETATM    4  H   UNL     1      39.522 -15.488  -0.226  1.00  0.00     0.169 HD
HETATM    5  O   UNL     1      40.165 -16.633   1.746  1.00  0.00    -0.272 OA
BRANCH   3   6
HETATM    6  C   UNL     1      41.162 -14.517  -0.974  1.00  0.00     0.068 A 
HETATM    7  C   UNL     1      41.070 -14.867  -2.332  1.00  0.00     0.095 A 
HETATM    8  C   UNL     1      41.610 -14.042  -3.320  1.00  0.00     0.039 A 
HETATM    9  C   UNL     1      42.260 -12.864  -2.954  1.00  0.00     0.003 A 
HETATM   10  C   UNL     1      42.351 -12.507  -1.609  1.00  0.00     0.002 A 
HETATM   11  C   UNL     1      41.797 -13.326  -0.620  1.00  0.00     0.032 A 
BRANCH   7  12
HETATM   12  O   UNL     1      40.410 -16.032  -2.647  1.00  0.00    -0.354 OA
HETATM   13  C   UNL     1      39.559 -15.872  -3.785  1.00  0.00     0.210 C 
ENDBRANCH   7  12
ENDBRANCH   3   6
ENDBRANCH   1   2
BRANCH   1  14
HETATM   14  N   UNL     1      42.478 -17.963   1.492  1.00  0.00    -0.283 NA
HETATM   15  H   UNL     1      41.541 -18.371   1.484  1.00  0.00     0.128 HD
BRANCH  14  16
HETATM   16  C   UNL     1      43.143 -18.325   2.675  1.00  0.00     0.019 A 
HETATM   17  C   UNL     1      43.650 -19.656   2.809  1.00  0.00    -0.005 A 
HETATM   18  C   UNL     1      44.312 -20.035   4.005  1.00  0.00    -0.024 A 
HETATM   19  C   UNL     1      43.537 -20.637   1.794  1.00  0.00     0.014 A 
HETATM   20  C   UNL     1      44.798 -21.345   4.159  1.00  0.00     0.012 A 
HETATM   21  C   UNL     1      44.492 -19.094   5.027  1.00  0.00     0.012 A 
HETATM   22  C   UNL     1      44.657 -22.289   3.143  1.00  0.00     0.001 A 
HETATM   23  C   UNL     1      44.031 -21.933   1.957  1.00  0.00     0.001 A 
HETATM   24  C   UNL     1      44.049 -17.786   4.870  1.00  0.00     0.003 A 
HETATM   25  C   UNL     1      43.395 -17.403   3.701  1.00  0.00     0.024 A 
ENDBRANCH  14  16
ENDBRANCH   1  14
TORSDOF 5
ENDMDL
MODEL 4
REMARK VINA RESULT:      -7.7      3.051      4.662
REMARK  5 active torsions:
REMARK  status: ('A' for Active; 'I' for Inactive)
REMARK    1  A    between atoms: O_2  and  C_3 
REMARK    2  A    between atoms: C_4  and  N_5 
REMARK       I    between atoms: N_5  and  C_6 
REMARK    3  A    between atoms: C_6  and  C_7 
REMARK    4  A    between atoms: C_7  and  N_8 
REMARK    5  A    between atoms: N_8  and  C_9 
ROOT
HETATM    1  C   UNL     1      43.281 -16.685   1.419  1.00  0.00     0.195 C 
ENDROOT
BRANCH   1   2
HETATM    2  C   UNL     1      41.774 -16.584   1.142  1.00  0.00     0.235 C 
HETATM    3  N   UNL     1      40.902 -16.210   2.121  1.00  0.00    -0.324 N 
HETATM    4  H   UNL     1      40.077 -15.743   1.756  1.00  0.00     0.169 HD
HETATM    5  O   UNL     1      41.357 -16.644  -0.023  1.00  0.00    -0.272 OA
BRANCH   3   6
HETATM    6  C   UNL     1      41.009 -16.201   3.520  1.00  0.00     0.068 A 
HETATM    7  C   UNL     1      41.218 -14.961   4.147  1.00  0.00     0.095 A 
HETATM    8  C   UNL     1      41.240 -14.859   5.539  1.00  0.00     0.039 A 
HETATM    9  C   UNL     1      41.066 -16.004   6.316  1.00  0.00     0.003 A 
HETATM   10  C   UNL     1      40.853 -17.237   5.701  1.00  0.00     0.002 A 
HETATM   11  C   UNL     1      40.815 -17.337   4.307  1.00  0.00     0.032 A 
BRANCH   7  12
HETATM   12  O   UNL     1      41.374 -13.857   3.341  1.00  0.00    -0.354 OA
HETATM   13  C   UNL     1      42.499 -13.066   3.732  1.00  0.00     0.210 C 
ENDBRANCH   7  12
ENDBRANCH   3   6
ENDBRANCH   1   2
BRANCH   1  14
HETATM   14  N   UNL     1      43.591 -18.093   1.691  1.00  0.00    -0.283 NA
HETATM   15  H   UNL     1      42.877 -18.705   1.291  1.00  0.00     0.128 HD
BRANCH  14  16
HETATM   16  C   UNL     1      43.948 -18.551   2.970  1.00  0.00     0.019 A 
HETATM   17  C   UNL     1      44.208 -19.945   3.163  1.00  0.00    -0.005 A 
HETATM   18  C   UNL     1      44.557 -20.418   4.454  1.00  0.00    -0.024 A 
HETATM   19  C   UNL     1      44.147 -20.899   2.119  1.00  0.00     0.014 A 
HETATM   20  C   UNL     1      44.795 -21.788   4.662  1.00  0.00     0.012 A 
HETATM   21  C   UNL     1      44.675 -19.514   5.517  1.00  0.00     0.012 A 
HETATM   22  C   UNL     1      44.714 -22.702   3.613  1.00  0.00     0.001 A 
HETATM   23  C   UNL     1      44.394 -22.256   2.338  1.00  0.00     0.001 A 
HETATM   24  C   UNL     1      44.477 -18.153   5.314  1.00  0.00     0.003 A 
HETATM   25  C   UNL     1      44.132 -17.676   4.050  1.00  0.00     0.024 A 
ENDBRANCH  14  16
ENDBRANCH   1  14
TORSDOF 5
ENDMDL
MODEL 5
REMARK VINA RESULT:      -7.6      2.799      4.425
REMARK  5 active torsions:
REMARK  status: ('A' for Active; 'I' for Inactive)
REMARK    1  A    between atoms: O_2  and  C_3 
REMARK    2  A    between atoms: C_4  and  N_5 
REMARK       I    between atoms: N_5  and  C_6 
REMARK    3  A    between atoms: C_6  and  C_7 
REMARK    4  A    between atoms: C_7  and  N_8 
REMARK    5  A    between atoms: N_8  and  C_9 
ROOT
HETATM    1  C   UNL     1      42.579 -15.445   5.636  1.00  0.00     0.195 C 
ENDROOT
BRANCH   1   2
HETATM    2  C   UNL     1      41.214 -15.950   6.124  1.00  0.00     0.235 C 
HETATM    3  N   UNL     1      40.056 -15.356   5.714  1.00  0.00    -0.324 N 
HETATM    4  H   UNL     1      39.269 -15.998   5.698  1.00  0.00     0.169 HD
HETATM    5  O   UNL     1      41.137 -17.026   6.730  1.00  0.00    -0.272 OA
BRANCH   3   6
HETATM    6  C   UNL     1      39.794 -14.092   5.165  1.00  0.00     0.068 A 
HETATM    7  C   UNL     1      39.739 -13.993   3.763  1.00  0.00     0.095 A 
HETATM    8  C   UNL     1      39.390 -12.790   3.146  1.00  0.00     0.039 A 
HETATM    9  C   UNL     1      39.105 -11.672   3.928  1.00  0.00     0.003 A 
HETATM   10  C   UNL     1      39.151 -11.764   5.319  1.00  0.00     0.002 A 
HETATM   11  C   UNL     1      39.486 -12.972   5.938  1.00  0.00     0.032 A 
BRANCH   7  12
HETATM   12  O   UNL     1      40.017 -15.125   3.032  1.00  0.00    -0.354 OA
HETATM   13  C   UNL     1      39.175 -15.237   1.883  1.00  0.00     0.210 C 
ENDBRANCH   7  12
ENDBRANCH   3   6
ENDBRANCH   1   2
BRANCH   1  14
HETATM   14  N   UNL     1      43.420 -16.618   5.372  1.00  0.00    -0.283 NA
HETATM   15  H   UNL     1      44.350 -16.496   5.777  1.00  0.00     0.128 HD
BRANCH  14  16
HETATM   16  C   UNL     1      43.529 -17.192   4.094  1.00  0.00     0.019 A 
HETATM   17  C   UNL     1      43.937 -18.559   3.978  1.00  0.00    -0.005 A 
HETATM   18  C   UNL     1      44.062 -19.144   2.693  1.00  0.00    -0.024 A 
HETATM   19  C   UNL     1      44.218 -19.384   5.095  1.00  0.00     0.014 A 
HETATM   20  C   UNL     1      44.481 -20.480   2.563  1.00  0.00     0.012 A 
HETATM   21  C   UNL     1      43.754 -18.390   1.554  1.00  0.00     0.012 A 
HETATM   22  C   UNL     1      44.763 -21.259   3.684  1.00  0.00     0.001 A 
HETATM   23  C   UNL     1      44.626 -20.712   4.952  1.00  0.00     0.001 A 
HETATM   24  C   UNL     1      43.305 -17.080   1.672  1.00  0.00     0.003 A 
HETATM   25  C   UNL     1      43.179 -16.494   2.930  1.00  0.00     0.024 A 
ENDBRANCH  14  16
ENDBRANCH   1  14
TORSDOF 5
ENDMDL
MODEL 6
REMARK VINA RESULT:      -7.5      4.572      6.616
REMARK  5 active torsions:
REMARK  status: ('A' for Active; 'I' for Inactive)
REMARK    1  A    between atoms: O_2  and  C_3 
REMARK    2  A    between atoms: C_4  and  N_5 
REMARK       I    between atoms: N_5  and  C_6 
REMARK    3  A    between atoms: C_6  and  C_7 
REMARK    4  A    between atoms: C_7  and  N_8 
REMARK    5  A    between atoms: N_8  and  C_9 
ROOT
HETATM    1  C   UNL     1      41.896 -16.498   1.059  1.00  0.00     0.195 C 
ENDROOT
BRANCH   1   2
HETATM    2  C   UNL     1      40.566 -15.751   1.232  1.00  0.00     0.235 C 
HETATM    3  N   UNL     1      40.012 -15.052   0.200  1.00  0.00    -0.324 N 
HETATM    4  H   UNL     1      38.999 -15.007   0.255  1.00  0.00     0.169 HD
HETATM    5  O   UNL     1      39.881 -15.941   2.245  1.00  0.00    -0.272 OA
BRANCH   3   6
HETATM    6  C   UNL     1      40.559 -14.539  -0.986  1.00  0.00     0.068 A 
HETATM    7  C   UNL     1      40.970 -13.195  -0.983  1.00  0.00     0.095 A 
HETATM    8  C   UNL     1      41.609 -12.641  -2.093  1.00  0.00     0.039 A 
HETATM    9  C   UNL     1      41.831 -13.427  -3.223  1.00  0.00     0.003 A 
HETATM   10  C   UNL     1      41.431 -14.763  -3.232  1.00  0.00     0.002 A 
HETATM   11  C   UNL     1      40.804 -15.322  -2.114  1.00  0.00     0.032 A 
BRANCH   7  12
HETATM   12  O   UNL     1      40.740 -12.460   0.158  1.00  0.00    -0.354 OA
HETATM   13  C   UNL     1      41.955 -11.979   0.736  1.00  0.00     0.210 C 
ENDBRANCH   7  12
ENDBRANCH   3   6
ENDBRANCH   1   2
BRANCH   1  14
HETATM   14  N   UNL     1      41.790 -17.770   1.783  1.00  0.00    -0.283 NA
HETATM   15  H   UNL     1      40.825 -17.944   2.071  1.00  0.00     0.128 HD
BRANCH  14  16
HETATM   16  C   UNL     1      42.667 -18.117   2.824  1.00  0.00     0.019 A 
HETATM   17  C   UNL     1      43.301 -19.400   2.801  1.00  0.00    -0.005 A 
HETATM   18  C   UNL     1      44.178 -19.765   3.854  1.00  0.00    -0.024 A 
HETATM   19  C   UNL     1      43.109 -20.343   1.763  1.00  0.00     0.014 A 
HETATM   20  C   UNL     1      44.792 -21.029   3.855  1.00  0.00     0.012 A 
HETATM   21  C   UNL     1      44.440 -18.855   4.887  1.00  0.00     0.012 A 
HETATM   22  C   UNL     1      44.570 -21.939   2.823  1.00  0.00     0.001 A 
HETATM   23  C   UNL     1      43.732 -21.594   1.772  1.00  0.00     0.001 A 
HETATM   24  C   UNL     1      43.867 -17.589   4.876  1.00  0.00     0.003 A 
HETATM   25  C   UNL     1      43.002 -17.220   3.848  1.00  0.00     0.024 A 
ENDBRANCH  14  16
ENDBRANCH   1  14
TORSDOF 5
ENDMDL
MODEL 7
REMARK VINA RESULT:      -7.3      2.691      4.645
REMARK  5 active torsions:
REMARK  status: ('A' for Active; 'I' for Inactive)
REMARK    1  A    between atoms: O_2  and  C_3 
REMARK    2  A    between atoms: C_4  and  N_5 
REMARK       I    between atoms: N_5  and  C_6 
REMARK    3  A    between atoms: C_6  and  C_7 
REMARK    4  A    between atoms: C_7  and  N_8 
REMARK    5  A    between atoms: N_8  and  C_9 
ROOT
HETATM    1  C   UNL     1      40.653 -16.103   5.718  1.00  0.00     0.195 C 
ENDROOT
BRANCH   1   2
HETATM    2  C   UNL     1      40.260 -14.758   5.091  1.00  0.00     0.235 C 
HETATM    3  N   UNL     1      40.151 -14.618   3.738  1.00  0.00    -0.324 N 
HETATM    4  H   UNL     1      39.478 -13.906   3.470  1.00  0.00     0.169 HD
HETATM    5  O   UNL     1      39.840 -13.843   5.810  1.00  0.00    -0.272 OA
BRANCH   3   6
HETATM    6  C   UNL     1      40.661 -15.374   2.673  1.00  0.00     0.068 A 
HETATM    7  C   UNL     1      41.866 -14.944   2.090  1.00  0.00     0.095 A 
HETATM    8  C   UNL     1      42.484 -15.697   1.090  1.00  0.00     0.039 A 
HETATM    9  C   UNL     1      41.892 -16.882   0.655  1.00  0.00     0.003 A 
HETATM   10  C   UNL     1      40.700 -17.318   1.232  1.00  0.00     0.002 A 
HETATM   11  C   UNL     1      40.088 -16.572   2.244  1.00  0.00     0.032 A 
BRANCH   7  12
HETATM   12  O   UNL     1      42.419 -13.774   2.559  1.00  0.00    -0.354 OA
HETATM   13  C   UNL     1      43.620 -14.011   3.296  1.00  0.00     0.210 C 
ENDBRANCH   7  12
ENDBRANCH   3   6
ENDBRANCH   1   2
BRANCH   1  14
HETATM   14  N   UNL     1      42.108 -16.249   5.583  1.00  0.00    -0.283 NA
HETATM   15  H   UNL     1      42.405 -16.046   4.627  1.00  0.00     0.128 HD
BRANCH  14  16
HETATM   16  C   UNL     1      42.798 -17.371   6.069  1.00  0.00     0.019 A 
HETATM   17  C   UNL     1      43.385 -18.285   5.137  1.00  0.00    -0.005 A 
HETATM   18  C   UNL     1      44.074 -19.428   5.617  1.00  0.00    -0.024 A 
HETATM   19  C   UNL     1      43.329 -18.106   3.733  1.00  0.00     0.014 A 
HETATM   20  C   UNL     1      44.638 -20.344   4.712  1.00  0.00     0.012 A 
HETATM   21  C   UNL     1      44.199 -19.634   6.997  1.00  0.00     0.012 A 
HETATM   22  C   UNL     1      44.552 -20.143   3.336  1.00  0.00     0.001 A 
HETATM   23  C   UNL     1      43.902 -19.020   2.846  1.00  0.00     0.001 A 
HETATM   24  C   UNL     1      43.676 -18.716   7.900  1.00  0.00     0.003 A 
HETATM   25  C   UNL     1      42.997 -17.590   7.440  1.00  0.00     0.024 A 
ENDBRANCH  14  16
ENDBRANCH   1  14
TORSDOF 5
ENDMDL
MODEL 8
REMARK VINA RESULT:      -7.3      1.794      3.167
REMARK  5 active torsions:
REMARK  status: ('A' for Active; 'I' for Inactive)
REMARK    1  A    between atoms: O_2  and  C_3 
REMARK    2  A    between atoms: C_4  and  N_5 
REMARK       I    between atoms: N_5  and  C_6 
REMARK    3  A    between atoms: C_6  and  C_7 
REMARK    4  A    between atoms: C_7  and  N_8 
REMARK    5  A    between atoms: N_8  and  C_9 
ROOT
HETATM    1  C   UNL     1      44.800 -15.709   6.270  1.00  0.00     0.195 C 
ENDROOT
BRANCH   1   2
HETATM    2  C   UNL     1      44.143 -14.539   7.016  1.00  0.00     0.235 C 
HETATM    3  N   UNL     1      43.004 -13.955   6.545  1.00  0.00    -0.324 N 
HETATM    4  H   UNL     1      42.430 -13.560   7.284  1.00  0.00     0.169 HD
HETATM    5  O   UNL     1      44.523 -14.245   8.157  1.00  0.00    -0.272 OA
BRANCH   3   6
HETATM    6  C   UNL     1      42.410 -13.947   5.274  1.00  0.00     0.068 A 
HETATM    7  C   UNL     1      41.141 -14.539   5.146  1.00  0.00     0.095 A 
HETATM    8  C   UNL     1      40.447 -14.486   3.936  1.00  0.00     0.039 A 
HETATM    9  C   UNL     1      41.025 -13.851   2.838  1.00  0.00     0.003 A 
HETATM   10  C   UNL     1      42.281 -13.257   2.958  1.00  0.00     0.002 A 
HETATM   11  C   UNL     1      42.970 -13.296   4.174  1.00  0.00     0.032 A 
BRANCH   7  12
HETATM   12  O   UNL     1      40.605 -15.145   6.259  1.00  0.00    -0.354 OA
HETATM   13  C   UNL     1      40.536 -16.565   6.110  1.00  0.00     0.210 C 
ENDBRANCH   7  12
ENDBRANCH   3   6
ENDBRANCH   1   2
BRANCH   1  14
HETATM   14  N   UNL     1      43.805 -16.783   6.161  1.00  0.00    -0.283 NA
HETATM   15  H   UNL     1      43.431 -17.025   7.081  1.00  0.00     0.128 HD
BRANCH  14  16
HETATM   16  C   UNL     1      44.040 -17.952   5.419  1.00  0.00     0.019 A 
HETATM   17  C   UNL     1      43.853 -17.925   4.001  1.00  0.00    -0.005 A 
HETATM   18  C   UNL     1      44.075 -19.104   3.244  1.00  0.00    -0.024 A 
HETATM   19  C   UNL     1      43.462 -16.764   3.290  1.00  0.00     0.014 A 
HETATM   20  C   UNL     1      43.876 -19.097   1.852  1.00  0.00     0.012 A 
HETATM   21  C   UNL     1      44.505 -20.271   3.887  1.00  0.00     0.012 A 
HETATM   22  C   UNL     1      43.478 -17.939   1.187  1.00  0.00     0.001 A 
HETATM   23  C   UNL     1      43.276 -16.770   1.906  1.00  0.00     0.001 A 
HETATM   24  C   UNL     1      44.740 -20.279   5.257  1.00  0.00     0.003 A 
HETATM   25  C   UNL     1      44.524 -19.127   6.011  1.00  0.00     0.024 A 
ENDBRANCH  14  16
ENDBRANCH   1  14
TORSDOF 5
ENDMDL
MODEL 9
REMARK VINA RESULT:      -7.3      3.451      5.351
REMARK  5 active torsions:
REMARK  status: ('A' for Active; 'I' for Inactive)
REMARK    1  A    between atoms: O_2  and  C_3 
REMARK    2  A    between atoms: C_4  and  N_5 
REMARK       I    between atoms: N_5  and  C_6 
REMARK    3  A    between atoms: C_6  and  C_7 
REMARK    4  A    between atoms: C_7  and  N_8 
REMARK    5  A    between atoms: N_8  and  C_9 
ROOT
HETATM    1  C   UNL     1      40.219 -15.859   1.434  1.00  0.00     0.195 C 
ENDROOT
BRANCH   1   2
HETATM    2  C   UNL     1      39.468 -14.652   2.013  1.00  0.00     0.235 C 
HETATM    3  N   UNL     1      40.121 -13.697   2.736  1.00  0.00    -0.324 N 
HETATM    4  H   UNL     1      39.685 -12.783   2.666  1.00  0.00     0.169 HD
HETATM    5  O   UNL     1      38.303 -14.424   1.661  1.00  0.00    -0.272 OA
BRANCH   3   6
HETATM    6  C   UNL     1      41.352 -13.709   3.409  1.00  0.00     0.068 A 
HETATM    7  C   UNL     1      41.333 -13.512   4.801  1.00  0.00     0.095 A 
HETATM    8  C   UNL     1      42.507 -13.604   5.551  1.00  0.00     0.039 A 
HETATM    9  C   UNL     1      43.714 -13.883   4.911  1.00  0.00     0.003 A 
HETATM   10  C   UNL     1      43.740 -14.087   3.531  1.00  0.00     0.002 A 
HETATM   11  C   UNL     1      42.562 -14.009   2.781  1.00  0.00     0.032 A 
BRANCH   7  12
HETATM   12  O   UNL     1      40.119 -13.249   5.391  1.00  0.00    -0.354 OA
HETATM   13  C   UNL     1      40.025 -11.894   5.837  1.00  0.00     0.210 C 
ENDBRANCH   7  12
ENDBRANCH   3   6
ENDBRANCH   1   2
BRANCH   1  14
HETATM   14  N   UNL     1      40.319 -16.871   2.491  1.00  0.00    -0.283 NA
HETATM   15  H   UNL     1      39.779 -16.592   3.313  1.00  0.00     0.128 HD
BRANCH  14  16
HETATM   16  C   UNL     1      41.548 -17.419   2.893  1.00  0.00     0.019 A 
HETATM   17  C   UNL     1      41.884 -17.430   4.284  1.00  0.00    -0.005 A 
HETATM   18  C   UNL     1      43.129 -17.969   4.699  1.00  0.00    -0.024 A 
HETATM   19  C   UNL     1      41.025 -16.934   5.295  1.00  0.00     0.014 A 
HETATM   20  C   UNL     1      43.480 -17.968   6.060  1.00  0.00     0.012 A 
HETATM   21  C   UNL     1      44.000 -18.514   3.748  1.00  0.00     0.012 A 
HETATM   22  C   UNL     1      42.615 -17.459   7.027  1.00  0.00     0.001 A 
HETATM   23  C   UNL     1      41.384 -16.946   6.645  1.00  0.00     0.001 A 
HETATM   24  C   UNL     1      43.647 -18.552   2.404  1.00  0.00     0.003 A 
HETATM   25  C   UNL     1      42.428 -18.025   1.985  1.00  0.00     0.024 A 
ENDBRANCH  14  16
ENDBRANCH   1  14
TORSDOF 5
ENDMDL
MODEL 10
REMARK VINA RESULT:      -7.2      3.291      4.870
REMARK  5 active torsions:
REMARK  status: ('A' for Active; 'I' for Inactive)
REMARK    1  A    between atoms: O_2  and  C_3 
REMARK    2  A    between atoms: C_4  and  N_5 
REMARK       I    between atoms: N_5  and  C_6 
REMARK    3  A    between atoms: C_6  and  C_7 
REMARK    4  A    between atoms: C_7  and  N_8 
REMARK    5  A    between atoms: N_8  and  C_9 
ROOT
HETATM    1  C   UNL     1      42.353 -15.168   4.704  1.00  0.00     0.195 C 
ENDROOT
BRANCH   1   2
HETATM    2  C   UNL     1      40.927 -15.388   5.230  1.00  0.00     0.235 C 
HETATM    3  N   UNL     1      39.840 -15.057   4.476  1.00  0.00    -0.324 N 
HETATM    4  H   UNL     1      39.029 -15.632   4.681  1.00  0.00     0.169 HD
HETATM    5  O   UNL     1      40.746 -16.055   6.257  1.00  0.00    -0.272 OA
BRANCH   3   6
HETATM    6  C   UNL     1      39.687 -14.198   3.376  1.00  0.00     0.068 A 
HETATM    7  C   UNL     1      39.545 -14.788   2.108  1.00  0.00     0.095 A 
HETATM    8  C   UNL     1      39.295 -14.003   0.981  1.00  0.00     0.039 A 
HETATM    9  C   UNL     1      39.197 -12.619   1.113  1.00  0.00     0.003 A 
HETATM   10  C   UNL     1      39.331 -12.027   2.368  1.00  0.00     0.002 A 
HETATM   11  C   UNL     1      39.567 -12.814   3.501  1.00  0.00     0.032 A 
BRANCH   7  12
HETATM   12  O   UNL     1      39.639 -16.158   2.027  1.00  0.00    -0.354 OA
HETATM   13  C   UNL     1      40.711 -16.569   1.176  1.00  0.00     0.210 C 
ENDBRANCH   7  12
ENDBRANCH   3   6
ENDBRANCH   1   2
BRANCH   1  14
HETATM   14  N   UNL     1      42.742 -16.369   3.955  1.00  0.00    -0.283 NA
HETATM   15  H   UNL     1      41.940 -16.764   3.460  1.00  0.00     0.128 HD
BRANCH  14  16
HETATM   16  C   UNL     1      43.500 -17.401   4.532  1.00  0.00     0.019 A 
HETATM   17  C   UNL     1      43.721 -18.603   3.787  1.00  0.00    -0.005 A 
HETATM   18  C   UNL     1      44.474 -19.656   4.366  1.00  0.00    -0.024 A 
HETATM   19  C   UNL     1      43.232 -18.804   2.473  1.00  0.00     0.014 A 
HETATM   20  C   UNL     1      44.683 -20.849   3.653  1.00  0.00     0.012 A 
HETATM   21  C   UNL     1      45.020 -19.497   5.645  1.00  0.00     0.012 A 
HETATM   22  C   UNL     1      44.175 -21.018   2.366  1.00  0.00     0.001 A 
HETATM   23  C   UNL     1      43.453 -19.992   1.773  1.00  0.00     0.001 A 
HETATM   24  C   UNL     1      44.851 -18.307   6.344  1.00  0.00     0.003 A 
HETATM   25  C   UNL     1      44.112 -17.266   5.786  1.00  0.00     0.024 A 
ENDBRANCH  14  16
ENDBRANCH   1  14
TORSDOF 5
ENDMDL
