MODEL 1
REMARK VINA RESULT:      -9.5      0.000      0.000
REMARK  2 active torsions:
REMARK  status: ('A' for Active; 'I' for Inactive)
REMARK    1  A    between atoms: C_4  and  N_5 
REMARK       I    between atoms: N_5  and  C_6 
REMARK    2  A    between atoms: C_6  and  C_7 
ROOT
HETATM    1  N   UNL     1      41.872 -17.666   2.465  1.00  0.00    -0.319 N 
HETATM    2  C   UNL     1      41.877 -16.884   1.332  1.00  0.00     0.280 C 
HETATM    3  O   UNL     1      42.636 -16.941   0.377  1.00  0.00    -0.265 OA
HETATM    4  H   UNL     1      41.053 -17.611   3.071  1.00  0.00     0.169 HD
ENDROOT
BRANCH   2   5
HETATM    5  C   UNL     1      40.745 -15.878   1.298  1.00  0.00     0.195 C 
HETATM    6  N   UNL     1      39.629 -16.212   1.896  1.00  0.00    -0.165 NA
HETATM    7  N   UNL     1      38.576 -15.342   1.875  1.00  0.00    -0.277 N 
HETATM    8  C   UNL     1      38.506 -14.295   0.939  1.00  0.00     0.064 A 
HETATM    9  H   UNL     1      37.673 -15.732   2.149  1.00  0.00     0.189 HD
HETATM   10  C   UNL     1      39.652 -13.846   0.283  1.00  0.00     0.045 A 
HETATM   11  C   UNL     1      37.314 -13.593   0.734  1.00  0.00     0.032 A 
HETATM   12  C   UNL     1      40.891 -14.556   0.590  1.00  0.00     0.220 C 
HETATM   13  C   UNL     1      39.629 -12.758  -0.593  1.00  0.00     0.018 A 
HETATM   14  O   UNL     1      41.990 -14.102   0.316  1.00  0.00    -0.285 OA
HETATM   15  C   UNL     1      38.426 -12.094  -0.817  1.00  0.00     0.001 A 
HETATM   16  C   UNL     1      37.271 -12.506  -0.150  1.00  0.00     0.002 A 
ENDBRANCH   2   5
BRANCH   1  17
HETATM   17  C   UNL     1      42.825 -18.635   2.858  1.00  0.00     0.065 A 
HETATM   18  C   UNL     1      43.098 -19.780   2.098  1.00  0.00     0.038 A 
HETATM   19  C   UNL     1      44.074 -20.693   2.508  1.00  0.00    -0.059 A 
HETATM   20  C   UNL     1      44.346 -21.924   1.694  1.00  0.00     0.048 C 
HETATM   21  C   UNL     1      44.751 -20.466   3.708  1.00  0.00     0.020 A 
HETATM   22  C   UNL     1      44.484 -19.320   4.476  1.00  0.00    -0.005 A 
HETATM   23  C   UNL     1      43.518 -18.381   4.052  1.00  0.00     0.093 A 
HETATM   24  C   UNL     1      45.163 -19.078   5.677  1.00  0.00     0.015 A 
HETATM   25  N   UNL     1      43.248 -17.266   4.773  1.00  0.00    -0.258 NA
HETATM   26  C   UNL     1      43.923 -17.069   5.927  1.00  0.00     0.117 A 
HETATM   27  C   UNL     1      44.879 -17.937   6.417  1.00  0.00     0.020 A 
ENDBRANCH   1  17
TORSDOF 2
ENDMDL
MODEL 2
REMARK VINA RESULT:      -9.5      2.299      2.843
REMARK  2 active torsions:
REMARK  status: ('A' for Active; 'I' for Inactive)
REMARK    1  A    between atoms: C_4  and  N_5 
REMARK       I    between atoms: N_5  and  C_6 
REMARK    2  A    between atoms: C_6  and  C_7 
ROOT
HETATM    1  N   UNL     1      42.846 -16.832   1.219  1.00  0.00    -0.319 N 
HETATM    2  C   UNL     1      41.543 -16.583   0.850  1.00  0.00     0.280 C 
HETATM    3  O   UNL     1      40.521 -17.064   1.313  1.00  0.00    -0.265 OA
HETATM    4  H   UNL     1      43.565 -16.203   0.861  1.00  0.00     0.169 HD
ENDROOT
BRANCH   2   5
HETATM    5  C   UNL     1      41.422 -15.534  -0.236  1.00  0.00     0.195 C 
HETATM    6  N   UNL     1      41.005 -15.934  -1.411  1.00  0.00    -0.165 NA
HETATM    7  N   UNL     1      40.897 -15.025  -2.425  1.00  0.00    -0.277 N 
HETATM    8  C   UNL     1      41.562 -13.786  -2.375  1.00  0.00     0.064 A 
HETATM    9  H   UNL     1      40.790 -15.416  -3.362  1.00  0.00     0.189 HD
HETATM   10  C   UNL     1      42.007 -13.264  -1.161  1.00  0.00     0.045 A 
HETATM   11  C   UNL     1      41.683 -12.989  -3.518  1.00  0.00     0.032 A 
HETATM   12  C   UNL     1      41.786 -14.095   0.020  1.00  0.00     0.220 C 
HETATM   13  C   UNL     1      42.601 -12.002  -1.069  1.00  0.00     0.018 A 
HETATM   14  O   UNL     1      41.863 -13.652   1.155  1.00  0.00    -0.285 OA
HETATM   15  C   UNL     1      42.749 -11.237  -2.222  1.00  0.00     0.001 A 
HETATM   16  C   UNL     1      42.286 -11.727  -3.444  1.00  0.00     0.002 A 
ENDBRANCH   2   5
BRANCH   1  17
HETATM   17  C   UNL     1      43.322 -17.804   2.131  1.00  0.00     0.065 A 
HETATM   18  C   UNL     1      43.616 -19.120   1.750  1.00  0.00     0.038 A 
HETATM   19  C   UNL     1      44.118 -20.036   2.679  1.00  0.00    -0.059 A 
HETATM   20  C   UNL     1      44.413 -21.447   2.264  1.00  0.00     0.048 C 
HETATM   21  C   UNL     1      44.290 -19.630   4.004  1.00  0.00     0.020 A 
HETATM   22  C   UNL     1      43.998 -18.313   4.394  1.00  0.00    -0.005 A 
HETATM   23  C   UNL     1      43.516 -17.376   3.454  1.00  0.00     0.093 A 
HETATM   24  C   UNL     1      44.174 -17.893   5.719  1.00  0.00     0.015 A 
HETATM   25  N   UNL     1      43.234 -16.098   3.805  1.00  0.00    -0.258 NA
HETATM   26  C   UNL     1      43.416 -15.732   5.094  1.00  0.00     0.117 A 
HETATM   27  C   UNL     1      43.878 -16.584   6.078  1.00  0.00     0.020 A 
ENDBRANCH   1  17
TORSDOF 2
ENDMDL
MODEL 3
REMARK VINA RESULT:      -9.4      1.637      1.814
REMARK  2 active torsions:
REMARK  status: ('A' for Active; 'I' for Inactive)
REMARK    1  A    between atoms: C_4  and  N_5 
REMARK       I    between atoms: N_5  and  C_6 
REMARK    2  A    between atoms: C_6  and  C_7 
ROOT
HETATM    1  N   UNL     1      41.837 -17.449   2.554  1.00  0.00    -0.319 N 
HETATM    2  C   UNL     1      41.938 -16.526   1.539  1.00  0.00     0.280 C 
HETATM    3  O   UNL     1      42.777 -16.464   0.653  1.00  0.00    -0.265 OA
HETATM    4  H   UNL     1      40.969 -17.467   3.090  1.00  0.00     0.169 HD
ENDROOT
BRANCH   2   5
HETATM    5  C   UNL     1      40.811 -15.513   1.540  1.00  0.00     0.195 C 
HETATM    6  N   UNL     1      40.207 -15.288   0.401  1.00  0.00    -0.165 NA
HETATM    7  N   UNL     1      39.196 -14.371   0.353  1.00  0.00    -0.277 N 
HETATM    8  C   UNL     1      39.033 -13.402   1.359  1.00  0.00     0.064 A 
HETATM    9  H   UNL     1      38.915 -14.068  -0.581  1.00  0.00     0.189 HD
HETATM   10  C   UNL     1      39.609 -13.578   2.617  1.00  0.00     0.045 A 
HETATM   11  C   UNL     1      38.191 -12.302   1.169  1.00  0.00     0.032 A 
HETATM   12  C   UNL     1      40.415 -14.783   2.797  1.00  0.00     0.220 C 
HETATM   13  C   UNL     1      39.402 -12.672   3.662  1.00  0.00     0.018 A 
HETATM   14  O   UNL     1      40.733 -15.199   3.900  1.00  0.00    -0.285 OA
HETATM   15  C   UNL     1      38.591 -11.561   3.445  1.00  0.00     0.001 A 
HETATM   16  C   UNL     1      37.982 -11.379   2.203  1.00  0.00     0.002 A 
ENDBRANCH   2   5
BRANCH   1  17
HETATM   17  C   UNL     1      42.754 -18.471   2.896  1.00  0.00     0.065 A 
HETATM   18  C   UNL     1      42.963 -19.601   2.095  1.00  0.00     0.038 A 
HETATM   19  C   UNL     1      43.906 -20.567   2.456  1.00  0.00    -0.059 A 
HETATM   20  C   UNL     1      44.109 -21.782   1.599  1.00  0.00     0.048 C 
HETATM   21  C   UNL     1      44.616 -20.408   3.648  1.00  0.00     0.020 A 
HETATM   22  C   UNL     1      44.414 -19.277   4.457  1.00  0.00    -0.005 A 
HETATM   23  C   UNL     1      43.481 -18.285   4.083  1.00  0.00     0.093 A 
HETATM   24  C   UNL     1      45.126 -19.103   5.651  1.00  0.00     0.015 A 
HETATM   25  N   UNL     1      43.274 -17.182   4.844  1.00  0.00    -0.258 NA
HETATM   26  C   UNL     1      43.979 -17.052   5.989  1.00  0.00     0.117 A 
HETATM   27  C   UNL     1      44.906 -17.975   6.432  1.00  0.00     0.020 A 
ENDBRANCH   1  17
TORSDOF 2
ENDMDL
MODEL 4
REMARK VINA RESULT:      -9.3      1.506      3.054
REMARK  2 active torsions:
REMARK  status: ('A' for Active; 'I' for Inactive)
REMARK    1  A    between atoms: C_4  and  N_5 
REMARK       I    between atoms: N_5  and  C_6 
REMARK    2  A    between atoms: C_6  and  C_7 
ROOT
HETATM    1  N   UNL     1      42.420 -17.516   2.671  1.00  0.00    -0.319 N 
HETATM    2  C   UNL     1      42.756 -16.618   1.684  1.00  0.00     0.280 C 
HETATM    3  O   UNL     1      43.868 -16.334   1.266  1.00  0.00    -0.265 OA
HETATM    4  H   UNL     1      41.436 -17.772   2.760  1.00  0.00     0.169 HD
ENDROOT
BRANCH   2   5
HETATM    5  C   UNL     1      41.551 -15.967   1.035  1.00  0.00     0.195 C 
HETATM    6  N   UNL     1      41.493 -15.983  -0.272  1.00  0.00    -0.165 NA
HETATM    7  N   UNL     1      40.433 -15.393  -0.900  1.00  0.00    -0.277 N 
HETATM    8  C   UNL     1      39.616 -14.459  -0.240  1.00  0.00     0.064 A 
HETATM    9  H   UNL     1      40.544 -15.232  -1.902  1.00  0.00     0.189 HD
HETATM   10  C   UNL     1      39.583 -14.397   1.153  1.00  0.00     0.045 A 
HETATM   11  C   UNL     1      38.722 -13.654  -0.954  1.00  0.00     0.032 A 
HETATM   12  C   UNL     1      40.474 -15.313   1.861  1.00  0.00     0.220 C 
HETATM   13  C   UNL     1      38.725 -13.533   1.839  1.00  0.00     0.018 A 
HETATM   14  O   UNL     1      40.345 -15.563   3.049  1.00  0.00    -0.285 OA
HETATM   15  C   UNL     1      37.869 -12.710   1.112  1.00  0.00     0.001 A 
HETATM   16  C   UNL     1      37.863 -12.774  -0.283  1.00  0.00     0.002 A 
ENDBRANCH   2   5
BRANCH   1  17
HETATM   17  C   UNL     1      43.288 -18.229   3.531  1.00  0.00     0.065 A 
HETATM   18  C   UNL     1      43.779 -17.690   4.727  1.00  0.00     0.038 A 
HETATM   19  C   UNL     1      44.606 -18.445   5.563  1.00  0.00    -0.059 A 
HETATM   20  C   UNL     1      45.141 -17.851   6.833  1.00  0.00     0.048 C 
HETATM   21  C   UNL     1      44.966 -19.737   5.173  1.00  0.00     0.020 A 
HETATM   22  C   UNL     1      44.477 -20.285   3.975  1.00  0.00    -0.005 A 
HETATM   23  C   UNL     1      43.619 -19.537   3.140  1.00  0.00     0.093 A 
HETATM   24  C   UNL     1      44.824 -21.583   3.577  1.00  0.00     0.015 A 
HETATM   25  N   UNL     1      43.130 -20.047   1.984  1.00  0.00    -0.258 NA
HETATM   26  C   UNL     1      43.490 -21.302   1.634  1.00  0.00     0.117 A 
HETATM   27  C   UNL     1      44.326 -22.101   2.388  1.00  0.00     0.020 A 
ENDBRANCH   1  17
TORSDOF 2
ENDMDL
MODEL 5
REMARK VINA RESULT:      -9.2      2.240      3.498
REMARK  2 active torsions:
REMARK  status: ('A' for Active; 'I' for Inactive)
REMARK    1  A    between atoms: C_4  and  N_5 
REMARK       I    between atoms: N_5  and  C_6 
REMARK    2  A    between atoms: C_6  and  C_7 
ROOT
HETATM    1  N   UNL     1      43.094 -17.325   2.539  1.00  0.00    -0.319 N 
HETATM    2  C   UNL     1      41.818 -16.810   2.507  1.00  0.00     0.280 C 
HETATM    3  O   UNL     1      40.958 -16.866   3.373  1.00  0.00    -0.265 OA
HETATM    4  H   UNL     1      43.743 -17.022   1.812  1.00  0.00     0.169 HD
ENDROOT
BRANCH   2   5
HETATM    5  C   UNL     1      41.517 -16.044   1.235  1.00  0.00     0.195 C 
HETATM    6  N   UNL     1      41.209 -16.746   0.173  1.00  0.00    -0.165 NA
HETATM    7  N   UNL     1      40.947 -16.097  -1.000  1.00  0.00    -0.277 N 
HETATM    8  C   UNL     1      41.355 -14.769  -1.213  1.00  0.00     0.064 A 
HETATM    9  H   UNL     1      40.937 -16.682  -1.837  1.00  0.00     0.189 HD
HETATM   10  C   UNL     1      41.665 -13.937  -0.138  1.00  0.00     0.045 A 
HETATM   11  C   UNL     1      41.342 -14.210  -2.495  1.00  0.00     0.032 A 
HETATM   12  C   UNL     1      41.587 -14.540   1.190  1.00  0.00     0.220 C 
HETATM   13  C   UNL     1      42.000 -12.591  -0.313  1.00  0.00     0.018 A 
HETATM   14  O   UNL     1      41.553 -13.872   2.211  1.00  0.00    -0.285 OA
HETATM   15  C   UNL     1      42.019 -12.059  -1.599  1.00  0.00     0.001 A 
HETATM   16  C   UNL     1      41.685 -12.865  -2.688  1.00  0.00     0.002 A 
ENDBRANCH   2   5
BRANCH   1  17
HETATM   17  C   UNL     1      43.672 -18.157   3.527  1.00  0.00     0.065 A 
HETATM   18  C   UNL     1      44.000 -17.696   4.808  1.00  0.00     0.038 A 
HETATM   19  C   UNL     1      44.537 -18.564   5.763  1.00  0.00    -0.059 A 
HETATM   20  C   UNL     1      44.900 -18.055   7.127  1.00  0.00     0.048 C 
HETATM   21  C   UNL     1      44.776 -19.894   5.411  1.00  0.00     0.020 A 
HETATM   22  C   UNL     1      44.449 -20.365   4.128  1.00  0.00    -0.005 A 
HETATM   23  C   UNL     1      43.882 -19.499   3.168  1.00  0.00     0.093 A 
HETATM   24  C   UNL     1      44.677 -21.699   3.765  1.00  0.00     0.015 A 
HETATM   25  N   UNL     1      43.553 -19.932   1.927  1.00  0.00    -0.258 NA
HETATM   26  C   UNL     1      43.790 -21.225   1.615  1.00  0.00     0.117 A 
HETATM   27  C   UNL     1      44.345 -22.138   2.490  1.00  0.00     0.020 A 
ENDBRANCH   1  17
TORSDOF 2
ENDMDL
MODEL 6
REMARK VINA RESULT:      -9.0      1.749      3.347
REMARK  2 active torsions:
REMARK  status: ('A' for Active; 'I' for Inactive)
REMARK    1  A    between atoms: C_4  and  N_5 
REMARK       I    between atoms: N_5  and  C_6 
REMARK    2  A    between atoms: C_6  and  C_7 
ROOT
HETATM    1  N   UNL     1      42.967 -17.016   2.951  1.00  0.00    -0.319 N 
HETATM    2  C   UNL     1      41.673 -16.547   2.976  1.00  0.00     0.280 C 
HETATM    3  O   UNL     1      40.820 -16.727   3.831  1.00  0.00    -0.265 OA
HETATM    4  H   UNL     1      43.601 -16.613   2.260  1.00  0.00     0.169 HD
ENDROOT
BRANCH   2   5
HETATM    5  C   UNL     1      41.338 -15.661   1.794  1.00  0.00     0.195 C 
HETATM    6  N   UNL     1      40.713 -14.539   2.045  1.00  0.00    -0.165 NA
HETATM    7  N   UNL     1      40.376 -13.717   1.008  1.00  0.00    -0.277 N 
HETATM    8  C   UNL     1      40.328 -14.186  -0.317  1.00  0.00     0.064 A 
HETATM    9  H   UNL     1      39.702 -12.981   1.226  1.00  0.00     0.189 HD
HETATM   10  C   UNL     1      40.998 -15.353  -0.684  1.00  0.00     0.045 A 
HETATM   11  C   UNL     1      39.716 -13.435  -1.325  1.00  0.00     0.032 A 
HETATM   12  C   UNL     1      41.693 -16.063   0.386  1.00  0.00     0.220 C 
HETATM   13  C   UNL     1      41.033 -15.804  -2.007  1.00  0.00     0.018 A 
HETATM   14  O   UNL     1      42.536 -16.918   0.164  1.00  0.00    -0.285 OA
HETATM   15  C   UNL     1      40.386 -15.064  -2.993  1.00  0.00     0.001 A 
HETATM   16  C   UNL     1      39.733 -13.878  -2.653  1.00  0.00     0.002 A 
ENDBRANCH   2   5
BRANCH   1  17
HETATM   17  C   UNL     1      43.580 -17.928   3.842  1.00  0.00     0.065 A 
HETATM   18  C   UNL     1      43.933 -17.584   5.153  1.00  0.00     0.038 A 
HETATM   19  C   UNL     1      44.504 -18.530   6.010  1.00  0.00    -0.059 A 
HETATM   20  C   UNL     1      44.893 -18.146   7.407  1.00  0.00     0.048 C 
HETATM   21  C   UNL     1      44.751 -19.817   5.528  1.00  0.00     0.020 A 
HETATM   22  C   UNL     1      44.400 -20.170   4.215  1.00  0.00    -0.005 A 
HETATM   23  C   UNL     1      43.798 -19.227   3.354  1.00  0.00     0.093 A 
HETATM   24  C   UNL     1      44.636 -21.461   3.723  1.00  0.00     0.015 A 
HETATM   25  N   UNL     1      43.445 -19.547   2.085  1.00  0.00    -0.258 NA
HETATM   26  C   UNL     1      43.691 -20.802   1.648  1.00  0.00     0.117 A 
HETATM   27  C   UNL     1      44.279 -21.784   2.420  1.00  0.00     0.020 A 
ENDBRANCH   1  17
TORSDOF 2
ENDMDL
MODEL 7
REMARK VINA RESULT:      -8.8      2.745      7.945
REMARK  2 active torsions:
REMARK  status: ('A' for Active; 'I' for Inactive)
REMARK    1  A    between atoms: C_4  and  N_5 
REMARK       I    between atoms: N_5  and  C_6 
REMARK    2  A    between atoms: C_6  and  C_7 
ROOT
HETATM    1  N   UNL     1      41.730 -15.212   4.164  1.00  0.00    -0.319 N 
HETATM    2  C   UNL     1      42.933 -15.574   3.600  1.00  0.00     0.280 C 
HETATM    3  O   UNL     1      43.756 -14.858   3.051  1.00  0.00    -0.265 OA
HETATM    4  H   UNL     1      41.258 -15.902   4.749  1.00  0.00     0.169 HD
ENDROOT
BRANCH   2   5
HETATM    5  C   UNL     1      43.243 -17.049   3.755  1.00  0.00     0.195 C 
HETATM    6  N   UNL     1      44.013 -17.396   4.756  1.00  0.00    -0.165 NA
HETATM    7  N   UNL     1      44.333 -18.713   4.923  1.00  0.00    -0.277 N 
HETATM    8  C   UNL     1      44.192 -19.643   3.878  1.00  0.00     0.064 A 
HETATM    9  H   UNL     1      45.103 -18.904   5.566  1.00  0.00     0.189 HD
HETATM   10  C   UNL     1      43.362 -19.374   2.791  1.00  0.00     0.045 A 
HETATM   11  C   UNL     1      44.780 -20.910   3.959  1.00  0.00     0.032 A 
HETATM   12  C   UNL     1      42.704 -18.070   2.788  1.00  0.00     0.220 C 
HETATM   13  C   UNL     1      43.142 -20.307   1.774  1.00  0.00     0.018 A 
HETATM   14  O   UNL     1      41.752 -17.819   2.065  1.00  0.00    -0.285 OA
HETATM   15  C   UNL     1      43.764 -21.551   1.850  1.00  0.00     0.001 A 
HETATM   16  C   UNL     1      44.577 -21.854   2.943  1.00  0.00     0.002 A 
ENDBRANCH   2   5
BRANCH   1  17
HETATM   17  C   UNL     1      41.097 -13.947   4.127  1.00  0.00     0.065 A 
HETATM   18  C   UNL     1      41.448 -12.899   4.987  1.00  0.00     0.038 A 
HETATM   19  C   UNL     1      40.819 -11.654   4.889  1.00  0.00    -0.059 A 
HETATM   20  C   UNL     1      41.191 -10.544   5.827  1.00  0.00     0.048 C 
HETATM   21  C   UNL     1      39.807 -11.480   3.942  1.00  0.00     0.020 A 
HETATM   22  C   UNL     1      39.449 -12.526   3.076  1.00  0.00    -0.005 A 
HETATM   23  C   UNL     1      40.101 -13.776   3.152  1.00  0.00     0.093 A 
HETATM   24  C   UNL     1      38.441 -12.360   2.116  1.00  0.00     0.015 A 
HETATM   25  N   UNL     1      39.777 -14.798   2.322  1.00  0.00    -0.258 NA
HETATM   26  C   UNL     1      38.798 -14.599   1.412  1.00  0.00     0.117 A 
HETATM   27  C   UNL     1      38.108 -13.411   1.271  1.00  0.00     0.020 A 
ENDBRANCH   1  17
TORSDOF 2
ENDMDL
MODEL 8
REMARK VINA RESULT:      -8.7      2.214      8.082
REMARK  2 active torsions:
REMARK  status: ('A' for Active; 'I' for Inactive)
REMARK    1  A    between atoms: C_4  and  N_5 
REMARK       I    between atoms: N_5  and  C_6 
REMARK    2  A    between atoms: C_6  and  C_7 
ROOT
HETATM    1  N   UNL     1      42.005 -15.054   1.111  1.00  0.00    -0.319 N 
HETATM    2  C   UNL     1      41.533 -15.331   2.374  1.00  0.00     0.280 C 
HETATM    3  O   UNL     1      40.678 -14.735   3.009  1.00  0.00    -0.265 OA
HETATM    4  H   UNL     1      42.580 -15.764   0.656  1.00  0.00     0.169 HD
ENDROOT
BRANCH   2   5
HETATM    5  C   UNL     1      42.154 -16.573   2.981  1.00  0.00     0.195 C 
HETATM    6  N   UNL     1      42.656 -16.463   4.185  1.00  0.00    -0.165 NA
HETATM    7  N   UNL     1      43.241 -17.553   4.765  1.00  0.00    -0.277 N 
HETATM    8  C   UNL     1      43.660 -18.656   4.000  1.00  0.00     0.064 A 
HETATM    9  H   UNL     1      43.809 -17.364   5.591  1.00  0.00     0.189 HD
HETATM   10  C   UNL     1      43.148 -18.874   2.722  1.00  0.00     0.045 A 
HETATM   11  C   UNL     1      44.503 -19.630   4.545  1.00  0.00     0.032 A 
HETATM   12  C   UNL     1      42.206 -17.874   2.224  1.00  0.00     0.220 C 
HETATM   13  C   UNL     1      43.485 -20.001   1.968  1.00  0.00     0.018 A 
HETATM   14  O   UNL     1      41.479 -18.080   1.265  1.00  0.00    -0.285 OA
HETATM   15  C   UNL     1      44.356 -20.942   2.510  1.00  0.00     0.001 A 
HETATM   16  C   UNL     1      44.860 -20.760   3.799  1.00  0.00     0.002 A 
ENDBRANCH   2   5
BRANCH   1  17
HETATM   17  C   UNL     1      41.710 -13.934   0.297  1.00  0.00     0.065 A 
HETATM   18  C   UNL     1      41.875 -12.614   0.737  1.00  0.00     0.038 A 
HETATM   19  C   UNL     1      41.604 -11.539  -0.114  1.00  0.00    -0.059 A 
HETATM   20  C   UNL     1      41.768 -10.130   0.373  1.00  0.00     0.048 C 
HETATM   21  C   UNL     1      41.131 -11.799  -1.402  1.00  0.00     0.020 A 
HETATM   22  C   UNL     1      40.962 -13.119  -1.851  1.00  0.00    -0.005 A 
HETATM   23  C   UNL     1      41.261 -14.209  -1.004  1.00  0.00     0.093 A 
HETATM   24  C   UNL     1      40.496 -13.392  -3.144  1.00  0.00     0.015 A 
HETATM   25  N   UNL     1      41.113 -15.491  -1.418  1.00  0.00    -0.258 NA
HETATM   26  C   UNL     1      40.659 -15.712  -2.671  1.00  0.00     0.117 A 
HETATM   27  C   UNL     1      40.339 -14.707  -3.563  1.00  0.00     0.020 A 
ENDBRANCH   1  17
TORSDOF 2
ENDMDL
MODEL 9
REMARK VINA RESULT:      -8.6      1.963      2.218
REMARK  2 active torsions:
REMARK  status: ('A' for Active; 'I' for Inactive)
REMARK    1  A    between atoms: C_4  and  N_5 
REMARK       I    between atoms: N_5  and  C_6 
REMARK    2  A    between atoms: C_6  and  C_7 
ROOT
HETATM    1  N   UNL     1      43.261 -16.772   2.423  1.00  0.00    -0.319 N 
HETATM    2  C   UNL     1      42.002 -16.266   2.192  1.00  0.00     0.280 C 
HETATM    3  O   UNL     1      40.923 -16.786   2.430  1.00  0.00    -0.265 OA
HETATM    4  H   UNL     1      44.049 -16.128   2.343  1.00  0.00     0.169 HD
ENDROOT
BRANCH   2   5
HETATM    5  C   UNL     1      42.019 -14.865   1.616  1.00  0.00     0.195 C 
HETATM    6  N   UNL     1      42.432 -13.901   2.399  1.00  0.00    -0.165 NA
HETATM    7  N   UNL     1      42.448 -12.619   1.927  1.00  0.00    -0.277 N 
HETATM    8  C   UNL     1      41.700 -12.243   0.798  1.00  0.00     0.064 A 
HETATM    9  H   UNL     1      42.558 -11.888   2.631  1.00  0.00     0.189 HD
HETATM   10  C   UNL     1      41.252 -13.199  -0.113  1.00  0.00     0.045 A 
HETATM   11  C   UNL     1      41.492 -10.894   0.490  1.00  0.00     0.032 A 
HETATM   12  C   UNL     1      41.562 -14.590   0.207  1.00  0.00     0.220 C 
HETATM   13  C   UNL     1      40.572 -12.851  -1.283  1.00  0.00     0.018 A 
HETATM   14  O   UNL     1      41.485 -15.485  -0.621  1.00  0.00    -0.285 OA
HETATM   15  C   UNL     1      40.340 -11.505  -1.556  1.00  0.00     0.001 A 
HETATM   16  C   UNL     1      40.803 -10.528  -0.674  1.00  0.00     0.002 A 
ENDBRANCH   2   5
BRANCH   1  17
HETATM   17  C   UNL     1      43.610 -18.069   2.868  1.00  0.00     0.065 A 
HETATM   18  C   UNL     1      43.671 -19.173   2.008  1.00  0.00     0.038 A 
HETATM   19  C   UNL     1      44.056 -20.429   2.486  1.00  0.00    -0.059 A 
HETATM   20  C   UNL     1      44.102 -21.608   1.560  1.00  0.00     0.048 C 
HETATM   21  C   UNL     1      44.346 -20.576   3.845  1.00  0.00     0.020 A 
HETATM   22  C   UNL     1      44.287 -19.474   4.713  1.00  0.00    -0.005 A 
HETATM   23  C   UNL     1      43.926 -18.198   4.230  1.00  0.00     0.093 A 
HETATM   24  C   UNL     1      44.584 -19.608   6.076  1.00  0.00     0.015 A 
HETATM   25  N   UNL     1      43.869 -17.118   5.048  1.00  0.00    -0.258 NA
HETATM   26  C   UNL     1      44.160 -17.290   6.357  1.00  0.00     0.117 A 
HETATM   27  C   UNL     1      44.518 -18.501   6.913  1.00  0.00     0.020 A 
ENDBRANCH   1  17
TORSDOF 2
ENDMDL
MODEL 10
REMARK VINA RESULT:      -8.6      2.611      7.642
REMARK  2 active torsions:
REMARK  status: ('A' for Active; 'I' for Inactive)
REMARK    1  A    between atoms: C_4  and  N_5 
REMARK       I    between atoms: N_5  and  C_6 
REMARK    2  A    between atoms: C_6  and  C_7 
ROOT
HETATM    1  N   UNL     1      41.422 -15.527   3.146  1.00  0.00    -0.319 N 
HETATM    2  C   UNL     1      42.777 -15.768   3.118  1.00  0.00     0.280 C 
HETATM    3  O   UNL     1      43.682 -14.975   2.906  1.00  0.00    -0.265 OA
HETATM    4  H   UNL     1      40.822 -16.259   3.528  1.00  0.00     0.169 HD
ENDROOT
BRANCH   2   5
HETATM    5  C   UNL     1      43.134 -17.203   3.450  1.00  0.00     0.195 C 
HETATM    6  N   UNL     1      43.789 -17.414   4.563  1.00  0.00    -0.165 NA
HETATM    7  N   UNL     1      44.146 -18.691   4.893  1.00  0.00    -0.277 N 
HETATM    8  C   UNL     1      44.180 -19.717   3.932  1.00  0.00     0.064 A 
HETATM    9  H   UNL     1      44.839 -18.779   5.638  1.00  0.00     0.189 HD
HETATM   10  C   UNL     1      43.480 -19.594   2.733  1.00  0.00     0.045 A 
HETATM   11  C   UNL     1      44.811 -20.935   4.203  1.00  0.00     0.032 A 
HETATM   12  C   UNL     1      42.767 -18.335   2.527  1.00  0.00     0.220 C 
HETATM   13  C   UNL     1      43.431 -20.626   1.791  1.00  0.00     0.018 A 
HETATM   14  O   UNL     1      41.902 -18.205   1.675  1.00  0.00    -0.285 OA
HETATM   15  C   UNL     1      44.096 -21.819   2.059  1.00  0.00     0.001 A 
HETATM   16  C   UNL     1      44.781 -21.976   3.266  1.00  0.00     0.002 A 
ENDBRANCH   2   5
BRANCH   1  17
HETATM   17  C   UNL     1      40.743 -14.334   2.805  1.00  0.00     0.065 A 
HETATM   18  C   UNL     1      40.592 -13.901   1.481  1.00  0.00     0.038 A 
HETATM   19  C   UNL     1      39.882 -12.733   1.189  1.00  0.00    -0.059 A 
HETATM   20  C   UNL     1      39.742 -12.270  -0.232  1.00  0.00     0.048 C 
HETATM   21  C   UNL     1      39.351 -11.983   2.240  1.00  0.00     0.020 A 
HETATM   22  C   UNL     1      39.497 -12.410   3.570  1.00  0.00    -0.005 A 
HETATM   23  C   UNL     1      40.191 -13.603   3.869  1.00  0.00     0.093 A 
HETATM   24  C   UNL     1      38.963 -11.669   4.633  1.00  0.00     0.015 A 
HETATM   25  N   UNL     1      40.338 -14.039   5.144  1.00  0.00    -0.258 NA
HETATM   26  C   UNL     1      39.810 -13.295   6.141  1.00  0.00     0.117 A 
HETATM   27  C   UNL     1      39.121 -12.116   5.939  1.00  0.00     0.020 A 
ENDBRANCH   1  17
TORSDOF 2
ENDMDL
