MODEL 1
REMARK VINA RESULT:      -8.9      0.000      0.000
REMARK  8 active torsions:
REMARK  status: ('A' for Active; 'I' for Inactive)
REMARK    1  A    between atoms: C_7  and  C_8 
REMARK    2  A    between atoms: C_10  and  O_11 
REMARK    3  A    between atoms: C_13  and  O_14 
REMARK    4  A    between atoms: O_14  and  C_15 
REMARK    5  A    between atoms: C_15  and  C_16 
REMARK       I    between atoms: C_16  and  N_17 
REMARK    6  A    between atoms: C_21  and  C_22 
REMARK       I    between atoms: C_22  and  N_23 
REMARK    7  A    between atoms: N_23  and  C_24 
REMARK    8  A    between atoms: C_24  and  C_25 
ROOT
HETATM    1  C   UNL     1      42.058 -16.030  -0.695  1.00  0.00     0.069 C 
HETATM    2  C   UNL     1      41.459 -16.140   0.678  1.00  0.00     0.024 C 
HETATM    3  N   UNL     1      40.307 -15.410   0.875  1.00  0.00    -0.312 N 
HETATM    4  C   UNL     1      39.507 -15.477   1.975  1.00  0.00     0.321 C 
HETATM    5  O   UNL     1      38.476 -14.821   2.065  1.00  0.00    -0.247 OA
HETATM    6  N   UNL     1      39.901 -16.324   2.957  1.00  0.00    -0.330 N 
HETATM    7  C   UNL     1      41.189 -16.990   3.012  1.00  0.00     0.160 C 
HETATM    8  C   UNL     1      41.910 -16.900   1.694  1.00  0.00     0.059 C 
HETATM    9  H   UNL     1      39.945 -14.820   0.134  1.00  0.00     0.170 HD
HETATM   10  H   UNL     1      39.306 -16.343   3.773  1.00  0.00     0.165 HD
ENDROOT
BRANCH   7  11
HETATM   11  C   UNL     1      41.999 -16.419   4.170  1.00  0.00    -0.028 A 
HETATM   12  C   UNL     1      42.036 -17.066   5.419  1.00  0.00     0.049 A 
HETATM   13  C   UNL     1      42.786 -16.546   6.479  1.00  0.00     0.102 A 
HETATM   14  C   UNL     1      43.500 -15.349   6.294  1.00  0.00     0.102 A 
HETATM   15  C   UNL     1      43.481 -14.707   5.054  1.00  0.00     0.040 A 
HETATM   16  C   UNL     1      42.729 -15.234   4.002  1.00  0.00     0.012 A 
BRANCH  13  17
HETATM   17  O   UNL     1      42.863 -17.108   7.730  1.00  0.00    -0.353 OA
HETATM   18  C   UNL     1      43.633 -18.296   7.859  1.00  0.00     0.210 C 
ENDBRANCH  13  17
BRANCH  14  19
HETATM   19  O   UNL     1      44.231 -14.908   7.366  1.00  0.00    -0.339 OA
BRANCH  19  20
HETATM   20  C   UNL     1      44.948 -13.690   7.187  1.00  0.00     0.278 C 
BRANCH  20  21
HETATM   21  C   UNL     1      44.805 -12.834   8.442  1.00  0.00     0.239 C 
HETATM   22  N   UNL     1      43.680 -12.059   8.497  1.00  0.00    -0.368 N 
HETATM   23  H   UNL     1      42.914 -12.258   7.860  1.00  0.00     0.159 HD
HETATM   24  H   UNL     1      43.498 -11.537   9.343  1.00  0.00     0.159 HD
HETATM   25  O   UNL     1      45.653 -12.786   9.326  1.00  0.00    -0.271 OA
ENDBRANCH  20  21
ENDBRANCH  19  20
ENDBRANCH  14  19
ENDBRANCH   7  11
BRANCH   8  26
HETATM   26  C   UNL     1      43.113 -17.764   1.600  1.00  0.00     0.252 C 
HETATM   27  N   UNL     1      42.872 -19.104   1.746  1.00  0.00    -0.353 N 
HETATM   28  H   UNL     1      41.919 -19.443   1.765  1.00  0.00     0.163 HD
HETATM   29  O   UNL     1      44.210 -17.283   1.338  1.00  0.00    -0.268 OA
BRANCH  27  30
HETATM   30  C   UNL     1      43.928 -20.075   1.579  1.00  0.00     0.161 C 
BRANCH  30  31
HETATM   31  C   UNL     1      44.240 -20.758   2.884  1.00  0.00    -0.041 A 
HETATM   32  C   UNL     1      44.383 -22.150   2.952  1.00  0.00     0.009 A 
HETATM   33  C   UNL     1      44.679 -22.773   4.166  1.00  0.00     0.001 A 
HETATM   34  C   UNL     1      44.830 -22.011   5.324  1.00  0.00     0.000 A 
HETATM   35  C   UNL     1      44.686 -20.626   5.271  1.00  0.00     0.001 A 
HETATM   36  C   UNL     1      44.393 -20.003   4.057  1.00  0.00     0.009 A 
ENDBRANCH  30  31
ENDBRANCH  27  30
ENDBRANCH   8  26
TORSDOF 8
ENDMDL
MODEL 2
REMARK VINA RESULT:      -8.5      2.943      4.902
REMARK  8 active torsions:
REMARK  status: ('A' for Active; 'I' for Inactive)
REMARK    1  A    between atoms: C_7  and  C_8 
REMARK    2  A    between atoms: C_10  and  O_11 
REMARK    3  A    between atoms: C_13  and  O_14 
REMARK    4  A    between atoms: O_14  and  C_15 
REMARK    5  A    between atoms: C_15  and  C_16 
REMARK       I    between atoms: C_16  and  N_17 
REMARK    6  A    between atoms: C_21  and  C_22 
REMARK       I    between atoms: C_22  and  N_23 
REMARK    7  A    between atoms: N_23  and  C_24 
REMARK    8  A    between atoms: C_24  and  C_25 
ROOT
HETATM    1  C   UNL     1      40.201 -11.232   2.962  1.00  0.00     0.069 C 
HETATM    2  C   UNL     1      40.027 -12.099   4.176  1.00  0.00     0.024 C 
HETATM    3  N   UNL     1      39.838 -11.421   5.359  1.00  0.00    -0.312 N 
HETATM    4  C   UNL     1      39.504 -11.988   6.552  1.00  0.00     0.321 C 
HETATM    5  O   UNL     1      39.317 -11.315   7.559  1.00  0.00    -0.247 OA
HETATM    6  N   UNL     1      39.367 -13.336   6.561  1.00  0.00    -0.330 N 
HETATM    7  C   UNL     1      39.747 -14.217   5.472  1.00  0.00     0.160 C 
HETATM    8  C   UNL     1      39.998 -13.445   4.205  1.00  0.00     0.059 C 
HETATM    9  H   UNL     1      39.863 -10.407   5.375  1.00  0.00     0.170 HD
HETATM   10  H   UNL     1      39.140 -13.740   7.458  1.00  0.00     0.165 HD
ENDROOT
BRANCH   7  11
HETATM   11  C   UNL     1      40.944 -15.057   5.902  1.00  0.00    -0.028 A 
HETATM   12  C   UNL     1      42.242 -14.512   5.926  1.00  0.00     0.049 A 
HETATM   13  C   UNL     1      43.338 -15.281   6.329  1.00  0.00     0.102 A 
HETATM   14  C   UNL     1      43.139 -16.623   6.699  1.00  0.00     0.102 A 
HETATM   15  C   UNL     1      41.854 -17.168   6.692  1.00  0.00     0.040 A 
HETATM   16  C   UNL     1      40.765 -16.392   6.287  1.00  0.00     0.012 A 
BRANCH  13  17
HETATM   17  O   UNL     1      44.635 -14.830   6.368  1.00  0.00    -0.353 OA
HETATM   18  C   UNL     1      44.933 -13.793   7.294  1.00  0.00     0.210 C 
ENDBRANCH  13  17
BRANCH  14  19
HETATM   19  O   UNL     1      44.253 -17.311   7.104  1.00  0.00    -0.339 OA
BRANCH  19  20
HETATM   20  C   UNL     1      44.315 -18.688   6.742  1.00  0.00     0.278 C 
BRANCH  20  21
HETATM   21  C   UNL     1      43.988 -19.543   7.962  1.00  0.00     0.239 C 
HETATM   22  N   UNL     1      44.286 -18.979   9.170  1.00  0.00    -0.368 N 
HETATM   23  H   UNL     1      44.469 -17.980   9.214  1.00  0.00     0.159 HD
HETATM   24  H   UNL     1      44.013 -19.469  10.010  1.00  0.00     0.159 HD
HETATM   25  O   UNL     1      43.540 -20.683   7.886  1.00  0.00    -0.271 OA
ENDBRANCH  20  21
ENDBRANCH  19  20
ENDBRANCH  14  19
ENDBRANCH   7  11
BRANCH   8  26
HETATM   26  C   UNL     1      40.147 -14.295   2.996  1.00  0.00     0.252 C 
HETATM   27  N   UNL     1      41.432 -14.432   2.545  1.00  0.00    -0.353 N 
HETATM   28  H   UNL     1      42.200 -14.088   3.106  1.00  0.00     0.163 HD
HETATM   29  O   UNL     1      39.179 -14.870   2.512  1.00  0.00    -0.268 OA
BRANCH  27  30
HETATM   30  C   UNL     1      41.747 -15.307   1.440  1.00  0.00     0.161 C 
BRANCH  30  31
HETATM   31  C   UNL     1      42.448 -16.549   1.921  1.00  0.00    -0.041 A 
HETATM   32  C   UNL     1      41.945 -17.287   3.000  1.00  0.00     0.009 A 
HETATM   33  C   UNL     1      42.600 -18.443   3.434  1.00  0.00     0.001 A 
HETATM   34  C   UNL     1      43.765 -18.866   2.798  1.00  0.00     0.000 A 
HETATM   35  C   UNL     1      44.279 -18.138   1.727  1.00  0.00     0.001 A 
HETATM   36  C   UNL     1      43.624 -16.985   1.290  1.00  0.00     0.009 A 
ENDBRANCH  30  31
ENDBRANCH  27  30
ENDBRANCH   8  26
TORSDOF 8
ENDMDL
MODEL 3
REMARK VINA RESULT:      -8.5      2.847      6.965
REMARK  8 active torsions:
REMARK  status: ('A' for Active; 'I' for Inactive)
REMARK    1  A    between atoms: C_7  and  C_8 
REMARK    2  A    between atoms: C_10  and  O_11 
REMARK    3  A    between atoms: C_13  and  O_14 
REMARK    4  A    between atoms: O_14  and  C_15 
REMARK    5  A    between atoms: C_15  and  C_16 
REMARK       I    between atoms: C_16  and  N_17 
REMARK    6  A    between atoms: C_21  and  C_22 
REMARK       I    between atoms: C_22  and  N_23 
REMARK    7  A    between atoms: N_23  and  C_24 
REMARK    8  A    between atoms: C_24  and  C_25 
ROOT
HETATM    1  C   UNL     1      40.994 -17.764   5.137  1.00  0.00     0.069 C 
HETATM    2  C   UNL     1      41.231 -16.464   4.422  1.00  0.00     0.024 C 
HETATM    3  N   UNL     1      40.864 -15.335   5.121  1.00  0.00    -0.312 N 
HETATM    4  C   UNL     1      41.127 -14.052   4.746  1.00  0.00     0.321 C 
HETATM    5  O   UNL     1      40.798 -13.096   5.438  1.00  0.00    -0.247 OA
HETATM    6  N   UNL     1      41.790 -13.891   3.575  1.00  0.00    -0.330 N 
HETATM    7  C   UNL     1      42.048 -14.946   2.613  1.00  0.00     0.160 C 
HETATM    8  C   UNL     1      41.794 -16.304   3.209  1.00  0.00     0.059 C 
HETATM    9  H   UNL     1      40.429 -15.419   6.033  1.00  0.00     0.170 HD
HETATM   10  H   UNL     1      41.957 -12.932   3.304  1.00  0.00     0.165 HD
ENDROOT
BRANCH   7  11
HETATM   11  C   UNL     1      41.230 -14.688   1.354  1.00  0.00    -0.028 A 
HETATM   12  C   UNL     1      39.838 -14.488   1.421  1.00  0.00     0.049 A 
HETATM   13  C   UNL     1      39.089 -14.242   0.267  1.00  0.00     0.102 A 
HETATM   14  C   UNL     1      39.737 -14.211  -0.981  1.00  0.00     0.102 A 
HETATM   15  C   UNL     1      41.119 -14.394  -1.056  1.00  0.00     0.040 A 
HETATM   16  C   UNL     1      41.859 -14.639   0.103  1.00  0.00     0.012 A 
BRANCH  13  17
HETATM   17  O   UNL     1      37.729 -14.052   0.245  1.00  0.00    -0.353 OA
HETATM   18  C   UNL     1      37.243 -12.800   0.714  1.00  0.00     0.210 C 
ENDBRANCH  13  17
BRANCH  14  19
HETATM   19  O   UNL     1      38.947 -13.943  -2.068  1.00  0.00    -0.339 OA
BRANCH  19  20
HETATM   20  C   UNL     1      39.404 -14.441  -3.323  1.00  0.00     0.278 C 
BRANCH  20  21
HETATM   21  C   UNL     1      38.415 -15.481  -3.840  1.00  0.00     0.239 C 
HETATM   22  N   UNL     1      37.210 -15.516  -3.197  1.00  0.00    -0.368 N 
HETATM   23  H   UNL     1      36.947 -14.733  -2.605  1.00  0.00     0.159 HD
HETATM   24  H   UNL     1      36.492 -16.129  -3.554  1.00  0.00     0.159 HD
HETATM   25  O   UNL     1      38.682 -16.280  -4.733  1.00  0.00    -0.271 OA
ENDBRANCH  20  21
ENDBRANCH  19  20
ENDBRANCH  14  19
ENDBRANCH   7  11
BRANCH   8  26
HETATM   26  C   UNL     1      42.271 -17.434   2.371  1.00  0.00     0.252 C 
HETATM   27  N   UNL     1      43.575 -17.794   2.580  1.00  0.00    -0.353 N 
HETATM   28  H   UNL     1      44.088 -17.393   3.355  1.00  0.00     0.163 HD
HETATM   29  O   UNL     1      41.503 -18.020   1.616  1.00  0.00    -0.268 OA
BRANCH  27  30
HETATM   30  C   UNL     1      44.150 -18.937   1.913  1.00  0.00     0.161 C 
BRANCH  30  31
HETATM   31  C   UNL     1      44.358 -20.074   2.878  1.00  0.00    -0.041 A 
HETATM   32  C   UNL     1      44.553 -19.832   4.244  1.00  0.00     0.009 A 
HETATM   33  C   UNL     1      44.739 -20.894   5.132  1.00  0.00     0.001 A 
HETATM   34  C   UNL     1      44.737 -22.206   4.662  1.00  0.00     0.000 A 
HETATM   35  C   UNL     1      44.549 -22.460   3.305  1.00  0.00     0.001 A 
HETATM   36  C   UNL     1      44.360 -21.400   2.418  1.00  0.00     0.009 A 
ENDBRANCH  30  31
ENDBRANCH  27  30
ENDBRANCH   8  26
TORSDOF 8
ENDMDL
MODEL 4
REMARK VINA RESULT:      -8.3      3.128      6.849
REMARK  8 active torsions:
REMARK  status: ('A' for Active; 'I' for Inactive)
REMARK    1  A    between atoms: C_7  and  C_8 
REMARK    2  A    between atoms: C_10  and  O_11 
REMARK    3  A    between atoms: C_13  and  O_14 
REMARK    4  A    between atoms: O_14  and  C_15 
REMARK    5  A    between atoms: C_15  and  C_16 
REMARK       I    between atoms: C_16  and  N_17 
REMARK    6  A    between atoms: C_21  and  C_22 
REMARK       I    between atoms: C_22  and  N_23 
REMARK    7  A    between atoms: N_23  and  C_24 
REMARK    8  A    between atoms: C_24  and  C_25 
ROOT
HETATM    1  C   UNL     1      41.071 -17.463   5.279  1.00  0.00     0.069 C 
HETATM    2  C   UNL     1      40.965 -16.068   4.732  1.00  0.00     0.024 C 
HETATM    3  N   UNL     1      40.060 -15.253   5.377  1.00  0.00    -0.312 N 
HETATM    4  C   UNL     1      39.907 -13.916   5.163  1.00  0.00     0.321 C 
HETATM    5  O   UNL     1      39.103 -13.247   5.802  1.00  0.00    -0.247 OA
HETATM    6  N   UNL     1      40.708 -13.361   4.222  1.00  0.00    -0.330 N 
HETATM    7  C   UNL     1      41.546 -14.105   3.299  1.00  0.00     0.160 C 
HETATM    8  C   UNL     1      41.684 -15.542   3.723  1.00  0.00     0.059 C 
HETATM    9  H   UNL     1      39.495 -15.619   6.135  1.00  0.00     0.170 HD
HETATM   10  H   UNL     1      40.564 -12.374   4.063  1.00  0.00     0.165 HD
ENDROOT
BRANCH   7  11
HETATM   11  C   UNL     1      40.994 -13.953   1.887  1.00  0.00    -0.028 A 
HETATM   12  C   UNL     1      41.815 -13.522   0.829  1.00  0.00     0.049 A 
HETATM   13  C   UNL     1      41.309 -13.392  -0.469  1.00  0.00     0.102 A 
HETATM   14  C   UNL     1      39.955 -13.682  -0.712  1.00  0.00     0.102 A 
HETATM   15  C   UNL     1      39.136 -14.124   0.329  1.00  0.00     0.040 A 
HETATM   16  C   UNL     1      39.650 -14.251   1.621  1.00  0.00     0.012 A 
BRANCH  13  17
HETATM   17  O   UNL     1      42.039 -12.965  -1.551  1.00  0.00    -0.353 OA
HETATM   18  C   UNL     1      42.770 -11.754  -1.402  1.00  0.00     0.210 C 
ENDBRANCH  13  17
BRANCH  14  19
HETATM   19  O   UNL     1      39.532 -13.554  -2.009  1.00  0.00    -0.339 OA
BRANCH  19  20
HETATM   20  C   UNL     1      38.792 -14.648  -2.546  1.00  0.00     0.278 C 
BRANCH  20  21
HETATM   21  C   UNL     1      39.712 -15.498  -3.416  1.00  0.00     0.239 C 
HETATM   22  N   UNL     1      39.331 -16.801  -3.574  1.00  0.00    -0.368 N 
HETATM   23  H   UNL     1      38.383 -17.068  -3.327  1.00  0.00     0.159 HD
HETATM   24  H   UNL     1      39.861 -17.382  -4.207  1.00  0.00     0.159 HD
HETATM   25  O   UNL     1      40.756 -15.078  -3.905  1.00  0.00    -0.271 OA
ENDBRANCH  20  21
ENDBRANCH  19  20
ENDBRANCH  14  19
ENDBRANCH   7  11
BRANCH   8  26
HETATM   26  C   UNL     1      42.719 -16.299   2.973  1.00  0.00     0.252 C 
HETATM   27  N   UNL     1      42.287 -17.477   2.427  1.00  0.00    -0.353 N 
HETATM   28  H   UNL     1      41.300 -17.700   2.432  1.00  0.00     0.163 HD
HETATM   29  O   UNL     1      43.843 -15.835   2.817  1.00  0.00    -0.268 OA
BRANCH  27  30
HETATM   30  C   UNL     1      43.151 -18.273   1.587  1.00  0.00     0.161 C 
BRANCH  30  31
HETATM   31  C   UNL     1      43.680 -19.465   2.338  1.00  0.00    -0.041 A 
HETATM   32  C   UNL     1      44.201 -19.328   3.631  1.00  0.00     0.009 A 
HETATM   33  C   UNL     1      44.684 -20.443   4.322  1.00  0.00     0.001 A 
HETATM   34  C   UNL     1      44.655 -21.702   3.725  1.00  0.00     0.000 A 
HETATM   35  C   UNL     1      44.144 -21.850   2.437  1.00  0.00     0.001 A 
HETATM   36  C   UNL     1      43.659 -20.738   1.747  1.00  0.00     0.009 A 
ENDBRANCH  30  31
ENDBRANCH  27  30
ENDBRANCH   8  26
TORSDOF 8
ENDMDL
MODEL 5
REMARK VINA RESULT:      -8.3      2.582      6.010
REMARK  8 active torsions:
REMARK  status: ('A' for Active; 'I' for Inactive)
REMARK    1  A    between atoms: C_7  and  C_8 
REMARK    2  A    between atoms: C_10  and  O_11 
REMARK    3  A    between atoms: C_13  and  O_14 
REMARK    4  A    between atoms: O_14  and  C_15 
REMARK    5  A    between atoms: C_15  and  C_16 
REMARK       I    between atoms: C_16  and  N_17 
REMARK    6  A    between atoms: C_21  and  C_22 
REMARK       I    between atoms: C_22  and  N_23 
REMARK    7  A    between atoms: N_23  and  C_24 
REMARK    8  A    between atoms: C_24  and  C_25 
ROOT
HETATM    1  C   UNL     1      42.765 -17.624   7.232  1.00  0.00     0.069 C 
HETATM    2  C   UNL     1      43.224 -16.297   6.699  1.00  0.00     0.024 C 
HETATM    3  N   UNL     1      43.779 -15.451   7.633  1.00  0.00    -0.312 N 
HETATM    4  C   UNL     1      44.404 -14.271   7.359  1.00  0.00     0.321 C 
HETATM    5  O   UNL     1      44.906 -13.586   8.242  1.00  0.00    -0.247 OA
HETATM    6  N   UNL     1      44.458 -13.906   6.056  1.00  0.00    -0.330 N 
HETATM    7  C   UNL     1      43.734 -14.557   4.979  1.00  0.00     0.160 C 
HETATM    8  C   UNL     1      43.181 -15.886   5.417  1.00  0.00     0.059 C 
HETATM    9  H   UNL     1      43.820 -15.724   8.609  1.00  0.00     0.170 HD
HETATM   10  H   UNL     1      44.905 -13.019   5.876  1.00  0.00     0.165 HD
ENDROOT
BRANCH   7  11
HETATM   11  C   UNL     1      42.660 -13.612   4.454  1.00  0.00    -0.028 A 
HETATM   12  C   UNL     1      42.671 -13.172   3.118  1.00  0.00     0.049 A 
HETATM   13  C   UNL     1      41.680 -12.311   2.634  1.00  0.00     0.102 A 
HETATM   14  C   UNL     1      40.668 -11.869   3.504  1.00  0.00     0.102 A 
HETATM   15  C   UNL     1      40.640 -12.312   4.828  1.00  0.00     0.040 A 
HETATM   16  C   UNL     1      41.635 -13.171   5.302  1.00  0.00     0.012 A 
BRANCH  13  17
HETATM   17  O   UNL     1      41.628 -11.825   1.351  1.00  0.00    -0.353 OA
HETATM   18  C   UNL     1      41.994 -12.717   0.305  1.00  0.00     0.210 C 
ENDBRANCH  13  17
BRANCH  14  19
HETATM   19  O   UNL     1      39.718 -11.046   2.959  1.00  0.00    -0.339 OA
BRANCH  19  20
HETATM   20  C   UNL     1      38.403 -11.584   2.843  1.00  0.00     0.278 C 
BRANCH  20  21
HETATM   21  C   UNL     1      38.288 -12.347   1.527  1.00  0.00     0.239 C 
HETATM   22  N   UNL     1      38.540 -11.615   0.401  1.00  0.00    -0.368 N 
HETATM   23  H   UNL     1      39.006 -10.717   0.493  1.00  0.00     0.159 HD
HETATM   24  H   UNL     1      38.558 -12.093  -0.488  1.00  0.00     0.159 HD
HETATM   25  O   UNL     1      37.940 -13.522   1.456  1.00  0.00    -0.271 OA
ENDBRANCH  20  21
ENDBRANCH  19  20
ENDBRANCH  14  19
ENDBRANCH   7  11
BRANCH   8  26
HETATM   26  C   UNL     1      42.646 -16.717   4.308  1.00  0.00     0.252 C 
HETATM   27  N   UNL     1      43.597 -17.265   3.491  1.00  0.00    -0.353 N 
HETATM   28  H   UNL     1      44.574 -17.205   3.746  1.00  0.00     0.163 HD
HETATM   29  O   UNL     1      41.443 -16.930   4.210  1.00  0.00    -0.268 OA
BRANCH  27  30
HETATM   30  C   UNL     1      43.235 -18.176   2.430  1.00  0.00     0.161 C 
BRANCH  30  31
HETATM   31  C   UNL     1      43.720 -19.569   2.730  1.00  0.00    -0.041 A 
HETATM   32  C   UNL     1      43.508 -20.616   1.824  1.00  0.00     0.009 A 
HETATM   33  C   UNL     1      43.968 -21.904   2.109  1.00  0.00     0.001 A 
HETATM   34  C   UNL     1      44.640 -22.158   3.304  1.00  0.00     0.000 A 
HETATM   35  C   UNL     1      44.853 -21.126   4.216  1.00  0.00     0.001 A 
HETATM   36  C   UNL     1      44.396 -19.838   3.931  1.00  0.00     0.009 A 
ENDBRANCH  30  31
ENDBRANCH  27  30
ENDBRANCH   8  26
TORSDOF 8
ENDMDL
MODEL 6
REMARK VINA RESULT:      -8.3      3.310      5.476
REMARK  8 active torsions:
REMARK  status: ('A' for Active; 'I' for Inactive)
REMARK    1  A    between atoms: C_7  and  C_8 
REMARK    2  A    between atoms: C_10  and  O_11 
REMARK    3  A    between atoms: C_13  and  O_14 
REMARK    4  A    between atoms: O_14  and  C_15 
REMARK    5  A    between atoms: C_15  and  C_16 
REMARK       I    between atoms: C_16  and  N_17 
REMARK    6  A    between atoms: C_21  and  C_22 
REMARK       I    between atoms: C_22  and  N_23 
REMARK    7  A    between atoms: N_23  and  C_24 
REMARK    8  A    between atoms: C_24  and  C_25 
ROOT
HETATM    1  C   UNL     1      43.234 -17.855   7.167  1.00  0.00     0.069 C 
HETATM    2  C   UNL     1      43.389 -16.436   6.697  1.00  0.00     0.024 C 
HETATM    3  N   UNL     1      43.922 -15.567   7.623  1.00  0.00    -0.312 N 
HETATM    4  C   UNL     1      44.300 -14.281   7.376  1.00  0.00     0.321 C 
HETATM    5  O   UNL     1      44.801 -13.576   8.244  1.00  0.00    -0.247 OA
HETATM    6  N   UNL     1      44.110 -13.830   6.113  1.00  0.00    -0.330 N 
HETATM    7  C   UNL     1      43.361 -14.528   5.084  1.00  0.00     0.160 C 
HETATM    8  C   UNL     1      43.101 -15.959   5.471  1.00  0.00     0.059 C 
HETATM    9  H   UNL     1      44.143 -15.891   8.558  1.00  0.00     0.170 HD
HETATM   10  H   UNL     1      44.376 -12.869   5.955  1.00  0.00     0.165 HD
ENDROOT
BRANCH   7  11
HETATM   11  C   UNL     1      42.083 -13.754   4.783  1.00  0.00    -0.028 A 
HETATM   12  C   UNL     1      41.138 -13.491   5.792  1.00  0.00     0.049 A 
HETATM   13  C   UNL     1      39.971 -12.773   5.516  1.00  0.00     0.102 A 
HETATM   14  C   UNL     1      39.733 -12.322   4.206  1.00  0.00     0.102 A 
HETATM   15  C   UNL     1      40.671 -12.565   3.200  1.00  0.00     0.040 A 
HETATM   16  C   UNL     1      41.835 -13.284   3.486  1.00  0.00     0.012 A 
BRANCH  13  17
HETATM   17  O   UNL     1      38.994 -12.487   6.439  1.00  0.00    -0.353 OA
HETATM   18  C   UNL     1      39.391 -11.772   7.602  1.00  0.00     0.210 C 
ENDBRANCH  13  17
BRANCH  14  19
HETATM   19  O   UNL     1      38.581 -11.606   4.011  1.00  0.00    -0.339 OA
BRANCH  19  20
HETATM   20  C   UNL     1      38.737 -10.263   3.560  1.00  0.00     0.278 C 
BRANCH  20  21
HETATM   21  C   UNL     1      38.849  -9.338   4.769  1.00  0.00     0.239 C 
HETATM   22  N   UNL     1      40.084  -8.793   4.977  1.00  0.00    -0.368 N 
HETATM   23  H   UNL     1      40.768  -8.825   4.226  1.00  0.00     0.159 HD
HETATM   24  H   UNL     1      40.190  -8.111   5.714  1.00  0.00     0.159 HD
HETATM   25  O   UNL     1      37.923  -9.129   5.546  1.00  0.00    -0.271 OA
ENDBRANCH  20  21
ENDBRANCH  19  20
ENDBRANCH  14  19
ENDBRANCH   7  11
BRANCH   8  26
HETATM   26  C   UNL     1      42.561 -16.797   4.371  1.00  0.00     0.252 C 
HETATM   27  N   UNL     1      43.500 -17.275   3.498  1.00  0.00    -0.353 N 
HETATM   28  H   UNL     1      44.483 -17.163   3.708  1.00  0.00     0.163 HD
HETATM   29  O   UNL     1      41.368 -17.078   4.326  1.00  0.00    -0.268 OA
BRANCH  27  30
HETATM   30  C   UNL     1      43.140 -18.185   2.437  1.00  0.00     0.161 C 
BRANCH  30  31
HETATM   31  C   UNL     1      43.664 -19.569   2.714  1.00  0.00    -0.041 A 
HETATM   32  C   UNL     1      44.346 -19.854   3.904  1.00  0.00     0.009 A 
HETATM   33  C   UNL     1      44.822 -21.144   4.155  1.00  0.00     0.001 A 
HETATM   34  C   UNL     1      44.625 -22.156   3.218  1.00  0.00     0.000 A 
HETATM   35  C   UNL     1      43.953 -21.883   2.028  1.00  0.00     0.001 A 
HETATM   36  C   UNL     1      43.474 -20.596   1.778  1.00  0.00     0.009 A 
ENDBRANCH  30  31
ENDBRANCH  27  30
ENDBRANCH   8  26
TORSDOF 8
ENDMDL
MODEL 7
REMARK VINA RESULT:      -8.2      2.242      2.910
REMARK  8 active torsions:
REMARK  status: ('A' for Active; 'I' for Inactive)
REMARK    1  A    between atoms: C_7  and  C_8 
REMARK    2  A    between atoms: C_10  and  O_11 
REMARK    3  A    between atoms: C_13  and  O_14 
REMARK    4  A    between atoms: O_14  and  C_15 
REMARK    5  A    between atoms: C_15  and  C_16 
REMARK       I    between atoms: C_16  and  N_17 
REMARK    6  A    between atoms: C_21  and  C_22 
REMARK       I    between atoms: C_22  and  N_23 
REMARK    7  A    between atoms: N_23  and  C_24 
REMARK    8  A    between atoms: C_24  and  C_25 
ROOT
HETATM    1  C   UNL     1      41.127 -15.190  -2.226  1.00  0.00     0.069 C 
HETATM    2  C   UNL     1      40.418 -14.842  -0.949  1.00  0.00     0.024 C 
HETATM    3  N   UNL     1      39.569 -13.760  -1.027  1.00  0.00    -0.312 N 
HETATM    4  C   UNL     1      38.707 -13.359  -0.050  1.00  0.00     0.321 C 
HETATM    5  O   UNL     1      37.954 -12.404  -0.205  1.00  0.00    -0.247 OA
HETATM    6  N   UNL     1      38.712 -14.085   1.093  1.00  0.00    -0.330 N 
HETATM    7  C   UNL     1      39.690 -15.104   1.427  1.00  0.00     0.160 C 
HETATM    8  C   UNL     1      40.502 -15.499   0.223  1.00  0.00     0.059 C 
HETATM    9  H   UNL     1      39.488 -13.237  -1.891  1.00  0.00     0.170 HD
HETATM   10  H   UNL     1      38.082 -13.759   1.812  1.00  0.00     0.165 HD
ENDROOT
BRANCH   7  11
HETATM   11  C   UNL     1      40.549 -14.612   2.586  1.00  0.00    -0.028 A 
HETATM   12  C   UNL     1      40.380 -15.127   3.885  1.00  0.00     0.049 A 
HETATM   13  C   UNL     1      41.175 -14.681   4.946  1.00  0.00     0.102 A 
HETATM   14  C   UNL     1      42.146 -13.692   4.710  1.00  0.00     0.102 A 
HETATM   15  C   UNL     1      42.332 -13.186   3.422  1.00  0.00     0.040 A 
HETATM   16  C   UNL     1      41.533 -13.637   2.369  1.00  0.00     0.012 A 
BRANCH  13  17
HETATM   17  O   UNL     1      41.064 -15.121   6.242  1.00  0.00    -0.353 OA
HETATM   18  C   UNL     1      40.627 -16.460   6.437  1.00  0.00     0.210 C 
ENDBRANCH  13  17
BRANCH  14  19
HETATM   19  O   UNL     1      42.904 -13.318   5.789  1.00  0.00    -0.339 OA
BRANCH  19  20
HETATM   20  C   UNL     1      44.176 -13.947   5.920  1.00  0.00     0.278 C 
BRANCH  20  21
HETATM   21  C   UNL     1      44.388 -14.352   7.375  1.00  0.00     0.239 C 
HETATM   22  N   UNL     1      43.861 -15.562   7.730  1.00  0.00    -0.368 N 
HETATM   23  H   UNL     1      43.585 -16.211   6.998  1.00  0.00     0.159 HD
HETATM   24  H   UNL     1      44.045 -15.913   8.659  1.00  0.00     0.159 HD
HETATM   25  O   UNL     1      44.941 -13.634   8.202  1.00  0.00    -0.271 OA
ENDBRANCH  20  21
ENDBRANCH  19  20
ENDBRANCH  14  19
ENDBRANCH   7  11
BRANCH   8  26
HETATM   26  C   UNL     1      41.347 -16.703   0.429  1.00  0.00     0.252 C 
HETATM   27  N   UNL     1      42.696 -16.470   0.402  1.00  0.00    -0.353 N 
HETATM   28  H   UNL     1      43.040 -15.519   0.388  1.00  0.00     0.163 HD
HETATM   29  O   UNL     1      40.837 -17.790   0.674  1.00  0.00    -0.268 OA
BRANCH  27  30
HETATM   30  C   UNL     1      43.641 -17.524   0.685  1.00  0.00     0.161 C 
BRANCH  30  31
HETATM   31  C   UNL     1      43.657 -17.850   2.155  1.00  0.00    -0.041 A 
HETATM   32  C   UNL     1      43.729 -19.177   2.597  1.00  0.00     0.009 A 
HETATM   33  C   UNL     1      43.750 -19.469   3.963  1.00  0.00     0.001 A 
HETATM   34  C   UNL     1      43.695 -18.437   4.899  1.00  0.00     0.000 A 
HETATM   35  C   UNL     1      43.618 -17.112   4.472  1.00  0.00     0.001 A 
HETATM   36  C   UNL     1      43.600 -16.820   3.107  1.00  0.00     0.009 A 
ENDBRANCH  30  31
ENDBRANCH  27  30
ENDBRANCH   8  26
TORSDOF 8
ENDMDL
MODEL 8
REMARK VINA RESULT:      -7.7      2.766      6.005
REMARK  8 active torsions:
REMARK  status: ('A' for Active; 'I' for Inactive)
REMARK    1  A    between atoms: C_7  and  C_8 
REMARK    2  A    between atoms: C_10  and  O_11 
REMARK    3  A    between atoms: C_13  and  O_14 
REMARK    4  A    between atoms: O_14  and  C_15 
REMARK    5  A    between atoms: C_15  and  C_16 
REMARK       I    between atoms: C_16  and  N_17 
REMARK    6  A    between atoms: C_21  and  C_22 
REMARK       I    between atoms: C_22  and  N_23 
REMARK    7  A    between atoms: N_23  and  C_24 
REMARK    8  A    between atoms: C_24  and  C_25 
ROOT
HETATM    1  C   UNL     1      43.836 -21.689   5.795  1.00  0.00     0.069 C 
HETATM    2  C   UNL     1      43.970 -20.254   6.215  1.00  0.00     0.024 C 
HETATM    3  N   UNL     1      44.092 -20.049   7.572  1.00  0.00    -0.312 N 
HETATM    4  C   UNL     1      44.382 -18.859   8.169  1.00  0.00     0.321 C 
HETATM    5  O   UNL     1      44.510 -18.761   9.384  1.00  0.00    -0.247 OA
HETATM    6  N   UNL     1      44.543 -17.795   7.347  1.00  0.00    -0.330 N 
HETATM    7  C   UNL     1      44.229 -17.785   5.930  1.00  0.00     0.160 C 
HETATM    8  C   UNL     1      44.022 -19.179   5.404  1.00  0.00     0.059 C 
HETATM    9  H   UNL     1      44.048 -20.834   8.212  1.00  0.00     0.170 HD
HETATM   10  H   UNL     1      44.736 -16.919   7.810  1.00  0.00     0.165 HD
ENDROOT
BRANCH   7  11
HETATM   11  C   UNL     1      43.029 -16.877   5.689  1.00  0.00    -0.028 A 
HETATM   12  C   UNL     1      43.106 -15.793   4.794  1.00  0.00     0.049 A 
HETATM   13  C   UNL     1      42.001 -14.966   4.567  1.00  0.00     0.102 A 
HETATM   14  C   UNL     1      40.802 -15.214   5.258  1.00  0.00     0.102 A 
HETATM   15  C   UNL     1      40.711 -16.295   6.138  1.00  0.00     0.040 A 
HETATM   16  C   UNL     1      41.820 -17.116   6.358  1.00  0.00     0.012 A 
BRANCH  13  17
HETATM   17  O   UNL     1      41.998 -13.883   3.723  1.00  0.00    -0.353 OA
HETATM   18  C   UNL     1      43.215 -13.582   3.051  1.00  0.00     0.210 C 
ENDBRANCH  13  17
BRANCH  14  19
HETATM   19  O   UNL     1      39.754 -14.379   4.972  1.00  0.00    -0.339 OA
BRANCH  19  20
HETATM   20  C   UNL     1      39.468 -13.367   5.934  1.00  0.00     0.278 C 
BRANCH  20  21
HETATM   21  C   UNL     1      39.368 -12.018   5.230  1.00  0.00     0.239 C 
HETATM   22  N   UNL     1      40.544 -11.528   4.733  1.00  0.00    -0.368 N 
HETATM   23  H   UNL     1      41.337 -12.156   4.639  1.00  0.00     0.159 HD
HETATM   24  H   UNL     1      40.517 -10.680   4.186  1.00  0.00     0.159 HD
HETATM   25  O   UNL     1      38.328 -11.373   5.152  1.00  0.00    -0.271 OA
ENDBRANCH  20  21
ENDBRANCH  19  20
ENDBRANCH  14  19
ENDBRANCH   7  11
BRANCH   8  26
HETATM   26  C   UNL     1      43.944 -19.265   3.924  1.00  0.00     0.252 C 
HETATM   27  N   UNL     1      42.769 -18.815   3.384  1.00  0.00    -0.353 N 
HETATM   28  H   UNL     1      42.099 -18.335   3.970  1.00  0.00     0.163 HD
HETATM   29  O   UNL     1      44.906 -19.648   3.268  1.00  0.00    -0.268 OA
BRANCH  27  30
HETATM   30  C   UNL     1      42.585 -18.743   1.953  1.00  0.00     0.161 C 
BRANCH  30  31
HETATM   31  C   UNL     1      41.814 -17.507   1.573  1.00  0.00    -0.041 A 
HETATM   32  C   UNL     1      40.581 -17.215   2.172  1.00  0.00     0.009 A 
HETATM   33  C   UNL     1      39.877 -16.061   1.816  1.00  0.00     0.001 A 
HETATM   34  C   UNL     1      40.396 -15.194   0.856  1.00  0.00     0.000 A 
HETATM   35  C   UNL     1      41.619 -15.476   0.250  1.00  0.00     0.001 A 
HETATM   36  C   UNL     1      42.324 -16.626   0.607  1.00  0.00     0.009 A 
ENDBRANCH  30  31
ENDBRANCH  27  30
ENDBRANCH   8  26
TORSDOF 8
ENDMDL
MODEL 9
REMARK VINA RESULT:      -7.7      3.029      6.658
REMARK  8 active torsions:
REMARK  status: ('A' for Active; 'I' for Inactive)
REMARK    1  A    between atoms: C_7  and  C_8 
REMARK    2  A    between atoms: C_10  and  O_11 
REMARK    3  A    between atoms: C_13  and  O_14 
REMARK    4  A    between atoms: O_14  and  C_15 
REMARK    5  A    between atoms: C_15  and  C_16 
REMARK       I    between atoms: C_16  and  N_17 
REMARK    6  A    between atoms: C_21  and  C_22 
REMARK       I    between atoms: C_22  and  N_23 
REMARK    7  A    between atoms: N_23  and  C_24 
REMARK    8  A    between atoms: C_24  and  C_25 
ROOT
HETATM    1  C   UNL     1      40.905 -16.702   5.951  1.00  0.00     0.069 C 
HETATM    2  C   UNL     1      40.806 -15.308   5.401  1.00  0.00     0.024 C 
HETATM    3  N   UNL     1      39.767 -14.554   5.901  1.00  0.00    -0.312 N 
HETATM    4  C   UNL     1      39.574 -13.224   5.672  1.00  0.00     0.321 C 
HETATM    5  O   UNL     1      38.643 -12.610   6.180  1.00  0.00    -0.247 OA
HETATM    6  N   UNL     1      40.477 -12.613   4.869  1.00  0.00    -0.330 N 
HETATM    7  C   UNL     1      41.490 -13.297   4.085  1.00  0.00     0.160 C 
HETATM    8  C   UNL     1      41.642 -14.730   4.518  1.00  0.00     0.059 C 
HETATM    9  H   UNL     1      39.113 -14.960   6.560  1.00  0.00     0.170 HD
HETATM   10  H   UNL     1      40.304 -11.634   4.694  1.00  0.00     0.165 HD
ENDROOT
BRANCH   7  11
HETATM   11  C   UNL     1      41.156 -13.158   2.605  1.00  0.00    -0.028 A 
HETATM   12  C   UNL     1      40.031 -13.797   2.051  1.00  0.00     0.049 A 
HETATM   13  C   UNL     1      39.720 -13.661   0.694  1.00  0.00     0.102 A 
HETATM   14  C   UNL     1      40.556 -12.887  -0.129  1.00  0.00     0.102 A 
HETATM   15  C   UNL     1      41.666 -12.237   0.414  1.00  0.00     0.040 A 
HETATM   16  C   UNL     1      41.968 -12.379   1.770  1.00  0.00     0.012 A 
BRANCH  13  17
HETATM   17  O   UNL     1      38.652 -14.262   0.075  1.00  0.00    -0.353 OA
HETATM   18  C   UNL     1      37.360 -13.990   0.603  1.00  0.00     0.210 C 
ENDBRANCH  13  17
BRANCH  14  19
HETATM   19  O   UNL     1      40.181 -12.778  -1.443  1.00  0.00    -0.339 OA
BRANCH  19  20
HETATM   20  C   UNL     1      41.196 -13.017  -2.414  1.00  0.00     0.278 C 
BRANCH  20  21
HETATM   21  C   UNL     1      40.766 -14.169  -3.317  1.00  0.00     0.239 C 
HETATM   22  N   UNL     1      39.486 -14.095  -3.792  1.00  0.00    -0.368 N 
HETATM   23  H   UNL     1      38.990 -13.210  -3.732  1.00  0.00     0.159 HD
HETATM   24  H   UNL     1      39.181 -14.789  -4.459  1.00  0.00     0.159 HD
HETATM   25  O   UNL     1      41.481 -15.133  -3.568  1.00  0.00    -0.271 OA
ENDBRANCH  20  21
ENDBRANCH  19  20
ENDBRANCH  14  19
ENDBRANCH   7  11
BRANCH   8  26
HETATM   26  C   UNL     1      42.822 -15.418   3.936  1.00  0.00     0.252 C 
HETATM   27  N   UNL     1      42.535 -16.561   3.240  1.00  0.00    -0.353 N 
HETATM   28  H   UNL     1      41.573 -16.798   3.039  1.00  0.00     0.163 HD
HETATM   29  O   UNL     1      43.942 -14.929   4.031  1.00  0.00    -0.268 OA
BRANCH  27  30
HETATM   30  C   UNL     1      43.567 -17.284   2.533  1.00  0.00     0.161 C 
BRANCH  30  31
HETATM   31  C   UNL     1      43.971 -18.521   3.291  1.00  0.00    -0.041 A 
HETATM   32  C   UNL     1      44.096 -18.502   4.686  1.00  0.00     0.009 A 
HETATM   33  C   UNL     1      44.465 -19.657   5.380  1.00  0.00     0.001 A 
HETATM   34  C   UNL     1      44.717 -20.839   4.685  1.00  0.00     0.000 A 
HETATM   35  C   UNL     1      44.601 -20.870   3.296  1.00  0.00     0.001 A 
HETATM   36  C   UNL     1      44.229 -19.717   2.603  1.00  0.00     0.009 A 
ENDBRANCH  30  31
ENDBRANCH  27  30
ENDBRANCH   8  26
TORSDOF 8
ENDMDL
MODEL 10
REMARK VINA RESULT:      -7.6      2.893      5.663
REMARK  8 active torsions:
REMARK  status: ('A' for Active; 'I' for Inactive)
REMARK    1  A    between atoms: C_7  and  C_8 
REMARK    2  A    between atoms: C_10  and  O_11 
REMARK    3  A    between atoms: C_13  and  O_14 
REMARK    4  A    between atoms: O_14  and  C_15 
REMARK    5  A    between atoms: C_15  and  C_16 
REMARK       I    between atoms: C_16  and  N_17 
REMARK    6  A    between atoms: C_21  and  C_22 
REMARK       I    between atoms: C_22  and  N_23 
REMARK    7  A    between atoms: N_23  and  C_24 
REMARK    8  A    between atoms: C_24  and  C_25 
ROOT
HETATM    1  C   UNL     1      38.133 -14.166   0.766  1.00  0.00     0.069 C 
HETATM    2  C   UNL     1      39.558 -14.567   0.510  1.00  0.00     0.024 C 
HETATM    3  N   UNL     1      39.821 -15.015  -0.765  1.00  0.00    -0.312 N 
HETATM    4  C   UNL     1      41.058 -15.280  -1.271  1.00  0.00     0.321 C 
HETATM    5  O   UNL     1      41.218 -15.643  -2.430  1.00  0.00    -0.247 OA
HETATM    6  N   UNL     1      42.104 -15.100  -0.429  1.00  0.00    -0.330 N 
HETATM    7  C   UNL     1      41.992 -14.856   0.997  1.00  0.00     0.160 C 
HETATM    8  C   UNL     1      40.583 -14.491   1.380  1.00  0.00     0.059 C 
HETATM    9  H   UNL     1      39.071 -15.092  -1.443  1.00  0.00     0.170 HD
HETATM   10  H   UNL     1      43.010 -15.323  -0.816  1.00  0.00     0.165 HD
ENDROOT
BRANCH   7  11
HETATM   11  C   UNL     1      42.518 -16.068   1.756  1.00  0.00    -0.028 A 
HETATM   12  C   UNL     1      42.199 -17.376   1.346  1.00  0.00     0.049 A 
HETATM   13  C   UNL     1      42.690 -18.488   2.038  1.00  0.00     0.102 A 
HETATM   14  C   UNL     1      43.500 -18.291   3.170  1.00  0.00     0.102 A 
HETATM   15  C   UNL     1      43.833 -16.998   3.577  1.00  0.00     0.040 A 
HETATM   16  C   UNL     1      43.338 -15.894   2.879  1.00  0.00     0.012 A 
BRANCH  13  17
HETATM   17  O   UNL     1      42.415 -19.793   1.712  1.00  0.00    -0.353 OA
HETATM   18  C   UNL     1      43.517 -20.690   1.645  1.00  0.00     0.210 C 
ENDBRANCH  13  17
BRANCH  14  19
HETATM   19  O   UNL     1      43.964 -19.424   3.787  1.00  0.00    -0.339 OA
BRANCH  19  20
HETATM   20  C   UNL     1      44.612 -19.242   5.043  1.00  0.00     0.278 C 
BRANCH  20  21
HETATM   21  C   UNL     1      44.307 -20.436   5.943  1.00  0.00     0.239 C 
HETATM   22  N   UNL     1      44.697 -21.652   5.455  1.00  0.00    -0.368 N 
HETATM   23  H   UNL     1      45.353 -21.683   4.680  1.00  0.00     0.159 HD
HETATM   24  H   UNL     1      44.592 -22.463   6.048  1.00  0.00     0.159 HD
HETATM   25  O   UNL     1      43.705 -20.342   7.007  1.00  0.00    -0.271 OA
ENDBRANCH  20  21
ENDBRANCH  19  20
ENDBRANCH  14  19
ENDBRANCH   7  11
BRANCH   8  26
HETATM   26  C   UNL     1      40.443 -13.988   2.771  1.00  0.00     0.252 C 
HETATM   27  N   UNL     1      40.060 -14.931   3.687  1.00  0.00    -0.353 N 
HETATM   28  H   UNL     1      40.030 -15.906   3.421  1.00  0.00     0.163 HD
HETATM   29  O   UNL     1      40.728 -12.829   3.048  1.00  0.00    -0.268 OA
BRANCH  27  30
HETATM   30  C   UNL     1      39.979 -14.615   5.093  1.00  0.00     0.161 C 
BRANCH  30  31
HETATM   31  C   UNL     1      41.137 -15.213   5.846  1.00  0.00    -0.041 A 
HETATM   32  C   UNL     1      42.316 -14.484   6.050  1.00  0.00     0.009 A 
HETATM   33  C   UNL     1      43.383 -15.046   6.755  1.00  0.00     0.001 A 
HETATM   34  C   UNL     1      43.283 -16.342   7.258  1.00  0.00     0.000 A 
HETATM   35  C   UNL     1      42.118 -17.080   7.058  1.00  0.00     0.001 A 
HETATM   36  C   UNL     1      41.050 -16.518   6.356  1.00  0.00     0.009 A 
ENDBRANCH  30  31
ENDBRANCH  27  30
ENDBRANCH   8  26
TORSDOF 8
ENDMDL
