MODEL 1
REMARK VINA RESULT:      -7.8      0.000      0.000
REMARK  6 active torsions:
REMARK  status: ('A' for Active; 'I' for Inactive)
REMARK    1  A    between atoms: C_2  and  C_3 
REMARK    2  A    between atoms: C_7  and  C_8 
REMARK       I    between atoms: C_8  and  N_9 
REMARK    3  A    between atoms: N_9  and  C_10 
REMARK    4  A    between atoms: C_11  and  O_12 
REMARK    5  A    between atoms: O_12  and  C_13 
REMARK    6  A    between atoms: C_13  and  C_14 
ROOT
HETATM    1  C   UNL     1      43.924 -18.381   3.812  1.00  0.00     0.068 A 
HETATM    2  C   UNL     1      44.424 -19.589   4.326  1.00  0.00     0.096 A 
HETATM    3  C   UNL     1      44.466 -20.744   3.542  1.00  0.00     0.046 A 
HETATM    4  C   UNL     1      43.957 -20.721   2.240  1.00  0.00    -0.059 A 
HETATM    5  C   UNL     1      44.028 -21.941   1.370  1.00  0.00     0.048 C 
HETATM    6  C   UNL     1      43.443 -19.521   1.731  1.00  0.00     0.009 A 
HETATM    7  C   UNL     1      43.426 -18.358   2.511  1.00  0.00     0.033 A 
ENDROOT
BRANCH   1   8
HETATM    8  N   UNL     1      43.984 -17.250   4.655  1.00  0.00    -0.319 N 
HETATM    9  C   UNL     1      42.937 -16.562   5.232  1.00  0.00     0.274 C 
HETATM   10  O   UNL     1      41.765 -16.917   5.214  1.00  0.00    -0.266 OA
HETATM   11  H   UNL     1      44.925 -17.006   4.944  1.00  0.00     0.169 HD
BRANCH   9  12
HETATM   12  C   UNL     1      43.362 -15.371   5.927  1.00  0.00     0.120 A 
HETATM   13  N   UNL     1      42.667 -14.193   5.979  1.00  0.00    -0.273 N 
HETATM   14  N   UNL     1      43.285 -13.224   6.670  1.00  0.00    -0.179 NA
HETATM   15  H   UNL     1      41.760 -13.987   5.575  1.00  0.00     0.189 HD
HETATM   16  C   UNL     1      44.395 -13.812   7.131  1.00  0.00     0.056 A 
HETATM   17  C   UNL     1      44.473 -15.162   6.719  1.00  0.00     0.065 A 
BRANCH  16  18
HETATM   18  C   UNL     1      45.367 -13.046   7.960  1.00  0.00     0.056 C 
HETATM   19  C   UNL     1      44.717 -12.442   9.197  1.00  0.00     0.011 C 
ENDBRANCH  16  18
ENDBRANCH   9  12
ENDBRANCH   1   8
BRANCH   2  20
HETATM   20  O   UNL     1      44.913 -19.579   5.612  1.00  0.00    -0.340 OA
BRANCH  20  21
HETATM   21  C   UNL     1      43.901 -19.940   6.573  1.00  0.00     0.293 C 
BRANCH  21  22
HETATM   22  C   UNL     1      44.007 -19.049   7.799  1.00  0.00     0.408 C 
HETATM   23  F   UNL     1      45.098 -18.251   7.732  1.00  0.00    -0.169 F 
HETATM   24  F   UNL     1      42.922 -18.248   7.904  1.00  0.00    -0.169 F 
HETATM   25  F   UNL     1      44.092 -19.772   8.936  1.00  0.00    -0.169 F 
ENDBRANCH  21  22
ENDBRANCH  20  21
ENDBRANCH   2  20
TORSDOF 6
ENDMDL
MODEL 2
REMARK VINA RESULT:      -7.5      3.112      3.997
REMARK  6 active torsions:
REMARK  status: ('A' for Active; 'I' for Inactive)
REMARK    1  A    between atoms: C_2  and  C_3 
REMARK    2  A    between atoms: C_7  and  C_8 
REMARK       I    between atoms: C_8  and  N_9 
REMARK    3  A    between atoms: N_9  and  C_10 
REMARK    4  A    between atoms: C_11  and  O_12 
REMARK    5  A    between atoms: O_12  and  C_13 
REMARK    6  A    between atoms: C_13  and  C_14 
ROOT
HETATM    1  C   UNL     1      44.200 -18.572   4.099  1.00  0.00     0.068 A 
HETATM    2  C   UNL     1      43.670 -18.460   2.802  1.00  0.00     0.096 A 
HETATM    3  C   UNL     1      43.565 -19.574   1.966  1.00  0.00     0.046 A 
HETATM    4  C   UNL     1      44.040 -20.816   2.399  1.00  0.00    -0.059 A 
HETATM    5  C   UNL     1      43.902 -22.031   1.530  1.00  0.00     0.048 C 
HETATM    6  C   UNL     1      44.583 -20.927   3.685  1.00  0.00     0.009 A 
HETATM    7  C   UNL     1      44.663 -19.813   4.530  1.00  0.00     0.033 A 
ENDROOT
BRANCH   1   8
HETATM    8  N   UNL     1      44.202 -17.407   4.895  1.00  0.00    -0.319 N 
HETATM    9  C   UNL     1      43.152 -16.855   5.599  1.00  0.00     0.274 C 
HETATM   10  O   UNL     1      42.057 -17.381   5.760  1.00  0.00    -0.266 OA
HETATM   11  H   UNL     1      45.125 -17.013   5.039  1.00  0.00     0.169 HD
BRANCH   9  12
HETATM   12  C   UNL     1      43.481 -15.583   6.195  1.00  0.00     0.120 A 
HETATM   13  N   UNL     1      42.719 -14.449   6.115  1.00  0.00    -0.273 N 
HETATM   14  N   UNL     1      43.253 -13.386   6.733  1.00  0.00    -0.179 NA
HETATM   15  H   UNL     1      41.817 -14.335   5.664  1.00  0.00     0.189 HD
HETATM   16  C   UNL     1      44.377 -13.862   7.283  1.00  0.00     0.056 A 
HETATM   17  C   UNL     1      44.547 -15.236   7.000  1.00  0.00     0.065 A 
BRANCH  16  18
HETATM   18  C   UNL     1      45.271 -12.967   8.070  1.00  0.00     0.056 C 
HETATM   19  C   UNL     1      44.494 -12.076   9.027  1.00  0.00     0.011 C 
ENDBRANCH  16  18
ENDBRANCH   9  12
ENDBRANCH   1   8
BRANCH   2  20
HETATM   20  O   UNL     1      43.216 -17.223   2.406  1.00  0.00    -0.340 OA
BRANCH  20  21
HETATM   21  C   UNL     1      43.021 -17.156   0.979  1.00  0.00     0.293 C 
BRANCH  21  22
HETATM   22  C   UNL     1      41.575 -16.804   0.668  1.00  0.00     0.408 C 
HETATM   23  F   UNL     1      41.420 -16.484  -0.637  1.00  0.00    -0.169 F 
HETATM   24  F   UNL     1      40.760 -17.850   0.932  1.00  0.00    -0.169 F 
HETATM   25  F   UNL     1      41.148 -15.756   1.406  1.00  0.00    -0.169 F 
ENDBRANCH  21  22
ENDBRANCH  20  21
ENDBRANCH   2  20
TORSDOF 6
ENDMDL
MODEL 3
REMARK VINA RESULT:      -7.4      1.899      2.211
REMARK  6 active torsions:
REMARK  status: ('A' for Active; 'I' for Inactive)
REMARK    1  A    between atoms: C_2  and  C_3 
REMARK    2  A    between atoms: C_7  and  C_8 
REMARK       I    between atoms: C_8  and  N_9 
REMARK    3  A    between atoms: N_9  and  C_10 
REMARK    4  A    between atoms: C_11  and  O_12 
REMARK    5  A    between atoms: O_12  and  C_13 
REMARK    6  A    between atoms: C_13  and  C_14 
ROOT
HETATM    1  C   UNL     1      43.381 -18.325   3.548  1.00  0.00     0.068 A 
HETATM    2  C   UNL     1      44.265 -19.148   4.266  1.00  0.00     0.096 A 
HETATM    3  C   UNL     1      44.674 -20.384   3.759  1.00  0.00     0.046 A 
HETATM    4  C   UNL     1      44.160 -20.841   2.541  1.00  0.00    -0.059 A 
HETATM    5  C   UNL     1      44.615 -22.148   1.962  1.00  0.00     0.048 C 
HETATM    6  C   UNL     1      43.266 -20.028   1.831  1.00  0.00     0.009 A 
HETATM    7  C   UNL     1      42.878 -18.779   2.331  1.00  0.00     0.033 A 
ENDROOT
BRANCH   1   8
HETATM    8  N   UNL     1      43.079 -17.065   4.108  1.00  0.00    -0.319 N 
HETATM    9  C   UNL     1      41.925 -16.676   4.756  1.00  0.00     0.274 C 
HETATM   10  O   UNL     1      41.010 -17.425   5.076  1.00  0.00    -0.266 OA
HETATM   11  H   UNL     1      43.865 -16.425   4.120  1.00  0.00     0.169 HD
BRANCH   9  12
HETATM   12  C   UNL     1      41.908 -15.270   5.080  1.00  0.00     0.120 A 
HETATM   13  N   UNL     1      42.922 -14.386   4.824  1.00  0.00    -0.273 N 
HETATM   14  N   UNL     1      42.676 -13.136   5.244  1.00  0.00    -0.179 NA
HETATM   15  H   UNL     1      43.803 -14.567   4.356  1.00  0.00     0.189 HD
HETATM   16  C   UNL     1      41.433 -13.199   5.738  1.00  0.00     0.056 A 
HETATM   17  C   UNL     1      40.901 -14.505   5.630  1.00  0.00     0.065 A 
BRANCH  16  18
HETATM   18  C   UNL     1      40.787 -11.987   6.315  1.00  0.00     0.056 C 
HETATM   19  C   UNL     1      39.411 -12.288   6.892  1.00  0.00     0.011 C 
ENDBRANCH  16  18
ENDBRANCH   9  12
ENDBRANCH   1   8
BRANCH   2  20
HETATM   20  O   UNL     1      44.749 -18.671   5.463  1.00  0.00    -0.340 OA
BRANCH  20  21
HETATM   21  C   UNL     1      44.007 -19.189   6.585  1.00  0.00     0.293 C 
BRANCH  21  22
HETATM   22  C   UNL     1      43.808 -18.098   7.625  1.00  0.00     0.408 C 
HETATM   23  F   UNL     1      44.326 -18.463   8.820  1.00  0.00    -0.169 F 
HETATM   24  F   UNL     1      44.425 -16.957   7.244  1.00  0.00    -0.169 F 
HETATM   25  F   UNL     1      42.501 -17.816   7.807  1.00  0.00    -0.169 F 
ENDBRANCH  21  22
ENDBRANCH  20  21
ENDBRANCH   2  20
TORSDOF 6
ENDMDL
MODEL 4
REMARK VINA RESULT:      -7.4      4.041      5.601
REMARK  6 active torsions:
REMARK  status: ('A' for Active; 'I' for Inactive)
REMARK    1  A    between atoms: C_2  and  C_3 
REMARK    2  A    between atoms: C_7  and  C_8 
REMARK       I    between atoms: C_8  and  N_9 
REMARK    3  A    between atoms: N_9  and  C_10 
REMARK    4  A    between atoms: C_11  and  O_12 
REMARK    5  A    between atoms: O_12  and  C_13 
REMARK    6  A    between atoms: C_13  and  C_14 
ROOT
HETATM    1  C   UNL     1      43.418 -18.327   2.259  1.00  0.00     0.068 A 
HETATM    2  C   UNL     1      43.686 -18.063   3.613  1.00  0.00     0.096 A 
HETATM    3  C   UNL     1      44.232 -19.043   4.446  1.00  0.00     0.046 A 
HETATM    4  C   UNL     1      44.471 -20.327   3.945  1.00  0.00    -0.059 A 
HETATM    5  C   UNL     1      45.091 -21.382   4.813  1.00  0.00     0.048 C 
HETATM    6  C   UNL     1      44.189 -20.597   2.600  1.00  0.00     0.009 A 
HETATM    7  C   UNL     1      43.666 -19.604   1.762  1.00  0.00     0.033 A 
ENDROOT
BRANCH   1   8
HETATM    8  N   UNL     1      42.932 -17.256   1.480  1.00  0.00    -0.319 N 
HETATM    9  C   UNL     1      41.657 -17.072   0.986  1.00  0.00     0.274 C 
HETATM   10  O   UNL     1      40.685 -17.762   1.270  1.00  0.00    -0.266 OA
HETATM   11  H   UNL     1      43.590 -16.490   1.383  1.00  0.00     0.169 HD
BRANCH   9  12
HETATM   12  C   UNL     1      41.551 -15.927   0.114  1.00  0.00     0.120 A 
HETATM   13  N   UNL     1      41.156 -15.963  -1.196  1.00  0.00    -0.273 N 
HETATM   14  N   UNL     1      41.162 -14.766  -1.801  1.00  0.00    -0.179 NA
HETATM   15  H   UNL     1      40.857 -16.768  -1.734  1.00  0.00     0.189 HD
HETATM   16  C   UNL     1      41.520 -13.915  -0.832  1.00  0.00     0.056 A 
HETATM   17  C   UNL     1      41.744 -14.589   0.390  1.00  0.00     0.065 A 
BRANCH  16  18
HETATM   18  C   UNL     1      41.644 -12.457  -1.115  1.00  0.00     0.056 C 
HETATM   19  C   UNL     1      42.834 -12.145  -2.010  1.00  0.00     0.011 C 
ENDBRANCH  16  18
ENDBRANCH   9  12
ENDBRANCH   1   8
BRANCH   2  20
HETATM   20  O   UNL     1      43.436 -16.791   4.075  1.00  0.00    -0.340 OA
BRANCH  20  21
HETATM   21  C   UNL     1      42.778 -16.807   5.358  1.00  0.00     0.293 C 
BRANCH  21  22
HETATM   22  C   UNL     1      41.270 -16.848   5.167  1.00  0.00     0.408 C 
HETATM   23  F   UNL     1      40.899 -16.176   4.054  1.00  0.00    -0.169 F 
HETATM   24  F   UNL     1      40.839 -18.123   5.037  1.00  0.00    -0.169 F 
HETATM   25  F   UNL     1      40.620 -16.302   6.217  1.00  0.00    -0.169 F 
ENDBRANCH  21  22
ENDBRANCH  20  21
ENDBRANCH   2  20
TORSDOF 6
ENDMDL
MODEL 5
REMARK VINA RESULT:      -7.1      3.414      4.893
REMARK  6 active torsions:
REMARK  status: ('A' for Active; 'I' for Inactive)
REMARK    1  A    between atoms: C_2  and  C_3 
REMARK    2  A    between atoms: C_7  and  C_8 
REMARK       I    between atoms: C_8  and  N_9 
REMARK    3  A    between atoms: N_9  and  C_10 
REMARK    4  A    between atoms: C_11  and  O_12 
REMARK    5  A    between atoms: O_12  and  C_13 
REMARK    6  A    between atoms: C_13  and  C_14 
ROOT
HETATM    1  C   UNL     1      43.338 -19.354   2.691  1.00  0.00     0.068 A 
HETATM    2  C   UNL     1      43.624 -19.137   4.049  1.00  0.00     0.096 A 
HETATM    3  C   UNL     1      44.317 -20.089   4.802  1.00  0.00     0.046 A 
HETATM    4  C   UNL     1      44.691 -21.302   4.214  1.00  0.00    -0.059 A 
HETATM    5  C   UNL     1      45.469 -22.320   4.995  1.00  0.00     0.048 C 
HETATM    6  C   UNL     1      44.393 -21.526   2.865  1.00  0.00     0.009 A 
HETATM    7  C   UNL     1      43.720 -20.559   2.107  1.00  0.00     0.033 A 
ENDROOT
BRANCH   1   8
HETATM    8  N   UNL     1      42.695 -18.307   1.996  1.00  0.00    -0.319 N 
HETATM    9  C   UNL     1      43.271 -17.229   1.356  1.00  0.00     0.274 C 
HETATM   10  O   UNL     1      44.473 -17.081   1.170  1.00  0.00    -0.266 OA
HETATM   11  H   UNL     1      41.699 -18.452   1.871  1.00  0.00     0.169 HD
BRANCH   9  12
HETATM   12  C   UNL     1      42.301 -16.282   0.865  1.00  0.00     0.120 A 
HETATM   13  N   UNL     1      41.965 -16.101  -0.450  1.00  0.00    -0.273 N 
HETATM   14  N   UNL     1      41.051 -15.141  -0.654  1.00  0.00    -0.179 NA
HETATM   15  H   UNL     1      42.312 -16.608  -1.257  1.00  0.00     0.189 HD
HETATM   16  C   UNL     1      40.741 -14.722   0.579  1.00  0.00     0.056 A 
HETATM   17  C   UNL     1      41.473 -15.426   1.562  1.00  0.00     0.065 A 
BRANCH  16  18
HETATM   18  C   UNL     1      39.740 -13.636   0.779  1.00  0.00     0.056 C 
HETATM   19  C   UNL     1      38.330 -14.180   0.953  1.00  0.00     0.011 C 
ENDBRANCH  16  18
ENDBRANCH   9  12
ENDBRANCH   1   8
BRANCH   2  20
HETATM   20  O   UNL     1      43.238 -17.935   4.597  1.00  0.00    -0.340 OA
BRANCH  20  21
HETATM   21  C   UNL     1      42.586 -18.112   5.870  1.00  0.00     0.293 C 
BRANCH  21  22
HETATM   22  C   UNL     1      43.172 -17.151   6.892  1.00  0.00     0.408 C 
HETATM   23  F   UNL     1      42.802 -15.876   6.632  1.00  0.00    -0.169 F 
HETATM   24  F   UNL     1      42.741 -17.455   8.137  1.00  0.00    -0.169 F 
HETATM   25  F   UNL     1      44.521 -17.197   6.903  1.00  0.00    -0.169 F 
ENDBRANCH  21  22
ENDBRANCH  20  21
ENDBRANCH   2  20
TORSDOF 6
ENDMDL
MODEL 6
REMARK VINA RESULT:      -7.0      4.206      5.133
REMARK  6 active torsions:
REMARK  status: ('A' for Active; 'I' for Inactive)
REMARK    1  A    between atoms: C_2  and  C_3 
REMARK    2  A    between atoms: C_7  and  C_8 
REMARK       I    between atoms: C_8  and  N_9 
REMARK    3  A    between atoms: N_9  and  C_10 
REMARK    4  A    between atoms: C_11  and  O_12 
REMARK    5  A    between atoms: O_12  and  C_13 
REMARK    6  A    between atoms: C_13  and  C_14 
ROOT
HETATM    1  C   UNL     1      43.041 -18.224   3.659  1.00  0.00     0.068 A 
HETATM    2  C   UNL     1      42.692 -18.650   2.367  1.00  0.00     0.096 A 
HETATM    3  C   UNL     1      43.189 -19.845   1.841  1.00  0.00     0.046 A 
HETATM    4  C   UNL     1      44.091 -20.611   2.587  1.00  0.00    -0.059 A 
HETATM    5  C   UNL     1      44.608 -21.915   2.055  1.00  0.00     0.048 C 
HETATM    6  C   UNL     1      44.453 -20.179   3.870  1.00  0.00     0.009 A 
HETATM    7  C   UNL     1      43.932 -18.994   4.403  1.00  0.00     0.033 A 
ENDROOT
BRANCH   1   8
HETATM    8  N   UNL     1      42.435 -17.039   4.130  1.00  0.00    -0.319 N 
HETATM    9  C   UNL     1      41.289 -16.913   4.887  1.00  0.00     0.274 C 
HETATM   10  O   UNL     1      40.676 -17.842   5.400  1.00  0.00    -0.266 OA
HETATM   11  H   UNL     1      42.991 -16.206   3.974  1.00  0.00     0.169 HD
BRANCH   9  12
HETATM   12  C   UNL     1      40.886 -15.539   5.073  1.00  0.00     0.120 A 
HETATM   13  N   UNL     1      40.384 -15.010   6.231  1.00  0.00    -0.273 N 
HETATM   14  N   UNL     1      40.061 -13.712   6.144  1.00  0.00    -0.179 NA
HETATM   15  H   UNL     1      40.246 -15.478   7.121  1.00  0.00     0.189 HD
HETATM   16  C   UNL     1      40.420 -13.372   4.901  1.00  0.00     0.056 A 
HETATM   17  C   UNL     1      40.969 -14.472   4.203  1.00  0.00     0.065 A 
BRANCH  16  18
HETATM   18  C   UNL     1      40.217 -11.980   4.410  1.00  0.00     0.056 C 
HETATM   19  C   UNL     1      38.902 -11.821   3.660  1.00  0.00     0.011 C 
ENDBRANCH  16  18
ENDBRANCH   9  12
ENDBRANCH   1   8
BRANCH   2  20
HETATM   20  O   UNL     1      41.805 -17.872   1.658  1.00  0.00    -0.340 OA
BRANCH  20  21
HETATM   21  C   UNL     1      42.480 -17.013   0.717  1.00  0.00     0.293 C 
BRANCH  21  22
HETATM   22  C   UNL     1      41.525 -15.945   0.211  1.00  0.00     0.408 C 
HETATM   23  F   UNL     1      42.094 -14.718   0.258  1.00  0.00    -0.169 F 
HETATM   24  F   UNL     1      41.176 -16.184  -1.073  1.00  0.00    -0.169 F 
HETATM   25  F   UNL     1      40.390 -15.904   0.942  1.00  0.00    -0.169 F 
ENDBRANCH  21  22
ENDBRANCH  20  21
ENDBRANCH   2  20
TORSDOF 6
ENDMDL
MODEL 7
REMARK VINA RESULT:      -6.9      4.357      6.081
REMARK  6 active torsions:
REMARK  status: ('A' for Active; 'I' for Inactive)
REMARK    1  A    between atoms: C_2  and  C_3 
REMARK    2  A    between atoms: C_7  and  C_8 
REMARK       I    between atoms: C_8  and  N_9 
REMARK    3  A    between atoms: N_9  and  C_10 
REMARK    4  A    between atoms: C_11  and  O_12 
REMARK    5  A    between atoms: O_12  and  C_13 
REMARK    6  A    between atoms: C_13  and  C_14 
ROOT
HETATM    1  C   UNL     1      42.774 -17.227   3.795  1.00  0.00     0.068 A 
HETATM    2  C   UNL     1      43.494 -18.427   3.671  1.00  0.00     0.096 A 
HETATM    3  C   UNL     1      43.810 -19.198   4.792  1.00  0.00     0.046 A 
HETATM    4  C   UNL     1      43.452 -18.750   6.068  1.00  0.00    -0.059 A 
HETATM    5  C   UNL     1      43.750 -19.582   7.281  1.00  0.00     0.048 C 
HETATM    6  C   UNL     1      42.748 -17.546   6.195  1.00  0.00     0.009 A 
HETATM    7  C   UNL     1      42.411 -16.788   5.066  1.00  0.00     0.033 A 
ENDROOT
BRANCH   1   8
HETATM    8  N   UNL     1      42.441 -16.552   2.601  1.00  0.00    -0.319 N 
HETATM    9  C   UNL     1      41.234 -16.547   1.933  1.00  0.00     0.274 C 
HETATM   10  O   UNL     1      40.192 -17.031   2.358  1.00  0.00    -0.266 OA
HETATM   11  H   UNL     1      43.160 -15.912   2.280  1.00  0.00     0.169 HD
BRANCH   9  12
HETATM   12  C   UNL     1      41.293 -15.854   0.669  1.00  0.00     0.120 A 
HETATM   13  N   UNL     1      40.906 -16.372  -0.538  1.00  0.00    -0.273 N 
HETATM   14  N   UNL     1      41.082 -15.538  -1.572  1.00  0.00    -0.179 NA
HETATM   15  H   UNL     1      40.504 -17.285  -0.723  1.00  0.00     0.189 HD
HETATM   16  C   UNL     1      41.546 -14.416  -1.009  1.00  0.00     0.056 A 
HETATM   17  C   UNL     1      41.666 -14.555   0.393  1.00  0.00     0.065 A 
BRANCH  16  18
HETATM   18  C   UNL     1      41.872 -13.228  -1.847  1.00  0.00     0.056 C 
HETATM   19  C   UNL     1      42.477 -12.097  -1.029  1.00  0.00     0.011 C 
ENDBRANCH  16  18
ENDBRANCH   9  12
ENDBRANCH   1   8
BRANCH   2  20
HETATM   20  O   UNL     1      43.834 -18.837   2.402  1.00  0.00    -0.340 OA
BRANCH  20  21
HETATM   21  C   UNL     1      43.201 -20.085   2.056  1.00  0.00     0.293 C 
BRANCH  21  22
HETATM   22  C   UNL     1      44.222 -21.211   2.085  1.00  0.00     0.408 C 
HETATM   23  F   UNL     1      45.466 -20.736   2.323  1.00  0.00    -0.169 F 
HETATM   24  F   UNL     1      43.929 -22.098   3.062  1.00  0.00    -0.169 F 
HETATM   25  F   UNL     1      44.253 -21.886   0.916  1.00  0.00    -0.169 F 
ENDBRANCH  21  22
ENDBRANCH  20  21
ENDBRANCH   2  20
TORSDOF 6
ENDMDL
MODEL 8
REMARK VINA RESULT:      -6.9      3.185      4.851
REMARK  6 active torsions:
REMARK  status: ('A' for Active; 'I' for Inactive)
REMARK    1  A    between atoms: C_2  and  C_3 
REMARK    2  A    between atoms: C_7  and  C_8 
REMARK       I    between atoms: C_8  and  N_9 
REMARK    3  A    between atoms: N_9  and  C_10 
REMARK    4  A    between atoms: C_11  and  O_12 
REMARK    5  A    between atoms: O_12  and  C_13 
REMARK    6  A    between atoms: C_13  and  C_14 
ROOT
HETATM    1  C   UNL     1      44.050 -15.938   6.464  1.00  0.00     0.068 A 
HETATM    2  C   UNL     1      43.380 -15.965   5.230  1.00  0.00     0.096 A 
HETATM    3  C   UNL     1      43.381 -17.113   4.433  1.00  0.00     0.046 A 
HETATM    4  C   UNL     1      44.102 -18.241   4.839  1.00  0.00    -0.059 A 
HETATM    5  C   UNL     1      44.085 -19.495   4.014  1.00  0.00     0.048 C 
HETATM    6  C   UNL     1      44.783 -18.210   6.062  1.00  0.00     0.009 A 
HETATM    7  C   UNL     1      44.759 -17.067   6.870  1.00  0.00     0.033 A 
ENDROOT
BRANCH   1   8
HETATM    8  N   UNL     1      43.935 -14.759   7.231  1.00  0.00    -0.319 N 
HETATM    9  C   UNL     1      44.848 -13.731   7.354  1.00  0.00     0.274 C 
HETATM   10  O   UNL     1      45.871 -13.614   6.690  1.00  0.00    -0.266 OA
HETATM   11  H   UNL     1      43.017 -14.625   7.639  1.00  0.00     0.169 HD
BRANCH   9  12
HETATM   12  C   UNL     1      44.456 -12.745   8.331  1.00  0.00     0.120 A 
HETATM   13  N   UNL     1      43.325 -11.975   8.271  1.00  0.00    -0.273 N 
HETATM   14  N   UNL     1      43.196 -11.113   9.289  1.00  0.00    -0.179 NA
HETATM   15  H   UNL     1      42.593 -11.997   7.569  1.00  0.00     0.189 HD
HETATM   16  C   UNL     1      44.253 -11.371  10.069  1.00  0.00     0.056 A 
HETATM   17  C   UNL     1      45.053 -12.404   9.527  1.00  0.00     0.065 A 
BRANCH  16  18
HETATM   18  C   UNL     1      44.471 -10.602  11.326  1.00  0.00     0.056 C 
HETATM   19  C   UNL     1      43.351  -9.607  11.593  1.00  0.00     0.011 C 
ENDBRANCH  16  18
ENDBRANCH   9  12
ENDBRANCH   1   8
BRANCH   2  20
HETATM   20  O   UNL     1      42.684 -14.838   4.858  1.00  0.00    -0.340 OA
BRANCH  20  21
HETATM   21  C   UNL     1      41.266 -15.085   4.783  1.00  0.00     0.293 C 
BRANCH  21  22
HETATM   22  C   UNL     1      40.499 -13.821   5.138  1.00  0.00     0.408 C 
HETATM   23  F   UNL     1      40.406 -12.991   4.074  1.00  0.00    -0.169 F 
HETATM   24  F   UNL     1      39.241 -14.120   5.534  1.00  0.00    -0.169 F 
HETATM   25  F   UNL     1      41.093 -13.143   6.143  1.00  0.00    -0.169 F 
ENDBRANCH  21  22
ENDBRANCH  20  21
ENDBRANCH   2  20
TORSDOF 6
ENDMDL
MODEL 9
REMARK VINA RESULT:      -6.9      3.542      6.457
REMARK  6 active torsions:
REMARK  status: ('A' for Active; 'I' for Inactive)
REMARK    1  A    between atoms: C_2  and  C_3 
REMARK    2  A    between atoms: C_7  and  C_8 
REMARK       I    between atoms: C_8  and  N_9 
REMARK    3  A    between atoms: N_9  and  C_10 
REMARK    4  A    between atoms: C_11  and  O_12 
REMARK    5  A    between atoms: O_12  and  C_13 
REMARK    6  A    between atoms: C_13  and  C_14 
ROOT
HETATM    1  C   UNL     1      41.503 -16.978   1.345  1.00  0.00     0.068 A 
HETATM    2  C   UNL     1      40.698 -16.271   2.255  1.00  0.00     0.096 A 
HETATM    3  C   UNL     1      39.957 -15.158   1.851  1.00  0.00     0.046 A 
HETATM    4  C   UNL     1      40.052 -14.701   0.532  1.00  0.00    -0.059 A 
HETATM    5  C   UNL     1      39.235 -13.530   0.069  1.00  0.00     0.048 C 
HETATM    6  C   UNL     1      40.866 -15.394  -0.373  1.00  0.00     0.009 A 
HETATM    7  C   UNL     1      41.588 -16.525   0.030  1.00  0.00     0.033 A 
ENDROOT
BRANCH   1   8
HETATM    8  N   UNL     1      42.160 -18.129   1.829  1.00  0.00    -0.319 N 
HETATM    9  C   UNL     1      43.517 -18.345   1.955  1.00  0.00     0.274 C 
HETATM   10  O   UNL     1      44.384 -17.494   1.792  1.00  0.00    -0.266 OA
HETATM   11  H   UNL     1      41.534 -18.819   2.228  1.00  0.00     0.169 HD
BRANCH   9  12
HETATM   12  C   UNL     1      43.837 -19.692   2.360  1.00  0.00     0.120 A 
HETATM   13  N   UNL     1      43.753 -20.801   1.562  1.00  0.00    -0.273 N 
HETATM   14  N   UNL     1      44.083 -21.945   2.178  1.00  0.00    -0.179 NA
HETATM   15  H   UNL     1      43.489 -20.845   0.583  1.00  0.00     0.189 HD
HETATM   16  C   UNL     1      44.449 -21.557   3.406  1.00  0.00     0.056 A 
HETATM   17  C   UNL     1      44.341 -20.156   3.558  1.00  0.00     0.065 A 
BRANCH  16  18
HETATM   18  C   UNL     1      44.891 -22.561   4.415  1.00  0.00     0.056 C 
HETATM   19  C   UNL     1      44.651 -22.086   5.841  1.00  0.00     0.011 C 
ENDBRANCH  16  18
ENDBRANCH   9  12
ENDBRANCH   1   8
BRANCH   2  20
HETATM   20  O   UNL     1      40.630 -16.745   3.545  1.00  0.00    -0.340 OA
BRANCH  20  21
HETATM   21  C   UNL     1      41.510 -16.021   4.428  1.00  0.00     0.293 C 
BRANCH  21  22
HETATM   22  C   UNL     1      42.297 -16.995   5.291  1.00  0.00     0.408 C 
HETATM   23  F   UNL     1      41.922 -18.273   5.051  1.00  0.00    -0.169 F 
HETATM   24  F   UNL     1      43.621 -16.902   5.032  1.00  0.00    -0.169 F 
HETATM   25  F   UNL     1      42.119 -16.750   6.607  1.00  0.00    -0.169 F 
ENDBRANCH  21  22
ENDBRANCH  20  21
ENDBRANCH   2  20
TORSDOF 6
ENDMDL
MODEL 10
REMARK VINA RESULT:      -6.7      3.401      4.372
REMARK  6 active torsions:
REMARK  status: ('A' for Active; 'I' for Inactive)
REMARK    1  A    between atoms: C_2  and  C_3 
REMARK    2  A    between atoms: C_7  and  C_8 
REMARK       I    between atoms: C_8  and  N_9 
REMARK    3  A    between atoms: N_9  and  C_10 
REMARK    4  A    between atoms: C_11  and  O_12 
REMARK    5  A    between atoms: O_12  and  C_13 
REMARK    6  A    between atoms: C_13  and  C_14 
ROOT
HETATM    1  C   UNL     1      43.582 -18.148   2.698  1.00  0.00     0.068 A 
HETATM    2  C   UNL     1      43.857 -18.372   4.058  1.00  0.00     0.096 A 
HETATM    3  C   UNL     1      44.263 -19.628   4.515  1.00  0.00     0.046 A 
HETATM    4  C   UNL     1      44.349 -20.700   3.621  1.00  0.00    -0.059 A 
HETATM    5  C   UNL     1      44.819 -22.047   4.086  1.00  0.00     0.048 C 
HETATM    6  C   UNL     1      44.059 -20.483   2.268  1.00  0.00     0.009 A 
HETATM    7  C   UNL     1      43.677 -19.216   1.808  1.00  0.00     0.033 A 
ENDROOT
BRANCH   1   8
HETATM    8  N   UNL     1      43.245 -16.831   2.319  1.00  0.00    -0.319 N 
HETATM    9  C   UNL     1      41.990 -16.303   2.100  1.00  0.00     0.274 C 
HETATM   10  O   UNL     1      40.933 -16.874   2.341  1.00  0.00    -0.266 OA
HETATM   11  H   UNL     1      44.032 -16.191   2.326  1.00  0.00     0.169 HD
BRANCH   9  12
HETATM   12  C   UNL     1      42.029 -14.953   1.592  1.00  0.00     0.120 A 
HETATM   13  N   UNL     1      42.581 -13.879   2.237  1.00  0.00    -0.273 N 
HETATM   14  N   UNL     1      42.470 -12.723   1.568  1.00  0.00    -0.179 NA
HETATM   15  H   UNL     1      43.059 -13.868   3.132  1.00  0.00     0.189 HD
HETATM   16  C   UNL     1      41.874 -13.069   0.420  1.00  0.00     0.056 A 
HETATM   17  C   UNL     1      41.607 -14.456   0.376  1.00  0.00     0.065 A 
BRANCH  16  18
HETATM   18  C   UNL     1      41.569 -12.040  -0.614  1.00  0.00     0.056 C 
HETATM   19  C   UNL     1      42.793 -11.215  -0.983  1.00  0.00     0.011 C 
ENDBRANCH  16  18
ENDBRANCH   9  12
ENDBRANCH   1   8
BRANCH   2  20
HETATM   20  O   UNL     1      43.759 -17.297   4.911  1.00  0.00    -0.340 OA
BRANCH  20  21
HETATM   21  C   UNL     1      43.082 -17.647   6.136  1.00  0.00     0.293 C 
BRANCH  21  22
HETATM   22  C   UNL     1      43.925 -17.234   7.331  1.00  0.00     0.408 C 
HETATM   23  F   UNL     1      44.713 -18.251   7.748  1.00  0.00    -0.169 F 
HETATM   24  F   UNL     1      44.731 -16.196   7.012  1.00  0.00    -0.169 F 
HETATM   25  F   UNL     1      43.157 -16.849   8.373  1.00  0.00    -0.169 F 
ENDBRANCH  21  22
ENDBRANCH  20  21
ENDBRANCH   2  20
TORSDOF 6
ENDMDL
