MODEL 1
REMARK VINA RESULT:      -9.3      0.000      0.000
REMARK  3 active torsions:
REMARK  status: ('A' for Active; 'I' for Inactive)
REMARK    1  A    between atoms: C_3  and  C_4 
REMARK       I    between atoms: C_4  and  N_5 
REMARK    2  A    between atoms: N_5  and  N_6 
REMARK       I    between atoms: N_6  and  C_7 
REMARK    3  A    between atoms: C_7  and  C_8 
ROOT
HETATM    1  N   UNL     1      43.943 -14.388   7.718  1.00  0.00    -0.263 N 
HETATM    2  C   UNL     1      44.861 -13.362   7.707  1.00  0.00     0.272 C 
HETATM    3  O   UNL     1      45.673 -13.241   6.788  1.00  0.00    -0.266 OA
HETATM    4  H   UNL     1      43.255 -14.529   8.456  1.00  0.00     0.190 HD
ENDROOT
BRANCH   1   5
HETATM    5  N   UNL     1      43.935 -15.309   6.665  1.00  0.00    -0.261 N 
HETATM    6  C   UNL     1      43.537 -16.611   6.901  1.00  0.00     0.294 C 
HETATM    7  O   UNL     1      43.183 -16.983   8.020  1.00  0.00    -0.264 OA
HETATM    8  H   UNL     1      44.231 -14.989   5.744  1.00  0.00     0.190 HD
BRANCH   6   9
HETATM    9  C   UNL     1      43.579 -17.465   5.729  1.00  0.00     0.152 A 
HETATM   10  C   UNL     1      42.912 -17.405   4.509  1.00  0.00    -0.009 A 
HETATM   11  C   UNL     1      41.924 -16.395   4.051  1.00  0.00     0.052 C 
HETATM   12  C   UNL     1      43.372 -18.528   3.751  1.00  0.00     0.007 A 
HETATM   13  C   UNL     1      44.281 -19.195   4.560  1.00  0.00     0.087 A 
HETATM   14  C   UNL     1      43.114 -19.045   2.468  1.00  0.00     0.015 A 
HETATM   15  O   UNL     1      44.406 -18.559   5.753  1.00  0.00    -0.304 OA
HETATM   16  C   UNL     1      44.961 -20.352   4.187  1.00  0.00     0.038 A 
HETATM   17  C   UNL     1      44.691 -20.851   2.908  1.00  0.00     0.003 A 
HETATM   18  C   UNL     1      43.782 -20.209   2.062  1.00  0.00     0.001 A 
ENDBRANCH   6   9
ENDBRANCH   1   5
BRANCH   2  19
HETATM   19  C   UNL     1      44.822 -12.429   8.836  1.00  0.00     0.064 A 
HETATM   20  C   UNL     1      43.862 -11.429   9.233  1.00  0.00     0.046 A 
HETATM   21  C   UNL     1      44.340 -10.828  10.405  1.00  0.00     0.046 A 
HETATM   22  C   UNL     1      42.631 -10.953   8.732  1.00  0.00     0.130 A 
HETATM   23  C   UNL     1      43.655  -9.804  11.074  1.00  0.00     0.030 A 
HETATM   24  N   UNL     1      45.535 -11.431  10.715  1.00  0.00    -0.364 N 
HETATM   25  C   UNL     1      42.440  -9.365  10.541  1.00  0.00     0.005 A 
HETATM   26  C   UNL     1      41.930  -9.934   9.380  1.00  0.00     0.043 A 
HETATM   27  H   UNL     1      46.107 -11.196  11.516  1.00  0.00     0.165 HD
HETATM   28  C   UNL     1      45.831 -12.386   9.788  1.00  0.00     0.106 A 
HETATM   29  F   UNL     1      42.101 -11.472   7.616  1.00  0.00    -0.205 F 
ENDBRANCH   2  19
TORSDOF 3
ENDMDL
MODEL 2
REMARK VINA RESULT:      -9.3      1.827      9.124
REMARK  3 active torsions:
REMARK  status: ('A' for Active; 'I' for Inactive)
REMARK    1  A    between atoms: C_3  and  C_4 
REMARK       I    between atoms: C_4  and  N_5 
REMARK    2  A    between atoms: N_5  and  N_6 
REMARK       I    between atoms: N_6  and  C_7 
REMARK    3  A    between atoms: C_7  and  C_8 
ROOT
HETATM    1  N   UNL     1      44.343 -15.466   6.856  1.00  0.00    -0.263 N 
HETATM    2  C   UNL     1      43.523 -16.564   6.731  1.00  0.00     0.272 C 
HETATM    3  O   UNL     1      42.469 -16.651   7.364  1.00  0.00    -0.266 OA
HETATM    4  H   UNL     1      45.222 -15.352   6.355  1.00  0.00     0.190 HD
ENDROOT
BRANCH   1   5
HETATM    5  N   UNL     1      43.971 -14.431   7.720  1.00  0.00    -0.261 N 
HETATM    6  C   UNL     1      44.803 -13.339   7.876  1.00  0.00     0.294 C 
HETATM    7  O   UNL     1      45.870 -13.252   7.266  1.00  0.00    -0.264 OA
HETATM    8  H   UNL     1      43.087 -14.515   8.219  1.00  0.00     0.190 HD
BRANCH   6   9
HETATM    9  C   UNL     1      44.305 -12.340   8.801  1.00  0.00     0.152 A 
HETATM   10  C   UNL     1      44.721 -11.960  10.074  1.00  0.00    -0.009 A 
HETATM   11  C   UNL     1      45.848 -12.506  10.873  1.00  0.00     0.052 C 
HETATM   12  C   UNL     1      43.837 -10.912  10.482  1.00  0.00     0.007 A 
HETATM   13  C   UNL     1      42.945 -10.728   9.436  1.00  0.00     0.087 A 
HETATM   14  C   UNL     1      43.702 -10.102  11.625  1.00  0.00     0.015 A 
HETATM   15  O   UNL     1      43.223 -11.587   8.422  1.00  0.00    -0.304 OA
HETATM   16  C   UNL     1      41.915  -9.789   9.439  1.00  0.00     0.038 A 
HETATM   17  C   UNL     1      41.798  -8.994  10.584  1.00  0.00     0.003 A 
HETATM   18  C   UNL     1      42.676  -9.147  11.661  1.00  0.00     0.001 A 
ENDBRANCH   6   9
ENDBRANCH   1   5
BRANCH   2  19
HETATM   19  C   UNL     1      43.964 -17.616   5.812  1.00  0.00     0.064 A 
HETATM   20  C   UNL     1      43.554 -17.970   4.476  1.00  0.00     0.046 A 
HETATM   21  C   UNL     1      44.322 -19.072   4.077  1.00  0.00     0.046 A 
HETATM   22  C   UNL     1      42.611 -17.484   3.544  1.00  0.00     0.130 A 
HETATM   23  C   UNL     1      44.188 -19.686   2.823  1.00  0.00     0.030 A 
HETATM   24  N   UNL     1      45.165 -19.381   5.117  1.00  0.00    -0.364 N 
HETATM   25  C   UNL     1      43.241 -19.169   1.934  1.00  0.00     0.005 A 
HETATM   26  C   UNL     1      42.458 -18.077   2.290  1.00  0.00     0.043 A 
HETATM   27  H   UNL     1      45.837 -20.137   5.108  1.00  0.00     0.165 HD
HETATM   28  C   UNL     1      44.961 -18.520   6.155  1.00  0.00     0.106 A 
HETATM   29  F   UNL     1      41.835 -16.434   3.844  1.00  0.00    -0.205 F 
ENDBRANCH   2  19
TORSDOF 3
ENDMDL
MODEL 3
REMARK VINA RESULT:      -9.0      6.429      9.464
REMARK  3 active torsions:
REMARK  status: ('A' for Active; 'I' for Inactive)
REMARK    1  A    between atoms: C_3  and  C_4 
REMARK       I    between atoms: C_4  and  N_5 
REMARK    2  A    between atoms: N_5  and  N_6 
REMARK       I    between atoms: N_6  and  C_7 
REMARK    3  A    between atoms: C_7  and  C_8 
ROOT
HETATM    1  N   UNL     1      42.543 -16.843   2.491  1.00  0.00    -0.263 N 
HETATM    2  C   UNL     1      43.651 -17.644   2.327  1.00  0.00     0.272 C 
HETATM    3  O   UNL     1      44.318 -17.609   1.291  1.00  0.00    -0.266 OA
HETATM    4  H   UNL     1      41.962 -16.838   3.327  1.00  0.00     0.190 HD
ENDROOT
BRANCH   1   5
HETATM    5  N   UNL     1      42.168 -15.977   1.458  1.00  0.00    -0.261 N 
HETATM    6  C   UNL     1      40.829 -15.789   1.178  1.00  0.00     0.294 C 
HETATM    7  O   UNL     1      39.950 -16.365   1.821  1.00  0.00    -0.264 OA
HETATM    8  H   UNL     1      42.904 -15.506   0.934  1.00  0.00     0.190 HD
BRANCH   6   9
HETATM    9  C   UNL     1      40.574 -14.870   0.085  1.00  0.00     0.152 A 
HETATM   10  C   UNL     1      39.472 -14.082  -0.232  1.00  0.00    -0.009 A 
HETATM   11  C   UNL     1      38.187 -13.962   0.504  1.00  0.00     0.052 C 
HETATM   12  C   UNL     1      39.816 -13.384  -1.432  1.00  0.00     0.007 A 
HETATM   13  C   UNL     1      41.099 -13.796  -1.765  1.00  0.00     0.087 A 
HETATM   14  C   UNL     1      39.177 -12.449  -2.267  1.00  0.00     0.015 A 
HETATM   15  O   UNL     1      41.558 -14.692  -0.855  1.00  0.00    -0.304 OA
HETATM   16  C   UNL     1      41.803 -13.344  -2.879  1.00  0.00     0.038 A 
HETATM   17  C   UNL     1      41.151 -12.415  -3.696  1.00  0.00     0.003 A 
HETATM   18  C   UNL     1      39.859 -11.973  -3.396  1.00  0.00     0.001 A 
ENDBRANCH   6   9
ENDBRANCH   1   5
BRANCH   2  19
HETATM   19  C   UNL     1      43.995 -18.531   3.441  1.00  0.00     0.064 A 
HETATM   20  C   UNL     1      44.213 -19.954   3.514  1.00  0.00     0.046 A 
HETATM   21  C   UNL     1      44.516 -20.267   4.845  1.00  0.00     0.046 A 
HETATM   22  C   UNL     1      44.188 -21.030   2.600  1.00  0.00     0.130 A 
HETATM   23  C   UNL     1      44.786 -21.572   5.283  1.00  0.00     0.030 A 
HETATM   24  N   UNL     1      44.487 -19.093   5.558  1.00  0.00    -0.364 N 
HETATM   25  C   UNL     1      44.750 -22.604   4.342  1.00  0.00     0.005 A 
HETATM   26  C   UNL     1      44.454 -22.337   3.010  1.00  0.00     0.043 A 
HETATM   27  H   UNL     1      44.669 -19.016   6.550  1.00  0.00     0.165 HD
HETATM   28  C   UNL     1      44.178 -18.052   4.732  1.00  0.00     0.106 A 
HETATM   29  F   UNL     1      43.907 -20.820   1.306  1.00  0.00    -0.205 F 
ENDBRANCH   2  19
TORSDOF 3
ENDMDL
MODEL 4
REMARK VINA RESULT:      -8.8      6.631      9.516
REMARK  3 active torsions:
REMARK  status: ('A' for Active; 'I' for Inactive)
REMARK    1  A    between atoms: C_3  and  C_4 
REMARK       I    between atoms: C_4  and  N_5 
REMARK    2  A    between atoms: N_5  and  N_6 
REMARK       I    between atoms: N_6  and  C_7 
REMARK    3  A    between atoms: C_7  and  C_8 
ROOT
HETATM    1  N   UNL     1      41.642 -14.914  -0.385  1.00  0.00    -0.263 N 
HETATM    2  C   UNL     1      41.039 -15.185  -1.593  1.00  0.00     0.272 C 
HETATM    3  O   UNL     1      41.050 -16.321  -2.073  1.00  0.00    -0.266 OA
HETATM    4  H   UNL     1      41.659 -13.993   0.048  1.00  0.00     0.190 HD
ENDROOT
BRANCH   1   5
HETATM    5  N   UNL     1      42.280 -15.949   0.307  1.00  0.00    -0.261 N 
HETATM    6  C   UNL     1      41.653 -16.532   1.392  1.00  0.00     0.294 C 
HETATM    7  O   UNL     1      40.539 -16.164   1.765  1.00  0.00    -0.264 OA
HETATM    8  H   UNL     1      43.201 -16.244  -0.012  1.00  0.00     0.190 HD
BRANCH   6   9
HETATM    9  C   UNL     1      42.420 -17.589   2.023  1.00  0.00     0.152 A 
HETATM   10  C   UNL     1      43.122 -17.640   3.224  1.00  0.00    -0.009 A 
HETATM   11  C   UNL     1      43.285 -16.568   4.238  1.00  0.00     0.052 C 
HETATM   12  C   UNL     1      43.672 -18.958   3.304  1.00  0.00     0.007 A 
HETATM   13  C   UNL     1      43.272 -19.616   2.150  1.00  0.00     0.087 A 
HETATM   14  C   UNL     1      44.463 -19.660   4.233  1.00  0.00     0.015 A 
HETATM   15  O   UNL     1      42.519 -18.794   1.375  1.00  0.00    -0.304 OA
HETATM   16  C   UNL     1      43.602 -20.934   1.844  1.00  0.00     0.038 A 
HETATM   17  C   UNL     1      44.389 -21.614   2.780  1.00  0.00     0.003 A 
HETATM   18  C   UNL     1      44.814 -20.989   3.955  1.00  0.00     0.001 A 
ENDBRANCH   6   9
ENDBRANCH   1   5
BRANCH   2  19
HETATM   19  C   UNL     1      40.388 -14.063  -2.273  1.00  0.00     0.064 A 
HETATM   20  C   UNL     1      40.914 -12.935  -3.000  1.00  0.00     0.046 A 
HETATM   21  C   UNL     1      39.825 -12.170  -3.438  1.00  0.00     0.046 A 
HETATM   22  C   UNL     1      42.199 -12.462  -3.345  1.00  0.00     0.130 A 
HETATM   23  C   UNL     1      39.967 -10.990  -4.182  1.00  0.00     0.030 A 
HETATM   24  N   UNL     1      38.683 -12.798  -3.002  1.00  0.00    -0.364 N 
HETATM   25  C   UNL     1      41.259 -10.562  -4.499  1.00  0.00     0.005 A 
HETATM   26  C   UNL     1      42.368 -11.291  -4.085  1.00  0.00     0.043 A 
HETATM   27  H   UNL     1      37.743 -12.467  -3.174  1.00  0.00     0.165 HD
HETATM   28  C   UNL     1      39.007 -13.926  -2.307  1.00  0.00     0.106 A 
HETATM   29  F   UNL     1      43.297 -13.132  -2.967  1.00  0.00    -0.205 F 
ENDBRANCH   2  19
TORSDOF 3
ENDMDL
MODEL 5
REMARK VINA RESULT:      -8.7      2.219      9.249
REMARK  3 active torsions:
REMARK  status: ('A' for Active; 'I' for Inactive)
REMARK    1  A    between atoms: C_3  and  C_4 
REMARK       I    between atoms: C_4  and  N_5 
REMARK    2  A    between atoms: N_5  and  N_6 
REMARK       I    between atoms: N_6  and  C_7 
REMARK    3  A    between atoms: C_7  and  C_8 
ROOT
HETATM    1  N   UNL     1      43.779 -14.290   5.987  1.00  0.00    -0.263 N 
HETATM    2  C   UNL     1      42.752 -14.960   5.361  1.00  0.00     0.272 C 
HETATM    3  O   UNL     1      41.576 -14.762   5.671  1.00  0.00    -0.266 OA
HETATM    4  H   UNL     1      44.764 -14.422   5.765  1.00  0.00     0.190 HD
ENDROOT
BRANCH   1   5
HETATM    5  N   UNL     1      43.478 -13.369   6.995  1.00  0.00    -0.261 N 
HETATM    6  C   UNL     1      44.489 -12.887   7.804  1.00  0.00     0.294 C 
HETATM    7  O   UNL     1      45.657 -13.249   7.656  1.00  0.00    -0.264 OA
HETATM    8  H   UNL     1      42.508 -13.078   7.107  1.00  0.00     0.190 HD
BRANCH   6   9
HETATM    9  C   UNL     1      44.045 -11.943   8.811  1.00  0.00     0.152 A 
HETATM   10  C   UNL     1      44.538 -11.627  10.074  1.00  0.00    -0.009 A 
HETATM   11  C   UNL     1      45.717 -12.204  10.770  1.00  0.00     0.052 C 
HETATM   12  C   UNL     1      43.677 -10.610  10.592  1.00  0.00     0.007 A 
HETATM   13  C   UNL     1      42.719 -10.378   9.615  1.00  0.00     0.087 A 
HETATM   14  C   UNL     1      43.610  -9.863  11.783  1.00  0.00     0.015 A 
HETATM   15  O   UNL     1      42.937 -11.181   8.542  1.00  0.00    -0.304 OA
HETATM   16  C   UNL     1      41.687  -9.451   9.733  1.00  0.00     0.038 A 
HETATM   17  C   UNL     1      41.638  -8.718  10.924  1.00  0.00     0.003 A 
HETATM   18  C   UNL     1      42.583  -8.920  11.933  1.00  0.00     0.001 A 
ENDBRANCH   6   9
ENDBRANCH   1   5
BRANCH   2  19
HETATM   19  C   UNL     1      43.128 -15.914   4.314  1.00  0.00     0.064 A 
HETATM   20  C   UNL     1      43.529 -17.297   4.362  1.00  0.00     0.046 A 
HETATM   21  C   UNL     1      43.773 -17.713   3.047  1.00  0.00     0.046 A 
HETATM   22  C   UNL     1      43.720 -18.261   5.377  1.00  0.00     0.130 A 
HETATM   23  C   UNL     1      44.185 -19.012   2.717  1.00  0.00     0.030 A 
HETATM   24  N   UNL     1      43.532 -16.637   2.227  1.00  0.00    -0.364 N 
HETATM   25  C   UNL     1      44.360 -19.931   3.755  1.00  0.00     0.005 A 
HETATM   26  C   UNL     1      44.129 -19.561   5.075  1.00  0.00     0.043 A 
HETATM   27  H   UNL     1      43.627 -16.647   1.220  1.00  0.00     0.165 HD
HETATM   28  C   UNL     1      43.147 -15.560   2.971  1.00  0.00     0.106 A 
HETATM   29  F   UNL     1      43.509 -17.949   6.663  1.00  0.00    -0.205 F 
ENDBRANCH   2  19
TORSDOF 3
ENDMDL
MODEL 6
REMARK VINA RESULT:      -8.7      6.181      8.483
REMARK  3 active torsions:
REMARK  status: ('A' for Active; 'I' for Inactive)
REMARK    1  A    between atoms: C_3  and  C_4 
REMARK       I    between atoms: C_4  and  N_5 
REMARK    2  A    between atoms: N_5  and  N_6 
REMARK       I    between atoms: N_6  and  C_7 
REMARK    3  A    between atoms: C_7  and  C_8 
ROOT
HETATM    1  N   UNL     1      41.865 -15.954   0.774  1.00  0.00    -0.263 N 
HETATM    2  C   UNL     1      40.597 -15.482   1.030  1.00  0.00     0.272 C 
HETATM    3  O   UNL     1      39.853 -16.051   1.831  1.00  0.00    -0.266 OA
HETATM    4  H   UNL     1      42.513 -15.518   0.120  1.00  0.00     0.190 HD
ENDROOT
BRANCH   1   5
HETATM    5  N   UNL     1      42.313 -17.101   1.437  1.00  0.00    -0.261 N 
HETATM    6  C   UNL     1      43.368 -17.008   2.324  1.00  0.00     0.294 C 
HETATM    7  O   UNL     1      43.926 -15.933   2.550  1.00  0.00    -0.264 OA
HETATM    8  H   UNL     1      41.844 -17.984   1.241  1.00  0.00     0.190 HD
BRANCH   6   9
HETATM    9  C   UNL     1      43.738 -18.268   2.941  1.00  0.00     0.152 A 
HETATM   10  C   UNL     1      44.038 -18.608   4.257  1.00  0.00    -0.009 A 
HETATM   11  C   UNL     1      44.063 -17.725   5.451  1.00  0.00     0.052 C 
HETATM   12  C   UNL     1      44.322 -20.009   4.248  1.00  0.00     0.007 A 
HETATM   13  C   UNL     1      44.180 -20.426   2.932  1.00  0.00     0.087 A 
HETATM   14  C   UNL     1      44.683 -20.966   5.216  1.00  0.00     0.015 A 
HETATM   15  O   UNL     1      43.830 -19.379   2.142  1.00  0.00    -0.304 OA
HETATM   16  C   UNL     1      44.372 -21.735   2.498  1.00  0.00     0.038 A 
HETATM   17  C   UNL     1      44.730 -22.671   3.475  1.00  0.00     0.003 A 
HETATM   18  C   UNL     1      44.884 -22.294   4.812  1.00  0.00     0.001 A 
ENDBRANCH   6   9
ENDBRANCH   1   5
BRANCH   2  19
HETATM   19  C   UNL     1      40.182 -14.278   0.306  1.00  0.00     0.064 A 
HETATM   20  C   UNL     1      40.161 -13.952  -1.098  1.00  0.00     0.046 A 
HETATM   21  C   UNL     1      39.662 -12.649  -1.221  1.00  0.00     0.046 A 
HETATM   22  C   UNL     1      40.512 -14.611  -2.297  1.00  0.00     0.130 A 
HETATM   23  C   UNL     1      39.504 -12.001  -2.455  1.00  0.00     0.030 A 
HETATM   24  N   UNL     1      39.387 -12.195   0.046  1.00  0.00    -0.364 N 
HETATM   25  C   UNL     1      39.865 -12.694  -3.614  1.00  0.00     0.005 A 
HETATM   26  C   UNL     1      40.364 -13.989  -3.537  1.00  0.00     0.043 A 
HETATM   27  H   UNL     1      39.013 -11.281   0.263  1.00  0.00     0.165 HD
HETATM   28  C   UNL     1      39.692 -13.158   0.963  1.00  0.00     0.106 A 
HETATM   29  F   UNL     1      40.997 -15.860  -2.271  1.00  0.00    -0.205 F 
ENDBRANCH   2  19
TORSDOF 3
ENDMDL
MODEL 7
REMARK VINA RESULT:      -8.6      1.721      2.471
REMARK  3 active torsions:
REMARK  status: ('A' for Active; 'I' for Inactive)
REMARK    1  A    between atoms: C_3  and  C_4 
REMARK       I    between atoms: C_4  and  N_5 
REMARK    2  A    between atoms: N_5  and  N_6 
REMARK       I    between atoms: N_6  and  C_7 
REMARK    3  A    between atoms: C_7  and  C_8 
ROOT
HETATM    1  N   UNL     1      42.752 -13.791   6.549  1.00  0.00    -0.263 N 
HETATM    2  C   UNL     1      43.649 -13.074   7.308  1.00  0.00     0.272 C 
HETATM    3  O   UNL     1      44.830 -13.415   7.396  1.00  0.00    -0.266 OA
HETATM    4  H   UNL     1      41.768 -13.548   6.448  1.00  0.00     0.190 HD
ENDROOT
BRANCH   1   5
HETATM    5  N   UNL     1      43.193 -14.930   5.867  1.00  0.00    -0.261 N 
HETATM    6  C   UNL     1      42.443 -16.090   5.920  1.00  0.00     0.294 C 
HETATM    7  O   UNL     1      41.388 -16.145   6.553  1.00  0.00    -0.264 OA
HETATM    8  H   UNL     1      44.067 -14.872   5.348  1.00  0.00     0.190 HD
BRANCH   6   9
HETATM    9  C   UNL     1      43.010 -17.198   5.175  1.00  0.00     0.152 A 
HETATM   10  C   UNL     1      44.072 -18.056   5.446  1.00  0.00    -0.009 A 
HETATM   11  C   UNL     1      44.961 -18.069   6.636  1.00  0.00     0.052 C 
HETATM   12  C   UNL     1      44.150 -18.953   4.336  1.00  0.00     0.007 A 
HETATM   13  C   UNL     1      43.136 -18.580   3.465  1.00  0.00     0.087 A 
HETATM   14  C   UNL     1      44.970 -20.039   3.979  1.00  0.00     0.015 A 
HETATM   15  O   UNL     1      42.449 -17.522   3.967  1.00  0.00    -0.304 OA
HETATM   16  C   UNL     1      42.872 -19.211   2.251  1.00  0.00     0.038 A 
HETATM   17  C   UNL     1      43.699 -20.289   1.915  1.00  0.00     0.003 A 
HETATM   18  C   UNL     1      44.731 -20.697   2.764  1.00  0.00     0.001 A 
ENDBRANCH   6   9
ENDBRANCH   1   5
BRANCH   2  19
HETATM   19  C   UNL     1      43.129 -11.891   8.000  1.00  0.00     0.064 A 
HETATM   20  C   UNL     1      43.423 -11.316   9.289  1.00  0.00     0.046 A 
HETATM   21  C   UNL     1      42.623 -10.175   9.434  1.00  0.00     0.046 A 
HETATM   22  C   UNL     1      44.282 -11.630  10.365  1.00  0.00     0.130 A 
HETATM   23  C   UNL     1      42.648  -9.363  10.577  1.00  0.00     0.030 A 
HETATM   24  N   UNL     1      41.874 -10.053   8.290  1.00  0.00    -0.364 N 
HETATM   25  C   UNL     1      43.514  -9.713  11.616  1.00  0.00     0.005 A 
HETATM   26  C   UNL     1      44.325 -10.837  11.513  1.00  0.00     0.043 A 
HETATM   27  H   UNL     1      41.203  -9.316   8.116  1.00  0.00     0.165 HD
HETATM   28  C   UNL     1      42.167 -11.069   7.428  1.00  0.00     0.106 A 
HETATM   29  F   UNL     1      45.082 -12.704  10.309  1.00  0.00    -0.205 F 
ENDBRANCH   2  19
TORSDOF 3
ENDMDL
MODEL 8
REMARK VINA RESULT:      -8.6      6.570      9.595
REMARK  3 active torsions:
REMARK  status: ('A' for Active; 'I' for Inactive)
REMARK    1  A    between atoms: C_3  and  C_4 
REMARK       I    between atoms: C_4  and  N_5 
REMARK    2  A    between atoms: N_5  and  N_6 
REMARK       I    between atoms: N_6  and  C_7 
REMARK    3  A    between atoms: C_7  and  C_8 
ROOT
HETATM    1  N   UNL     1      39.943 -15.467   0.432  1.00  0.00    -0.263 N 
HETATM    2  C   UNL     1      40.242 -14.957  -0.811  1.00  0.00     0.272 C 
HETATM    3  O   UNL     1      41.202 -15.376  -1.460  1.00  0.00    -0.266 OA
HETATM    4  H   UNL     1      39.161 -15.152   1.004  1.00  0.00     0.190 HD
ENDROOT
BRANCH   1   5
HETATM    5  N   UNL     1      40.748 -16.479   0.967  1.00  0.00    -0.261 N 
HETATM    6  C   UNL     1      41.587 -16.194   2.027  1.00  0.00     0.294 C 
HETATM    7  O   UNL     1      41.642 -15.066   2.518  1.00  0.00    -0.264 OA
HETATM    8  H   UNL     1      40.693 -17.407   0.551  1.00  0.00     0.190 HD
BRANCH   6   9
HETATM    9  C   UNL     1      42.369 -17.326   2.485  1.00  0.00     0.152 A 
HETATM   10  C   UNL     1      43.106 -17.540   3.646  1.00  0.00    -0.009 A 
HETATM   11  C   UNL     1      43.302 -16.616   4.793  1.00  0.00     0.052 C 
HETATM   12  C   UNL     1      43.654 -18.855   3.530  1.00  0.00     0.007 A 
HETATM   13  C   UNL     1      43.219 -19.351   2.310  1.00  0.00     0.087 A 
HETATM   14  C   UNL     1      44.470 -19.676   4.331  1.00  0.00     0.015 A 
HETATM   15  O   UNL     1      42.446 -18.431   1.677  1.00  0.00    -0.304 OA
HETATM   16  C   UNL     1      43.536 -20.614   1.817  1.00  0.00     0.038 A 
HETATM   17  C   UNL     1      44.349 -21.415   2.628  1.00  0.00     0.003 A 
HETATM   18  C   UNL     1      44.809 -20.955   3.864  1.00  0.00     0.001 A 
ENDBRANCH   6   9
ENDBRANCH   1   5
BRANCH   2  19
HETATM   19  C   UNL     1      39.364 -13.900  -1.319  1.00  0.00     0.064 A 
HETATM   20  C   UNL     1      38.383 -13.879  -2.375  1.00  0.00     0.046 A 
HETATM   21  C   UNL     1      37.840 -12.588  -2.422  1.00  0.00     0.046 A 
HETATM   22  C   UNL     1      37.883 -14.811  -3.311  1.00  0.00     0.130 A 
HETATM   23  C   UNL     1      36.850 -12.206  -3.338  1.00  0.00     0.030 A 
HETATM   24  N   UNL     1      38.457 -11.850  -1.441  1.00  0.00    -0.364 N 
HETATM   25  C   UNL     1      36.386 -13.163  -4.244  1.00  0.00     0.005 A 
HETATM   26  C   UNL     1      36.897 -14.456  -4.232  1.00  0.00     0.043 A 
HETATM   27  H   UNL     1      38.262 -10.877  -1.244  1.00  0.00     0.165 HD
HETATM   28  C   UNL     1      39.366 -12.621  -0.778  1.00  0.00     0.106 A 
HETATM   29  F   UNL     1      38.347 -16.068  -3.335  1.00  0.00    -0.205 F 
ENDBRANCH   2  19
TORSDOF 3
ENDMDL
MODEL 9
REMARK VINA RESULT:      -8.5      6.001      9.420
REMARK  3 active torsions:
REMARK  status: ('A' for Active; 'I' for Inactive)
REMARK    1  A    between atoms: C_3  and  C_4 
REMARK       I    between atoms: C_4  and  N_5 
REMARK    2  A    between atoms: N_5  and  N_6 
REMARK       I    between atoms: N_6  and  C_7 
REMARK    3  A    between atoms: C_7  and  C_8 
ROOT
HETATM    1  N   UNL     1      42.825 -16.800   0.596  1.00  0.00    -0.263 N 
HETATM    2  C   UNL     1      42.161 -17.723   1.372  1.00  0.00     0.272 C 
HETATM    3  O   UNL     1      40.936 -17.839   1.321  1.00  0.00    -0.266 OA
HETATM    4  H   UNL     1      43.835 -16.667   0.607  1.00  0.00     0.190 HD
ENDROOT
BRANCH   1   5
HETATM    5  N   UNL     1      42.090 -15.978  -0.265  1.00  0.00    -0.261 N 
HETATM    6  C   UNL     1      41.750 -14.701   0.136  1.00  0.00     0.294 C 
HETATM    7  O   UNL     1      42.081 -14.263   1.238  1.00  0.00    -0.264 OA
HETATM    8  H   UNL     1      41.822 -16.352  -1.174  1.00  0.00     0.190 HD
BRANCH   6   9
HETATM    9  C   UNL     1      40.986 -13.954  -0.846  1.00  0.00     0.152 A 
HETATM   10  C   UNL     1      41.375 -13.173  -1.930  1.00  0.00    -0.009 A 
HETATM   11  C   UNL     1      42.752 -12.875  -2.401  1.00  0.00     0.052 C 
HETATM   12  C   UNL     1      40.166 -12.699  -2.529  1.00  0.00     0.007 A 
HETATM   13  C   UNL     1      39.127 -13.218  -1.770  1.00  0.00     0.087 A 
HETATM   14  C   UNL     1      39.846 -11.886  -3.633  1.00  0.00     0.015 A 
HETATM   15  O   UNL     1      39.618 -13.974  -0.755  1.00  0.00    -0.304 OA
HETATM   16  C   UNL     1      37.778 -12.989  -2.027  1.00  0.00     0.038 A 
HETATM   17  C   UNL     1      37.480 -12.179  -3.128  1.00  0.00     0.003 A 
HETATM   18  C   UNL     1      38.496 -11.636  -3.919  1.00  0.00     0.001 A 
ENDBRANCH   6   9
ENDBRANCH   1   5
BRANCH   2  19
HETATM   19  C   UNL     1      42.983 -18.554   2.256  1.00  0.00     0.064 A 
HETATM   20  C   UNL     1      43.503 -18.337   3.583  1.00  0.00     0.046 A 
HETATM   21  C   UNL     1      44.230 -19.479   3.944  1.00  0.00     0.046 A 
HETATM   22  C   UNL     1      43.447 -17.295   4.534  1.00  0.00     0.130 A 
HETATM   23  C   UNL     1      44.880 -19.615   5.179  1.00  0.00     0.030 A 
HETATM   24  N   UNL     1      44.159 -20.358   2.890  1.00  0.00    -0.364 N 
HETATM   25  C   UNL     1      44.795 -18.558   6.088  1.00  0.00     0.005 A 
HETATM   26  C   UNL     1      44.085 -17.406   5.770  1.00  0.00     0.043 A 
HETATM   27  H   UNL     1      44.594 -21.271   2.872  1.00  0.00     0.165 HD
HETATM   28  C   UNL     1      43.419 -19.818   1.880  1.00  0.00     0.106 A 
HETATM   29  F   UNL     1      42.773 -16.167   4.271  1.00  0.00    -0.205 F 
ENDBRANCH   2  19
TORSDOF 3
ENDMDL
MODEL 10
REMARK VINA RESULT:      -8.5      2.761      9.511
REMARK  3 active torsions:
REMARK  status: ('A' for Active; 'I' for Inactive)
REMARK    1  A    between atoms: C_3  and  C_4 
REMARK       I    between atoms: C_4  and  N_5 
REMARK    2  A    between atoms: N_5  and  N_6 
REMARK       I    between atoms: N_6  and  C_7 
REMARK    3  A    between atoms: C_7  and  C_8 
ROOT
HETATM    1  N   UNL     1      42.835 -12.786   6.710  1.00  0.00    -0.263 N 
HETATM    2  C   UNL     1      43.560 -13.914   6.398  1.00  0.00     0.272 C 
HETATM    3  O   UNL     1      44.264 -14.475   7.240  1.00  0.00    -0.266 OA
HETATM    4  H   UNL     1      42.242 -12.289   6.047  1.00  0.00     0.190 HD
ENDROOT
BRANCH   1   5
HETATM    5  N   UNL     1      42.902 -12.268   8.007  1.00  0.00    -0.261 N 
HETATM    6  C   UNL     1      42.514 -10.963   8.242  1.00  0.00     0.294 C 
HETATM    7  O   UNL     1      42.105 -10.241   7.333  1.00  0.00    -0.264 OA
HETATM    8  H   UNL     1      43.242 -12.876   8.751  1.00  0.00     0.190 HD
BRANCH   6   9
HETATM    9  C   UNL     1      42.635 -10.548   9.627  1.00  0.00     0.152 A 
HETATM   10  C   UNL     1      43.735 -10.428  10.470  1.00  0.00    -0.009 A 
HETATM   11  C   UNL     1      45.162 -10.709  10.164  1.00  0.00     0.052 C 
HETATM   12  C   UNL     1      43.225  -9.967  11.724  1.00  0.00     0.007 A 
HETATM   13  C   UNL     1      41.853  -9.841  11.561  1.00  0.00     0.087 A 
HETATM   14  C   UNL     1      43.781  -9.642  12.975  1.00  0.00     0.015 A 
HETATM   15  O   UNL     1      41.494 -10.192  10.299  1.00  0.00    -0.304 OA
HETATM   16  C   UNL     1      40.980  -9.413  12.558  1.00  0.00     0.038 A 
HETATM   17  C   UNL     1      41.552  -9.095  13.795  1.00  0.00     0.003 A 
HETATM   18  C   UNL     1      42.929  -9.208  14.002  1.00  0.00     0.001 A 
ENDBRANCH   6   9
ENDBRANCH   1   5
BRANCH   2  19
HETATM   19  C   UNL     1      43.451 -14.409   5.023  1.00  0.00     0.064 A 
HETATM   20  C   UNL     1      43.342 -15.740   4.479  1.00  0.00     0.046 A 
HETATM   21  C   UNL     1      43.268 -15.621   3.085  1.00  0.00     0.046 A 
HETATM   22  C   UNL     1      43.299 -17.049   5.007  1.00  0.00     0.130 A 
HETATM   23  C   UNL     1      43.156 -16.724   2.227  1.00  0.00     0.030 A 
HETATM   24  N   UNL     1      43.327 -14.281   2.786  1.00  0.00    -0.364 N 
HETATM   25  C   UNL     1      43.116 -18.000   2.795  1.00  0.00     0.005 A 
HETATM   26  C   UNL     1      43.187 -18.163   4.174  1.00  0.00     0.043 A 
HETATM   27  H   UNL     1      43.295 -13.898   1.850  1.00  0.00     0.165 HD
HETATM   28  C   UNL     1      43.436 -13.551   3.932  1.00  0.00     0.106 A 
HETATM   29  F   UNL     1      43.363 -17.254   6.330  1.00  0.00    -0.205 F 
ENDBRANCH   2  19
TORSDOF 3
ENDMDL
