MODEL 1
REMARK VINA RESULT:      -9.2      0.000      0.000
REMARK  5 active torsions:
REMARK  status: ('A' for Active; 'I' for Inactive)
REMARK    1  A    between atoms: C_4  and  N_5 
REMARK    2  A    between atoms: N_8  and  C_10 
REMARK    3  A    between atoms: N_13  and  C_15 
REMARK    4  A    between atoms: C_15  and  C_16 
REMARK    5  A    between atoms: C_17  and  O_18 
ROOT
HETATM    1  C   UNL     1      41.191 -14.916   4.517  1.00  0.00     0.191 C 
HETATM    2  C   UNL     1      41.782 -13.518   4.735  1.00  0.00     0.061 C 
HETATM    3  C   UNL     1      43.160 -13.469   5.396  1.00  0.00     0.237 C 
HETATM    4  N   UNL     1      43.308 -14.438   6.533  1.00  0.00    -0.067 N 
HETATM    5  H   UNL     1      42.834 -14.052   7.374  1.00  0.00     0.280 HD
HETATM    6  C   UNL     1      42.761 -15.819   6.300  1.00  0.00     0.237 C 
HETATM    7  C   UNL     1      41.334 -15.731   5.803  1.00  0.00     0.061 C 
ENDROOT
BRANCH   1   8
HETATM    8  N   UNL     1      41.666 -15.620   3.232  1.00  0.00    -0.064 N 
HETATM    9  C   UNL     1      43.182 -15.752   2.972  1.00  0.00     0.255 C 
HETATM   10  C   UNL     1      43.488 -16.469   1.639  1.00  0.00     0.150 C 
HETATM   11  N   UNL     1      42.826 -17.784   1.638  1.00  0.00    -0.378 N 
HETATM   12  C   UNL     1      41.358 -17.634   1.631  1.00  0.00     0.150 C 
HETATM   13  C   UNL     1      40.896 -16.951   2.937  1.00  0.00     0.255 C 
HETATM   14  H   UNL     1      41.353 -15.010   2.460  1.00  0.00     0.280 HD
BRANCH  11  15
HETATM   15  C   UNL     1      43.429 -18.816   2.378  1.00  0.00     0.030 A 
HETATM   16  C   UNL     1      43.885 -18.649   3.698  1.00  0.00     0.029 A 
HETATM   17  C   UNL     1      44.532 -19.676   4.402  1.00  0.00     0.002 A 
HETATM   18  C   UNL     1      44.713 -20.920   3.815  1.00  0.00     0.000 A 
HETATM   19  C   UNL     1      44.220 -21.143   2.538  1.00  0.00     0.002 A 
HETATM   20  C   UNL     1      43.578 -20.109   1.842  1.00  0.00     0.029 A 
ENDBRANCH  11  15
ENDBRANCH   1   8
BRANCH   4  21
HETATM   21  C   UNL     1      44.771 -14.479   7.005  1.00  0.00     0.276 C 
BRANCH  21  22
HETATM   22  C   UNL     1      45.160 -13.323   7.878  1.00  0.00     0.002 A 
HETATM   23  C   UNL     1      46.320 -12.586   7.614  1.00  0.00     0.073 A 
HETATM   24  C   UNL     1      46.684 -11.502   8.410  1.00  0.00     0.038 A 
HETATM   25  C   UNL     1      45.869 -11.133   9.482  1.00  0.00     0.022 A 
HETATM   26  C   UNL     1      44.707 -11.852   9.750  1.00  0.00     0.011 A 
HETATM   27 BR   UNL     1      43.582 -11.332  11.176  1.00  0.00    -0.051 Br
HETATM   28  C   UNL     1      44.352 -12.946   8.962  1.00  0.00     0.030 A 
BRANCH  23  29
HETATM   29  O   UNL     1      47.065 -12.934   6.521  1.00  0.00    -0.360 OA
HETATM   30  H   UNL     1      46.908 -12.255   5.829  1.00  0.00     0.217 HD
ENDBRANCH  23  29
ENDBRANCH  21  22
ENDBRANCH   4  21
TORSDOF 5
ENDMDL
MODEL 2
REMARK VINA RESULT:      -8.7      4.781      7.526
REMARK  5 active torsions:
REMARK  status: ('A' for Active; 'I' for Inactive)
REMARK    1  A    between atoms: C_4  and  N_5 
REMARK    2  A    between atoms: N_8  and  C_10 
REMARK    3  A    between atoms: N_13  and  C_15 
REMARK    4  A    between atoms: C_15  and  C_16 
REMARK    5  A    between atoms: C_17  and  O_18 
ROOT
HETATM    1  C   UNL     1      39.498 -15.014   2.592  1.00  0.00     0.191 C 
HETATM    2  C   UNL     1      40.353 -14.694   3.825  1.00  0.00     0.061 C 
HETATM    3  C   UNL     1      41.815 -15.139   3.760  1.00  0.00     0.237 C 
HETATM    4  N   UNL     1      41.993 -16.506   3.165  1.00  0.00    -0.067 N 
HETATM    5  H   UNL     1      41.751 -17.223   3.879  1.00  0.00     0.280 HD
HETATM    6  C   UNL     1      41.180 -16.802   1.935  1.00  0.00     0.237 C 
HETATM    7  C   UNL     1      39.725 -16.470   2.185  1.00  0.00     0.061 C 
ENDROOT
BRANCH   1   8
HETATM    8  N   UNL     1      39.606 -13.985   1.451  1.00  0.00    -0.064 N 
HETATM    9  C   UNL     1      40.741 -14.136   0.417  1.00  0.00     0.255 C 
HETATM   10  C   UNL     1      40.715 -13.019  -0.650  1.00  0.00     0.150 C 
HETATM   11  N   UNL     1      39.394 -13.006  -1.299  1.00  0.00    -0.378 N 
HETATM   12  C   UNL     1      38.342 -12.609  -0.344  1.00  0.00     0.150 C 
HETATM   13  C   UNL     1      38.229 -13.664   0.778  1.00  0.00     0.255 C 
HETATM   14  H   UNL     1      39.836 -13.092   1.916  1.00  0.00     0.280 HD
BRANCH  11  15
HETATM   15  C   UNL     1      39.135 -13.993  -2.267  1.00  0.00     0.030 A 
HETATM   16  C   UNL     1      37.868 -14.193  -2.840  1.00  0.00     0.029 A 
HETATM   17  C   UNL     1      37.618 -15.218  -3.766  1.00  0.00     0.002 A 
HETATM   18  C   UNL     1      38.644 -16.057  -4.174  1.00  0.00     0.000 A 
HETATM   19  C   UNL     1      39.923 -15.851  -3.680  1.00  0.00     0.002 A 
HETATM   20  C   UNL     1      40.161 -14.826  -2.752  1.00  0.00     0.029 A 
ENDBRANCH  11  15
ENDBRANCH   1   8
BRANCH   4  21
HETATM   21  C   UNL     1      43.486 -16.795   2.942  1.00  0.00     0.276 C 
BRANCH  21  22
HETATM   22  C   UNL     1      43.930 -18.131   3.460  1.00  0.00     0.002 A 
HETATM   23  C   UNL     1      44.251 -18.305   4.811  1.00  0.00     0.073 A 
HETATM   24  C   UNL     1      44.651 -19.544   5.305  1.00  0.00     0.038 A 
HETATM   25  C   UNL     1      44.719 -20.639   4.441  1.00  0.00     0.022 A 
HETATM   26  C   UNL     1      44.392 -20.483   3.096  1.00  0.00     0.011 A 
HETATM   27 BR   UNL     1      44.445 -21.970   1.932  1.00  0.00    -0.051 Br
HETATM   28  C   UNL     1      44.006 -19.237   2.600  1.00  0.00     0.030 A 
BRANCH  23  29
HETATM   29  O   UNL     1      44.117 -17.228   5.645  1.00  0.00    -0.360 OA
HETATM   30  H   UNL     1      44.909 -17.204   6.225  1.00  0.00     0.217 HD
ENDBRANCH  23  29
ENDBRANCH  21  22
ENDBRANCH   4  21
TORSDOF 5
ENDMDL
MODEL 3
REMARK VINA RESULT:      -8.5      4.265      6.590
REMARK  5 active torsions:
REMARK  status: ('A' for Active; 'I' for Inactive)
REMARK    1  A    between atoms: C_4  and  N_5 
REMARK    2  A    between atoms: N_8  and  C_10 
REMARK    3  A    between atoms: N_13  and  C_15 
REMARK    4  A    between atoms: C_15  and  C_16 
REMARK    5  A    between atoms: C_17  and  O_18 
ROOT
HETATM    1  C   UNL     1      43.268 -13.874   5.050  1.00  0.00     0.191 C 
HETATM    2  C   UNL     1      42.377 -12.638   5.225  1.00  0.00     0.061 C 
HETATM    3  C   UNL     1      41.407 -12.344   4.079  1.00  0.00     0.237 C 
HETATM    4  N   UNL     1      42.017 -12.537   2.721  1.00  0.00    -0.067 N 
HETATM    5  H   UNL     1      42.614 -11.715   2.496  1.00  0.00     0.280 HD
HETATM    6  C   UNL     1      42.860 -13.769   2.544  1.00  0.00     0.237 C 
HETATM    7  C   UNL     1      43.887 -13.856   3.652  1.00  0.00     0.061 C 
ENDROOT
BRANCH   1   8
HETATM    8  N   UNL     1      42.610 -15.203   5.464  1.00  0.00    -0.064 N 
HETATM    9  C   UNL     1      41.814 -16.001   4.410  1.00  0.00     0.255 C 
HETATM   10  C   UNL     1      41.210 -17.299   4.990  1.00  0.00     0.150 C 
HETATM   11  N   UNL     1      42.289 -18.111   5.576  1.00  0.00    -0.378 N 
HETATM   12  C   UNL     1      42.876 -17.437   6.751  1.00  0.00     0.150 C 
HETATM   13  C   UNL     1      43.554 -16.120   6.314  1.00  0.00     0.255 C 
HETATM   14  H   UNL     1      41.884 -14.941   6.150  1.00  0.00     0.280 HD
BRANCH  11  15
HETATM   15  C   UNL     1      43.109 -18.837   4.694  1.00  0.00     0.030 A 
HETATM   16  C   UNL     1      44.149 -19.677   5.128  1.00  0.00     0.029 A 
HETATM   17  C   UNL     1      44.990 -20.352   4.230  1.00  0.00     0.002 A 
HETATM   18  C   UNL     1      44.792 -20.234   2.862  1.00  0.00     0.000 A 
HETATM   19  C   UNL     1      43.735 -19.466   2.396  1.00  0.00     0.002 A 
HETATM   20  C   UNL     1      42.903 -18.792   3.302  1.00  0.00     0.029 A 
ENDBRANCH  11  15
ENDBRANCH   1   8
BRANCH   4  21
HETATM   21  C   UNL     1      40.935 -12.428   1.635  1.00  0.00     0.276 C 
BRANCH  21  22
HETATM   22  C   UNL     1      41.456 -12.600   0.239  1.00  0.00     0.002 A 
HETATM   23  C   UNL     1      42.392 -11.705  -0.291  1.00  0.00     0.073 A 
HETATM   24  C   UNL     1      42.893 -11.862  -1.581  1.00  0.00     0.038 A 
HETATM   25  C   UNL     1      42.466 -12.941  -2.357  1.00  0.00     0.022 A 
HETATM   26  C   UNL     1      41.541 -13.846  -1.839  1.00  0.00     0.011 A 
HETATM   27 BR   UNL     1      40.990 -15.329  -2.870  1.00  0.00    -0.051 Br
HETATM   28  C   UNL     1      41.029 -13.678  -0.552  1.00  0.00     0.030 A 
BRANCH  23  29
HETATM   29  O   UNL     1      42.837 -10.692   0.515  1.00  0.00    -0.360 OA
HETATM   30  H   UNL     1      43.548 -10.219   0.029  1.00  0.00     0.217 HD
ENDBRANCH  23  29
ENDBRANCH  21  22
ENDBRANCH   4  21
TORSDOF 5
ENDMDL
MODEL 4
REMARK VINA RESULT:      -8.5      5.156      8.185
REMARK  5 active torsions:
REMARK  status: ('A' for Active; 'I' for Inactive)
REMARK    1  A    between atoms: C_4  and  N_5 
REMARK    2  A    between atoms: N_8  and  C_10 
REMARK    3  A    between atoms: N_13  and  C_15 
REMARK    4  A    between atoms: C_15  and  C_16 
REMARK    5  A    between atoms: C_17  and  O_18 
ROOT
HETATM    1  C   UNL     1      40.455 -14.885   1.109  1.00  0.00     0.191 C 
HETATM    2  C   UNL     1      41.985 -14.821   1.200  1.00  0.00     0.061 C 
HETATM    3  C   UNL     1      42.716 -16.162   1.125  1.00  0.00     0.237 C 
HETATM    4  N   UNL     1      42.048 -17.248   1.918  1.00  0.00    -0.067 N 
HETATM    5  H   UNL     1      42.272 -17.122   2.925  1.00  0.00     0.280 HD
HETATM    6  C   UNL     1      40.552 -17.330   1.795  1.00  0.00     0.237 C 
HETATM    7  C   UNL     1      39.938 -15.971   2.052  1.00  0.00     0.061 C 
ENDROOT
BRANCH   1   8
HETATM    8  N   UNL     1      39.900 -14.938  -0.327  1.00  0.00    -0.064 N 
HETATM    9  C   UNL     1      38.961 -13.811  -0.805  1.00  0.00     0.255 C 
HETATM   10  C   UNL     1      38.485 -14.021  -2.259  1.00  0.00     0.150 C 
HETATM   11  N   UNL     1      39.660 -14.148  -3.136  1.00  0.00    -0.378 N 
HETATM   12  C   UNL     1      40.414 -15.378  -2.829  1.00  0.00     0.150 C 
HETATM   13  C   UNL     1      40.986 -15.298  -1.396  1.00  0.00     0.255 C 
HETATM   14  H   UNL     1      39.289 -15.771  -0.348  1.00  0.00     0.280 HD
BRANCH  11  15
HETATM   15  C   UNL     1      40.341 -12.969  -3.485  1.00  0.00     0.030 A 
HETATM   16  C   UNL     1      41.743 -12.881  -3.546  1.00  0.00     0.029 A 
HETATM   17  C   UNL     1      42.405 -11.680  -3.845  1.00  0.00     0.002 A 
HETATM   18  C   UNL     1      41.679 -10.533  -4.129  1.00  0.00     0.000 A 
HETATM   19  C   UNL     1      40.294 -10.595  -4.142  1.00  0.00     0.002 A 
HETATM   20  C   UNL     1      39.642 -11.799  -3.838  1.00  0.00     0.029 A 
ENDBRANCH  11  15
ENDBRANCH   1   8
BRANCH   4  21
HETATM   21  C   UNL     1      42.717 -18.602   1.628  1.00  0.00     0.276 C 
BRANCH  21  22
HETATM   22  C   UNL     1      43.489 -19.159   2.787  1.00  0.00     0.002 A 
HETATM   23  C   UNL     1      44.015 -20.454   2.740  1.00  0.00     0.073 A 
HETATM   24  C   UNL     1      44.745 -20.977   3.805  1.00  0.00     0.038 A 
HETATM   25  C   UNL     1      44.972 -20.188   4.935  1.00  0.00     0.022 A 
HETATM   26  C   UNL     1      44.463 -18.893   4.990  1.00  0.00     0.011 A 
HETATM   27 BR   UNL     1      44.800 -17.809   6.501  1.00  0.00    -0.051 Br
HETATM   28  C   UNL     1      43.719 -18.377   3.929  1.00  0.00     0.030 A 
BRANCH  23  29
HETATM   29  O   UNL     1      43.828 -21.181   1.595  1.00  0.00    -0.360 OA
HETATM   30  H   UNL     1      43.603 -20.548   0.878  1.00  0.00     0.217 HD
ENDBRANCH  23  29
ENDBRANCH  21  22
ENDBRANCH   4  21
TORSDOF 5
ENDMDL
MODEL 5
REMARK VINA RESULT:      -8.2      4.129      6.803
REMARK  5 active torsions:
REMARK  status: ('A' for Active; 'I' for Inactive)
REMARK    1  A    between atoms: C_4  and  N_5 
REMARK    2  A    between atoms: N_8  and  C_10 
REMARK    3  A    between atoms: N_13  and  C_15 
REMARK    4  A    between atoms: C_15  and  C_16 
REMARK    5  A    between atoms: C_17  and  O_18 
ROOT
HETATM    1  C   UNL     1      42.683 -13.525   5.344  1.00  0.00     0.191 C 
HETATM    2  C   UNL     1      41.426 -12.776   4.884  1.00  0.00     0.061 C 
HETATM    3  C   UNL     1      40.797 -13.263   3.579  1.00  0.00     0.237 C 
HETATM    4  N   UNL     1      41.807 -13.581   2.515  1.00  0.00    -0.067 N 
HETATM    5  H   UNL     1      42.140 -12.694   2.085  1.00  0.00     0.280 HD
HETATM    6  C   UNL     1      43.020 -14.347   2.963  1.00  0.00     0.237 C 
HETATM    7  C   UNL     1      43.644 -13.670   4.164  1.00  0.00     0.061 C 
ENDROOT
BRANCH   1   8
HETATM    8  N   UNL     1      42.407 -14.818   6.134  1.00  0.00    -0.064 N 
HETATM    9  C   UNL     1      41.441 -15.863   5.538  1.00  0.00     0.255 C 
HETATM   10  C   UNL     1      41.264 -17.091   6.458  1.00  0.00     0.150 C 
HETATM   11  N   UNL     1      42.585 -17.677   6.735  1.00  0.00    -0.378 N 
HETATM   12  C   UNL     1      43.414 -16.753   7.532  1.00  0.00     0.150 C 
HETATM   13  C   UNL     1      43.704 -15.474   6.716  1.00  0.00     0.255 C 
HETATM   14  H   UNL     1      41.914 -14.511   6.988  1.00  0.00     0.280 HD
BRANCH  11  15
HETATM   15  C   UNL     1      43.171 -18.465   5.729  1.00  0.00     0.030 A 
HETATM   16  C   UNL     1      44.095 -19.489   5.995  1.00  0.00     0.029 A 
HETATM   17  C   UNL     1      44.709 -20.229   4.972  1.00  0.00     0.002 A 
HETATM   18  C   UNL     1      44.388 -19.987   3.645  1.00  0.00     0.000 A 
HETATM   19  C   UNL     1      43.432 -19.028   3.345  1.00  0.00     0.002 A 
HETATM   20  C   UNL     1      42.828 -18.292   4.374  1.00  0.00     0.029 A 
ENDBRANCH  11  15
ENDBRANCH   1   8
BRANCH   4  21
HETATM   21  C   UNL     1      41.120 -14.256   1.317  1.00  0.00     0.276 C 
BRANCH  21  22
HETATM   22  C   UNL     1      41.532 -13.699  -0.014  1.00  0.00     0.002 A 
HETATM   23  C   UNL     1      41.290 -14.411  -1.193  1.00  0.00     0.073 A 
HETATM   24  C   UNL     1      41.657 -13.898  -2.435  1.00  0.00     0.038 A 
HETATM   25  C   UNL     1      42.263 -12.643  -2.508  1.00  0.00     0.022 A 
HETATM   26  C   UNL     1      42.501 -11.919  -1.342  1.00  0.00     0.011 A 
HETATM   27 BR   UNL     1      43.286 -10.203  -1.439  1.00  0.00    -0.051 Br
HETATM   28  C   UNL     1      42.147 -12.441  -0.098  1.00  0.00     0.030 A 
BRANCH  23  29
HETATM   29  O   UNL     1      40.640 -15.612  -1.095  1.00  0.00    -0.360 OA
HETATM   30  H   UNL     1      40.902 -16.153  -1.871  1.00  0.00     0.217 HD
ENDBRANCH  23  29
ENDBRANCH  21  22
ENDBRANCH   4  21
TORSDOF 5
ENDMDL
MODEL 6
REMARK VINA RESULT:      -8.1      4.032      6.633
REMARK  5 active torsions:
REMARK  status: ('A' for Active; 'I' for Inactive)
REMARK    1  A    between atoms: C_4  and  N_5 
REMARK    2  A    between atoms: N_8  and  C_10 
REMARK    3  A    between atoms: N_13  and  C_15 
REMARK    4  A    between atoms: C_15  and  C_16 
REMARK    5  A    between atoms: C_17  and  O_18 
ROOT
HETATM    1  C   UNL     1      42.518 -15.599   6.339  1.00  0.00     0.191 C 
HETATM    2  C   UNL     1      41.012 -15.841   6.179  1.00  0.00     0.061 C 
HETATM    3  C   UNL     1      40.562 -16.380   4.820  1.00  0.00     0.237 C 
HETATM    4  N   UNL     1      41.256 -15.725   3.662  1.00  0.00    -0.067 N 
HETATM    5  H   UNL     1      40.830 -14.792   3.492  1.00  0.00     0.280 HD
HETATM    6  C   UNL     1      42.739 -15.523   3.809  1.00  0.00     0.237 C 
HETATM    7  C   UNL     1      43.039 -14.834   5.122  1.00  0.00     0.061 C 
ENDROOT
BRANCH   1   8
HETATM    8  N   UNL     1      43.330 -16.847   6.733  1.00  0.00    -0.064 N 
HETATM    9  C   UNL     1      42.627 -18.221   6.745  1.00  0.00     0.255 C 
HETATM   10  C   UNL     1      43.576 -19.362   7.172  1.00  0.00     0.150 C 
HETATM   11  N   UNL     1      44.750 -19.368   6.285  1.00  0.00    -0.378 N 
HETATM   12  C   UNL     1      45.557 -18.147   6.472  1.00  0.00     0.150 C 
HETATM   13  C   UNL     1      44.737 -16.908   6.049  1.00  0.00     0.255 C 
HETATM   14  H   UNL     1      43.575 -16.706   7.726  1.00  0.00     0.280 HD
BRANCH  11  15
HETATM   15  C   UNL     1      44.593 -19.923   5.003  1.00  0.00     0.030 A 
HETATM   16  C   UNL     1      44.240 -19.162   3.875  1.00  0.00     0.029 A 
HETATM   17  C   UNL     1      44.036 -19.743   2.614  1.00  0.00     0.002 A 
HETATM   18  C   UNL     1      44.215 -21.107   2.435  1.00  0.00     0.000 A 
HETATM   19  C   UNL     1      44.626 -21.882   3.509  1.00  0.00     0.002 A 
HETATM   20  C   UNL     1      44.823 -21.292   4.766  1.00  0.00     0.029 A 
ENDBRANCH  11  15
ENDBRANCH   1   8
BRANCH   4  21
HETATM   21  C   UNL     1      40.909 -16.456   2.355  1.00  0.00     0.276 C 
BRANCH  21  22
HETATM   22  C   UNL     1      40.463 -15.546   1.249  1.00  0.00     0.002 A 
HETATM   23  C   UNL     1      41.164 -15.492   0.040  1.00  0.00     0.073 A 
HETATM   24  C   UNL     1      40.751 -14.660  -0.998  1.00  0.00     0.038 A 
HETATM   25  C   UNL     1      39.606 -13.877  -0.837  1.00  0.00     0.022 A 
HETATM   26  C   UNL     1      38.893 -13.929   0.358  1.00  0.00     0.011 A 
HETATM   27 BR   UNL     1      37.322 -12.899   0.567  1.00  0.00    -0.051 Br
HETATM   28  C   UNL     1      39.317 -14.750   1.403  1.00  0.00     0.030 A 
BRANCH  23  29
HETATM   29  O   UNL     1      42.246 -16.316  -0.111  1.00  0.00    -0.360 OA
HETATM   30  H   UNL     1      42.764 -16.277   0.722  1.00  0.00     0.217 HD
ENDBRANCH  23  29
ENDBRANCH  21  22
ENDBRANCH   4  21
TORSDOF 5
ENDMDL
MODEL 7
REMARK VINA RESULT:      -8.0      5.350      8.561
REMARK  5 active torsions:
REMARK  status: ('A' for Active; 'I' for Inactive)
REMARK    1  A    between atoms: C_4  and  N_5 
REMARK    2  A    between atoms: N_8  and  C_10 
REMARK    3  A    between atoms: N_13  and  C_15 
REMARK    4  A    between atoms: C_15  and  C_16 
REMARK    5  A    between atoms: C_17  and  O_18 
ROOT
HETATM    1  C   UNL     1      39.603 -13.529   2.999  1.00  0.00     0.191 C 
HETATM    2  C   UNL     1      39.041 -14.597   2.053  1.00  0.00     0.061 C 
HETATM    3  C   UNL     1      39.576 -14.570   0.620  1.00  0.00     0.237 C 
HETATM    4  N   UNL     1      39.699 -13.183   0.058  1.00  0.00    -0.067 N 
HETATM    5  H   UNL     1      38.759 -12.847  -0.231  1.00  0.00     0.280 HD
HETATM    6  C   UNL     1      40.285 -12.148   0.978  1.00  0.00     0.237 C 
HETATM    7  C   UNL     1      39.560 -12.167   2.306  1.00  0.00     0.061 C 
ENDROOT
BRANCH   1   8
HETATM    8  N   UNL     1      40.948 -13.895   3.653  1.00  0.00    -0.064 N 
HETATM    9  C   UNL     1      41.021 -15.141   4.560  1.00  0.00     0.255 C 
HETATM   10  C   UNL     1      42.434 -15.359   5.146  1.00  0.00     0.150 C 
HETATM   11  N   UNL     1      43.404 -15.441   4.041  1.00  0.00    -0.378 N 
HETATM   12  C   UNL     1      43.508 -14.149   3.336  1.00  0.00     0.150 C 
HETATM   13  C   UNL     1      42.159 -13.810   2.664  1.00  0.00     0.255 C 
HETATM   14  H   UNL     1      41.147 -13.122   4.309  1.00  0.00     0.280 HD
BRANCH  11  15
HETATM   15  C   UNL     1      43.470 -16.647   3.323  1.00  0.00     0.030 A 
HETATM   16  C   UNL     1      43.341 -17.910   3.927  1.00  0.00     0.029 A 
HETATM   17  C   UNL     1      43.463 -19.104   3.200  1.00  0.00     0.002 A 
HETATM   18  C   UNL     1      43.686 -19.070   1.831  1.00  0.00     0.000 A 
HETATM   19  C   UNL     1      43.756 -17.843   1.188  1.00  0.00     0.002 A 
HETATM   20  C   UNL     1      43.637 -16.656   1.924  1.00  0.00     0.029 A 
ENDBRANCH  11  15
ENDBRANCH   1   8
BRANCH   4  21
HETATM   21  C   UNL     1      40.432 -13.223  -1.292  1.00  0.00     0.276 C 
BRANCH  21  22
HETATM   22  C   UNL     1      39.792 -14.127  -2.304  1.00  0.00     0.002 A 
HETATM   23  C   UNL     1      40.422 -15.309  -2.708  1.00  0.00     0.073 A 
HETATM   24  C   UNL     1      39.831 -16.162  -3.636  1.00  0.00     0.038 A 
HETATM   25  C   UNL     1      38.579 -15.842  -4.164  1.00  0.00     0.022 A 
HETATM   26  C   UNL     1      37.936 -14.673  -3.763  1.00  0.00     0.011 A 
HETATM   27 BR   UNL     1      36.224 -14.255  -4.445  1.00  0.00    -0.051 Br
HETATM   28  C   UNL     1      38.536 -13.812  -2.845  1.00  0.00     0.030 A 
BRANCH  23  29
HETATM   29  O   UNL     1      41.621 -15.626  -2.128  1.00  0.00    -0.360 OA
HETATM   30  H   UNL     1      42.303 -15.040  -2.521  1.00  0.00     0.217 HD
ENDBRANCH  23  29
ENDBRANCH  21  22
ENDBRANCH   4  21
TORSDOF 5
ENDMDL
MODEL 8
REMARK VINA RESULT:      -8.0      5.224      7.823
REMARK  5 active torsions:
REMARK  status: ('A' for Active; 'I' for Inactive)
REMARK    1  A    between atoms: C_4  and  N_5 
REMARK    2  A    between atoms: N_8  and  C_10 
REMARK    3  A    between atoms: N_13  and  C_15 
REMARK    4  A    between atoms: C_15  and  C_16 
REMARK    5  A    between atoms: C_17  and  O_18 
ROOT
HETATM    1  C   UNL     1      41.070 -12.410   1.461  1.00  0.00     0.191 C 
HETATM    2  C   UNL     1      42.206 -13.125   2.202  1.00  0.00     0.061 C 
HETATM    3  C   UNL     1      42.175 -14.653   2.163  1.00  0.00     0.237 C 
HETATM    4  N   UNL     1      40.798 -15.223   2.349  1.00  0.00    -0.067 N 
HETATM    5  H   UNL     1      40.549 -15.191   3.358  1.00  0.00     0.280 HD
HETATM    6  C   UNL     1      39.693 -14.542   1.590  1.00  0.00     0.237 C 
HETATM    7  C   UNL     1      39.736 -13.051   1.843  1.00  0.00     0.061 C 
ENDROOT
BRANCH   1   8
HETATM    8  N   UNL     1      41.306 -12.227  -0.051  1.00  0.00    -0.064 N 
HETATM    9  C   UNL     1      41.926 -13.390  -0.854  1.00  0.00     0.255 C 
HETATM   10  C   UNL     1      42.106 -13.040  -2.348  1.00  0.00     0.150 C 
HETATM   11  N   UNL     1      40.806 -12.634  -2.906  1.00  0.00    -0.378 N 
HETATM   12  C   UNL     1      40.345 -11.371  -2.300  1.00  0.00     0.150 C 
HETATM   13  C   UNL     1      40.088 -11.578  -0.791  1.00  0.00     0.255 C 
HETATM   14  H   UNL     1      42.025 -11.489  -0.123  1.00  0.00     0.280 HD
BRANCH  11  15
HETATM   15  C   UNL     1      39.885 -13.651  -3.213  1.00  0.00     0.030 A 
HETATM   16  C   UNL     1      40.269 -14.963  -3.539  1.00  0.00     0.029 A 
HETATM   17  C   UNL     1      39.336 -15.950  -3.894  1.00  0.00     0.002 A 
HETATM   18  C   UNL     1      37.980 -15.660  -3.900  1.00  0.00     0.000 A 
HETATM   19  C   UNL     1      37.557 -14.394  -3.523  1.00  0.00     0.002 A 
HETATM   20  C   UNL     1      38.497 -13.414  -3.174  1.00  0.00     0.029 A 
ENDBRANCH  11  15
ENDBRANCH   1   8
BRANCH   4  21
HETATM   21  C   UNL     1      40.814 -16.739   2.090  1.00  0.00     0.276 C 
BRANCH  21  22
HETATM   22  C   UNL     1      41.678 -17.508   3.045  1.00  0.00     0.002 A 
HETATM   23  C   UNL     1      41.499 -17.389   4.427  1.00  0.00     0.073 A 
HETATM   24  C   UNL     1      42.286 -18.109   5.323  1.00  0.00     0.038 A 
HETATM   25  C   UNL     1      43.262 -18.979   4.834  1.00  0.00     0.022 A 
HETATM   26  C   UNL     1      43.445 -19.115   3.460  1.00  0.00     0.011 A 
HETATM   27 BR   UNL     1      44.738 -20.320   2.793  1.00  0.00    -0.051 Br
HETATM   28  C   UNL     1      42.666 -18.382   2.565  1.00  0.00     0.030 A 
BRANCH  23  29
HETATM   29  O   UNL     1      40.494 -16.575   4.876  1.00  0.00    -0.360 OA
HETATM   30  H   UNL     1      39.644 -16.961   4.569  1.00  0.00     0.217 HD
ENDBRANCH  23  29
ENDBRANCH  21  22
ENDBRANCH   4  21
TORSDOF 5
ENDMDL
MODEL 9
REMARK VINA RESULT:      -8.0      4.595      7.481
REMARK  5 active torsions:
REMARK  status: ('A' for Active; 'I' for Inactive)
REMARK    1  A    between atoms: C_4  and  N_5 
REMARK    2  A    between atoms: N_8  and  C_10 
REMARK    3  A    between atoms: N_13  and  C_15 
REMARK    4  A    between atoms: C_15  and  C_16 
REMARK    5  A    between atoms: C_17  and  O_18 
ROOT
HETATM    1  C   UNL     1      40.649 -14.316   2.299  1.00  0.00     0.191 C 
HETATM    2  C   UNL     1      41.910 -14.577   3.132  1.00  0.00     0.061 C 
HETATM    3  C   UNL     1      42.707 -15.829   2.764  1.00  0.00     0.237 C 
HETATM    4  N   UNL     1      41.841 -17.021   2.479  1.00  0.00    -0.067 N 
HETATM    5  H   UNL     1      41.514 -17.429   3.378  1.00  0.00     0.280 HD
HETATM    6  C   UNL     1      40.625 -16.767   1.631  1.00  0.00     0.237 C 
HETATM    7  C   UNL     1      39.836 -15.606   2.195  1.00  0.00     0.061 C 
ENDROOT
BRANCH   1   8
HETATM    8  N   UNL     1      40.899 -13.584   0.967  1.00  0.00    -0.064 N 
HETATM    9  C   UNL     1      41.664 -14.318  -0.154  1.00  0.00     0.255 C 
HETATM   10  C   UNL     1      41.841 -13.443  -1.415  1.00  0.00     0.150 C 
HETATM   11  N   UNL     1      40.518 -12.990  -1.874  1.00  0.00    -0.378 N 
HETATM   12  C   UNL     1      39.904 -12.076  -0.891  1.00  0.00     0.150 C 
HETATM   13  C   UNL     1      39.636 -12.832   0.429  1.00  0.00     0.255 C 
HETATM   14  H   UNL     1      41.534 -12.804   1.204  1.00  0.00     0.280 HD
BRANCH  11  15
HETATM   15  C   UNL     1      39.722 -13.912  -2.576  1.00  0.00     0.030 A 
HETATM   16  C   UNL     1      38.326 -13.793  -2.689  1.00  0.00     0.029 A 
HETATM   17  C   UNL     1      37.544 -14.753  -3.349  1.00  0.00     0.002 A 
HETATM   18  C   UNL     1      38.143 -15.851  -3.950  1.00  0.00     0.000 A 
HETATM   19  C   UNL     1      39.524 -15.970  -3.916  1.00  0.00     0.002 A 
HETATM   20  C   UNL     1      40.296 -15.007  -3.250  1.00  0.00     0.029 A 
ENDBRANCH  11  15
ENDBRANCH   1   8
BRANCH   4  21
HETATM   21  C   UNL     1      42.693 -18.172   1.919  1.00  0.00     0.276 C 
BRANCH  21  22
HETATM   22  C   UNL     1      43.483 -18.906   2.962  1.00  0.00     0.002 A 
HETATM   23  C   UNL     1      43.955 -20.201   2.721  1.00  0.00     0.073 A 
HETATM   24  C   UNL     1      44.701 -20.887   3.677  1.00  0.00     0.038 A 
HETATM   25  C   UNL     1      44.997 -20.267   4.892  1.00  0.00     0.022 A 
HETATM   26  C   UNL     1      44.542 -18.974   5.141  1.00  0.00     0.011 A 
HETATM   27 BR   UNL     1      44.974 -18.116   6.768  1.00  0.00    -0.051 Br
HETATM   28  C   UNL     1      43.782 -18.294   4.188  1.00  0.00     0.030 A 
BRANCH  23  29
HETATM   29  O   UNL     1      43.701 -20.760   1.498  1.00  0.00    -0.360 OA
HETATM   30  H   UNL     1      44.505 -21.254   1.227  1.00  0.00     0.217 HD
ENDBRANCH  23  29
ENDBRANCH  21  22
ENDBRANCH   4  21
TORSDOF 5
ENDMDL
MODEL 10
REMARK VINA RESULT:      -8.0      4.270      7.049
REMARK  5 active torsions:
REMARK  status: ('A' for Active; 'I' for Inactive)
REMARK    1  A    between atoms: C_4  and  N_5 
REMARK    2  A    between atoms: N_8  and  C_10 
REMARK    3  A    between atoms: N_13  and  C_15 
REMARK    4  A    between atoms: C_15  and  C_16 
REMARK    5  A    between atoms: C_17  and  O_18 
ROOT
HETATM    1  C   UNL     1      42.040 -13.536   5.607  1.00  0.00     0.191 C 
HETATM    2  C   UNL     1      40.535 -13.246   5.660  1.00  0.00     0.061 C 
HETATM    3  C   UNL     1      39.683 -13.936   4.594  1.00  0.00     0.237 C 
HETATM    4  N   UNL     1      40.313 -13.928   3.232  1.00  0.00    -0.067 N 
HETATM    5  H   UNL     1      40.185 -12.990   2.802  1.00  0.00     0.280 HD
HETATM    6  C   UNL     1      41.781 -14.250   3.182  1.00  0.00     0.237 C 
HETATM    7  C   UNL     1      42.534 -13.383   4.168  1.00  0.00     0.061 C 
ENDROOT
BRANCH   1   8
HETATM    8  N   UNL     1      42.469 -14.833   6.318  1.00  0.00    -0.064 N 
HETATM    9  C   UNL     1      41.559 -16.074   6.216  1.00  0.00     0.255 C 
HETATM   10  C   UNL     1      42.125 -17.283   6.994  1.00  0.00     0.150 C 
HETATM   11  N   UNL     1      43.484 -17.572   6.508  1.00  0.00    -0.378 N 
HETATM   12  C   UNL     1      44.408 -16.471   6.843  1.00  0.00     0.150 C 
HETATM   13  C   UNL     1      43.979 -15.185   6.101  1.00  0.00     0.255 C 
HETATM   14  H   UNL     1      42.439 -14.609   7.326  1.00  0.00     0.280 HD
BRANCH  11  15
HETATM   15  C   UNL     1      43.607 -18.250   5.283  1.00  0.00     0.030 A 
HETATM   16  C   UNL     1      42.816 -17.955   4.159  1.00  0.00     0.029 A 
HETATM   17  C   UNL     1      42.916 -18.679   2.961  1.00  0.00     0.002 A 
HETATM   18  C   UNL     1      43.842 -19.706   2.840  1.00  0.00     0.000 A 
HETATM   19  C   UNL     1      44.684 -19.985   3.906  1.00  0.00     0.002 A 
HETATM   20  C   UNL     1      44.573 -19.258   5.099  1.00  0.00     0.029 A 
ENDBRANCH  11  15
ENDBRANCH   1   8
BRANCH   4  21
HETATM   21  C   UNL     1      39.505 -14.814   2.270  1.00  0.00     0.276 C 
BRANCH  21  22
HETATM   22  C   UNL     1      38.927 -14.071   1.101  1.00  0.00     0.002 A 
HETATM   23  C   UNL     1      39.404 -14.295  -0.195  1.00  0.00     0.073 A 
HETATM   24  C   UNL     1      38.866 -13.621  -1.289  1.00  0.00     0.038 A 
HETATM   25  C   UNL     1      37.820 -12.717  -1.092  1.00  0.00     0.022 A 
HETATM   26  C   UNL     1      37.329 -12.492   0.192  1.00  0.00     0.011 A 
HETATM   27 BR   UNL     1      35.888 -11.299   0.458  1.00  0.00    -0.051 Br
HETATM   28  C   UNL     1      37.879 -13.157   1.288  1.00  0.00     0.030 A 
BRANCH  23  29
HETATM   29  O   UNL     1      40.387 -15.231  -0.363  1.00  0.00    -0.360 OA
HETATM   30  H   UNL     1      39.948 -16.089  -0.554  1.00  0.00     0.217 HD
ENDBRANCH  23  29
ENDBRANCH  21  22
ENDBRANCH   4  21
TORSDOF 5
ENDMDL
