MODEL 1
REMARK VINA RESULT:      -9.0      0.000      0.000
REMARK  4 active torsions:
REMARK  status: ('A' for Active; 'I' for Inactive)
REMARK    1  A    between atoms: C_6  and  C_7 
REMARK    2  A    between atoms: C_7  and  N_8 
REMARK    3  A    between atoms: C_11  and  C_12 
REMARK    4  A    between atoms: C_12  and  C_13 
ROOT
HETATM    1  N   UNL     1      40.322 -16.104   3.025  1.00  0.00    -0.064 N 
HETATM    2  H   UNL     1      39.753 -16.897   3.367  1.00  0.00     0.280 HD
HETATM    3  C   UNL     1      41.532 -16.718   2.346  1.00  0.00     0.247 C 
HETATM    4  C   UNL     1      42.319 -17.551   3.363  1.00  0.00     0.086 C 
HETATM    5  C   UNL     1      42.726 -16.679   4.553  1.00  0.00     0.016 C 
HETATM    6  C   UNL     1      41.508 -16.010   5.186  1.00  0.00     0.029 C 
HETATM    7  C   UNL     1      40.694 -15.217   4.174  1.00  0.00     0.235 C 
ENDROOT
BRANCH   1   8
HETATM    8  C   UNL     1      39.387 -15.433   2.031  1.00  0.00     0.313 C 
BRANCH   8   9
HETATM    9  C   UNL     1      40.184 -14.736   0.984  1.00  0.00     0.131 A 
HETATM   10  N   UNL     1      40.883 -13.634   1.188  1.00  0.00    -0.232 NA
HETATM   11  C   UNL     1      41.431 -13.320  -0.035  1.00  0.00     0.085 A 
HETATM   12  C   UNL     1      41.080 -14.269  -0.990  1.00  0.00     0.062 A 
HETATM   13  C   UNL     1      42.236 -12.236  -0.408  1.00  0.00     0.034 A 
HETATM   14  C   UNL     1      41.501 -14.209  -2.319  1.00  0.00     0.032 A 
HETATM   15  N   UNL     1      40.290 -15.165  -0.315  1.00  0.00    -0.341 N 
HETATM   16  C   UNL     1      42.305 -13.120  -2.675  1.00  0.00     0.002 A 
HETATM   17  C   UNL     1      42.667 -12.148  -1.739  1.00  0.00     0.002 A 
HETATM   18  H   UNL     1      39.864 -15.985  -0.728  1.00  0.00     0.167 HD
ENDBRANCH   8   9
ENDBRANCH   1   8
BRANCH   4  19
HETATM   19  C   UNL     1      43.547 -18.110   2.660  1.00  0.00     0.165 C 
HETATM   20  O   UNL     1      44.309 -17.352   2.062  1.00  0.00    -0.292 OA
BRANCH  19  21
HETATM   21  C   UNL     1      43.837 -19.578   2.690  1.00  0.00     0.012 A 
HETATM   22  C   UNL     1      44.335 -20.123   3.882  1.00  0.00     0.039 A 
HETATM   23  C   UNL     1      44.626 -21.483   3.962  1.00  0.00     0.035 A 
HETATM   24 CL   UNL     1      45.242 -22.141   5.426  1.00  0.00    -0.084 Cl
HETATM   25  C   UNL     1      44.423 -22.315   2.863  1.00  0.00     0.024 A 
HETATM   26  C   UNL     1      43.928 -21.781   1.675  1.00  0.00     0.003 A 
HETATM   27  C   UNL     1      43.637 -20.417   1.585  1.00  0.00     0.015 A 
ENDBRANCH  19  21
ENDBRANCH   4  19
TORSDOF 4
ENDMDL
MODEL 2
REMARK VINA RESULT:      -8.8      1.591      2.123
REMARK  4 active torsions:
REMARK  status: ('A' for Active; 'I' for Inactive)
REMARK    1  A    between atoms: C_6  and  C_7 
REMARK    2  A    between atoms: C_7  and  N_8 
REMARK    3  A    between atoms: C_11  and  C_12 
REMARK    4  A    between atoms: C_12  and  C_13 
ROOT
HETATM    1  N   UNL     1      41.734 -14.887   2.706  1.00  0.00    -0.064 N 
HETATM    2  H   UNL     1      41.084 -15.503   2.188  1.00  0.00     0.280 HD
HETATM    3  C   UNL     1      42.891 -15.769   3.136  1.00  0.00     0.247 C 
HETATM    4  C   UNL     1      42.370 -16.891   4.040  1.00  0.00     0.086 C 
HETATM    5  C   UNL     1      41.639 -16.295   5.246  1.00  0.00     0.016 C 
HETATM    6  C   UNL     1      40.521 -15.355   4.803  1.00  0.00     0.029 C 
HETATM    7  C   UNL     1      41.022 -14.264   3.867  1.00  0.00     0.235 C 
ENDROOT
BRANCH   1   8
HETATM    8  C   UNL     1      42.147 -13.878   1.647  1.00  0.00     0.313 C 
BRANCH   8   9
HETATM    9  C   UNL     1      41.408 -14.145   0.382  1.00  0.00     0.131 A 
HETATM   10  N   UNL     1      40.234 -13.623   0.079  1.00  0.00    -0.232 NA
HETATM   11  C   UNL     1      39.908 -14.152  -1.149  1.00  0.00     0.085 A 
HETATM   12  C   UNL     1      40.919 -14.987  -1.610  1.00  0.00     0.062 A 
HETATM   13  C   UNL     1      38.759 -13.968  -1.931  1.00  0.00     0.034 A 
HETATM   14  C   UNL     1      40.862 -15.654  -2.835  1.00  0.00     0.032 A 
HETATM   15  N   UNL     1      41.869 -14.962  -0.620  1.00  0.00    -0.341 N 
HETATM   16  C   UNL     1      39.709 -15.459  -3.604  1.00  0.00     0.002 A 
HETATM   17  C   UNL     1      38.673 -14.632  -3.162  1.00  0.00     0.002 A 
HETATM   18  H   UNL     1      42.741 -15.473  -0.644  1.00  0.00     0.167 HD
ENDBRANCH   8   9
ENDBRANCH   1   8
BRANCH   4  19
HETATM   19  C   UNL     1      43.561 -17.723   4.489  1.00  0.00     0.165 C 
HETATM   20  O   UNL     1      44.307 -17.300   5.371  1.00  0.00    -0.292 OA
BRANCH  19  21
HETATM   21  C   UNL     1      43.834 -19.056   3.867  1.00  0.00     0.012 A 
HETATM   22  C   UNL     1      44.413 -20.048   4.672  1.00  0.00     0.039 A 
HETATM   23  C   UNL     1      44.691 -21.306   4.141  1.00  0.00     0.035 A 
HETATM   24 CL   UNL     1      45.408 -22.513   5.134  1.00  0.00    -0.084 Cl
HETATM   25  C   UNL     1      44.396 -21.593   2.811  1.00  0.00     0.024 A 
HETATM   26  C   UNL     1      43.820 -20.613   2.005  1.00  0.00     0.003 A 
HETATM   27  C   UNL     1      43.541 -19.347   2.528  1.00  0.00     0.015 A 
ENDBRANCH  19  21
ENDBRANCH   4  19
TORSDOF 4
ENDMDL
MODEL 3
REMARK VINA RESULT:      -8.6      4.762      7.143
REMARK  4 active torsions:
REMARK  status: ('A' for Active; 'I' for Inactive)
REMARK    1  A    between atoms: C_6  and  C_7 
REMARK    2  A    between atoms: C_7  and  N_8 
REMARK    3  A    between atoms: C_11  and  C_12 
REMARK    4  A    between atoms: C_12  and  C_13 
ROOT
HETATM    1  N   UNL     1      43.831 -15.233   6.483  1.00  0.00    -0.064 N 
HETATM    2  H   UNL     1      42.989 -14.634   6.437  1.00  0.00     0.280 HD
HETATM    3  C   UNL     1      43.875 -15.995   5.172  1.00  0.00     0.247 C 
HETATM    4  C   UNL     1      42.609 -16.848   5.035  1.00  0.00     0.086 C 
HETATM    5  C   UNL     1      42.484 -17.795   6.232  1.00  0.00     0.016 C 
HETATM    6  C   UNL     1      42.511 -17.023   7.549  1.00  0.00     0.029 C 
HETATM    7  C   UNL     1      43.743 -16.138   7.673  1.00  0.00     0.235 C 
ENDROOT
BRANCH   1   8
HETATM    8  C   UNL     1      44.955 -14.214   6.589  1.00  0.00     0.313 C 
BRANCH   8   9
HETATM    9  C   UNL     1      44.654 -13.246   7.680  1.00  0.00     0.131 A 
HETATM   10  N   UNL     1      45.438 -13.024   8.719  1.00  0.00    -0.232 NA
HETATM   11  C   UNL     1      44.774 -12.092   9.483  1.00  0.00     0.085 A 
HETATM   12  C   UNL     1      43.578 -11.721   8.878  1.00  0.00     0.062 A 
HETATM   13  C   UNL     1      45.129 -11.517  10.711  1.00  0.00     0.034 A 
HETATM   14  C   UNL     1      42.701 -10.784   9.427  1.00  0.00     0.032 A 
HETATM   15  N   UNL     1      43.526 -12.465   7.726  1.00  0.00    -0.341 N 
HETATM   16  C   UNL     1      43.072 -10.219  10.653  1.00  0.00     0.002 A 
HETATM   17  C   UNL     1      44.263 -10.579  11.288  1.00  0.00     0.002 A 
HETATM   18  H   UNL     1      42.773 -12.433   7.052  1.00  0.00     0.167 HD
ENDBRANCH   8   9
ENDBRANCH   1   8
BRANCH   4  19
HETATM   19  C   UNL     1      42.711 -17.632   3.736  1.00  0.00     0.165 C 
HETATM   20  O   UNL     1      42.135 -17.225   2.728  1.00  0.00    -0.292 OA
BRANCH  19  21
HETATM   21  C   UNL     1      43.507 -18.898   3.672  1.00  0.00     0.012 A 
HETATM   22  C   UNL     1      43.332 -19.725   2.554  1.00  0.00     0.039 A 
HETATM   23  C   UNL     1      44.046 -20.917   2.447  1.00  0.00     0.035 A 
HETATM   24 CL   UNL     1      43.819 -21.929   1.075  1.00  0.00    -0.084 Cl
HETATM   25  C   UNL     1      44.941 -21.296   3.444  1.00  0.00     0.024 A 
HETATM   26  C   UNL     1      45.122 -20.479   4.557  1.00  0.00     0.003 A 
HETATM   27  C   UNL     1      44.407 -19.284   4.675  1.00  0.00     0.015 A 
ENDBRANCH  19  21
ENDBRANCH   4  19
TORSDOF 4
ENDMDL
MODEL 4
REMARK VINA RESULT:      -8.5      2.028      2.591
REMARK  4 active torsions:
REMARK  status: ('A' for Active; 'I' for Inactive)
REMARK    1  A    between atoms: C_6  and  C_7 
REMARK    2  A    between atoms: C_7  and  N_8 
REMARK    3  A    between atoms: C_11  and  C_12 
REMARK    4  A    between atoms: C_12  and  C_13 
ROOT
HETATM    1  N   UNL     1      42.207 -15.728   3.482  1.00  0.00    -0.064 N 
HETATM    2  H   UNL     1      41.679 -16.304   2.804  1.00  0.00     0.280 HD
HETATM    3  C   UNL     1      43.415 -16.554   3.883  1.00  0.00     0.247 C 
HETATM    4  C   UNL     1      42.947 -17.861   4.531  1.00  0.00     0.086 C 
HETATM    5  C   UNL     1      42.050 -17.557   5.734  1.00  0.00     0.016 C 
HETATM    6  C   UNL     1      40.875 -16.668   5.334  1.00  0.00     0.029 C 
HETATM    7  C   UNL     1      41.329 -15.387   4.647  1.00  0.00     0.235 C 
ENDROOT
BRANCH   1   8
HETATM    8  C   UNL     1      42.594 -14.514   2.652  1.00  0.00     0.313 C 
BRANCH   8   9
HETATM    9  C   UNL     1      41.858 -14.536   1.358  1.00  0.00     0.131 A 
HETATM   10  N   UNL     1      42.027 -15.446   0.417  1.00  0.00    -0.232 NA
HETATM   11  C   UNL     1      41.183 -15.075  -0.605  1.00  0.00     0.085 A 
HETATM   12  C   UNL     1      40.466 -13.934  -0.261  1.00  0.00     0.062 A 
HETATM   13  C   UNL     1      40.977 -15.663  -1.860  1.00  0.00     0.034 A 
HETATM   14  C   UNL     1      39.528 -13.336  -1.104  1.00  0.00     0.032 A 
HETATM   15  N   UNL     1      40.909 -13.612   0.998  1.00  0.00    -0.341 N 
HETATM   16  C   UNL     1      39.334 -13.936  -2.353  1.00  0.00     0.002 A 
HETATM   17  C   UNL     1      40.047 -15.078  -2.729  1.00  0.00     0.002 A 
HETATM   18  H   UNL     1      40.584 -12.821   1.539  1.00  0.00     0.167 HD
ENDBRANCH   8   9
ENDBRANCH   1   8
BRANCH   4  19
HETATM   19  C   UNL     1      44.181 -18.639   4.962  1.00  0.00     0.165 C 
HETATM   20  O   UNL     1      45.036 -18.095   5.660  1.00  0.00    -0.292 OA
BRANCH  19  21
HETATM   21  C   UNL     1      44.365 -20.064   4.544  1.00  0.00     0.012 A 
HETATM   22  C   UNL     1      44.205 -20.374   3.187  1.00  0.00     0.039 A 
HETATM   23  C   UNL     1      44.362 -21.687   2.746  1.00  0.00     0.035 A 
HETATM   24 CL   UNL     1      44.155 -22.059   1.079  1.00  0.00    -0.084 Cl
HETATM   25  C   UNL     1      44.682 -22.701   3.645  1.00  0.00     0.024 A 
HETATM   26  C   UNL     1      44.845 -22.400   4.995  1.00  0.00     0.003 A 
HETATM   27  C   UNL     1      44.685 -21.087   5.447  1.00  0.00     0.015 A 
ENDBRANCH  19  21
ENDBRANCH   4  19
TORSDOF 4
ENDMDL
MODEL 5
REMARK VINA RESULT:      -8.4      1.735      2.423
REMARK  4 active torsions:
REMARK  status: ('A' for Active; 'I' for Inactive)
REMARK    1  A    between atoms: C_6  and  C_7 
REMARK    2  A    between atoms: C_7  and  N_8 
REMARK    3  A    between atoms: C_11  and  C_12 
REMARK    4  A    between atoms: C_12  and  C_13 
ROOT
HETATM    1  N   UNL     1      41.901 -14.824   2.197  1.00  0.00    -0.064 N 
HETATM    2  H   UNL     1      42.300 -15.118   1.289  1.00  0.00     0.280 HD
HETATM    3  C   UNL     1      42.774 -15.458   3.263  1.00  0.00     0.247 C 
HETATM    4  C   UNL     1      42.727 -16.983   3.120  1.00  0.00     0.086 C 
HETATM    5  C   UNL     1      41.280 -17.474   3.212  1.00  0.00     0.016 C 
HETATM    6  C   UNL     1      40.396 -16.778   2.181  1.00  0.00     0.029 C 
HETATM    7  C   UNL     1      40.471 -15.262   2.286  1.00  0.00     0.235 C 
ENDROOT
BRANCH   1   8
HETATM    8  C   UNL     1      42.061 -13.312   2.152  1.00  0.00     0.313 C 
BRANCH   8   9
HETATM    9  C   UNL     1      42.168 -12.860   0.738  1.00  0.00     0.131 A 
HETATM   10  N   UNL     1      42.541 -11.649   0.367  1.00  0.00    -0.232 NA
HETATM   11  C   UNL     1      42.474 -11.652  -1.007  1.00  0.00     0.085 A 
HETATM   12  C   UNL     1      42.082 -12.901  -1.478  1.00  0.00     0.062 A 
HETATM   13  C   UNL     1      42.730 -10.622  -1.923  1.00  0.00     0.034 A 
HETATM   14  C   UNL     1      41.937 -13.196  -2.834  1.00  0.00     0.032 A 
HETATM   15  N   UNL     1      41.899 -13.656  -0.347  1.00  0.00    -0.341 N 
HETATM   16  C   UNL     1      42.197 -12.157  -3.735  1.00  0.00     0.002 A 
HETATM   17  C   UNL     1      42.584 -10.891  -3.290  1.00  0.00     0.002 A 
HETATM   18  H   UNL     1      41.606 -14.625  -0.341  1.00  0.00     0.167 HD
ENDBRANCH   8   9
ENDBRANCH   1   8
BRANCH   4  19
HETATM   19  C   UNL     1      43.572 -17.585   4.232  1.00  0.00     0.165 C 
HETATM   20  O   UNL     1      43.931 -16.883   5.177  1.00  0.00    -0.292 OA
BRANCH  19  21
HETATM   21  C   UNL     1      43.973 -19.026   4.187  1.00  0.00     0.012 A 
HETATM   22  C   UNL     1      43.930 -19.679   2.948  1.00  0.00     0.039 A 
HETATM   23  C   UNL     1      44.289 -21.023   2.852  1.00  0.00     0.035 A 
HETATM   24 CL   UNL     1      44.225 -21.817   1.328  1.00  0.00    -0.084 Cl
HETATM   25  C   UNL     1      44.698 -21.727   3.981  1.00  0.00     0.024 A 
HETATM   26  C   UNL     1      44.745 -21.084   5.217  1.00  0.00     0.003 A 
HETATM   27  C   UNL     1      44.382 -19.738   5.323  1.00  0.00     0.015 A 
ENDBRANCH  19  21
ENDBRANCH   4  19
TORSDOF 4
ENDMDL
MODEL 6
REMARK VINA RESULT:      -8.3      3.831      7.754
REMARK  4 active torsions:
REMARK  status: ('A' for Active; 'I' for Inactive)
REMARK    1  A    between atoms: C_6  and  C_7 
REMARK    2  A    between atoms: C_7  and  N_8 
REMARK    3  A    between atoms: C_11  and  C_12 
REMARK    4  A    between atoms: C_12  and  C_13 
ROOT
HETATM    1  N   UNL     1      43.928 -16.465   6.124  1.00  0.00    -0.064 N 
HETATM    2  H   UNL     1      44.515 -16.563   5.278  1.00  0.00     0.280 HD
HETATM    3  C   UNL     1      42.508 -16.265   5.628  1.00  0.00     0.247 C 
HETATM    4  C   UNL     1      42.441 -14.996   4.772  1.00  0.00     0.086 C 
HETATM    5  C   UNL     1      42.929 -13.791   5.582  1.00  0.00     0.016 C 
HETATM    6  C   UNL     1      44.331 -14.032   6.135  1.00  0.00     0.029 C 
HETATM    7  C   UNL     1      44.418 -15.315   6.949  1.00  0.00     0.235 C 
ENDROOT
BRANCH   1   8
HETATM    8  C   UNL     1      44.110 -17.811   6.809  1.00  0.00     0.313 C 
BRANCH   8   9
HETATM    9  C   UNL     1      44.250 -18.881   5.783  1.00  0.00     0.131 A 
HETATM   10  N   UNL     1      44.202 -18.677   4.479  1.00  0.00    -0.232 NA
HETATM   11  C   UNL     1      44.344 -19.923   3.911  1.00  0.00     0.085 A 
HETATM   12  C   UNL     1      44.512 -20.895   4.892  1.00  0.00     0.062 A 
HETATM   13  C   UNL     1      44.334 -20.303   2.562  1.00  0.00     0.034 A 
HETATM   14  C   UNL     1      44.688 -22.249   4.604  1.00  0.00     0.032 A 
HETATM   15  N   UNL     1      44.456 -20.206   6.077  1.00  0.00    -0.341 N 
HETATM   16  C   UNL     1      44.677 -22.611   3.252  1.00  0.00     0.002 A 
HETATM   17  C   UNL     1      44.501 -21.657   2.247  1.00  0.00     0.002 A 
HETATM   18  H   UNL     1      44.542 -20.626   6.994  1.00  0.00     0.167 HD
ENDBRANCH   8   9
ENDBRANCH   1   8
BRANCH   4  19
HETATM   19  C   UNL     1      40.998 -14.802   4.334  1.00  0.00     0.165 C 
HETATM   20  O   UNL     1      40.099 -14.788   5.174  1.00  0.00    -0.292 OA
BRANCH  19  21
HETATM   21  C   UNL     1      40.660 -14.627   2.887  1.00  0.00     0.012 A 
HETATM   22  C   UNL     1      39.306 -14.524   2.538  1.00  0.00     0.039 A 
HETATM   23  C   UNL     1      38.937 -14.364   1.204  1.00  0.00     0.035 A 
HETATM   24 CL   UNL     1      37.273 -14.246   0.786  1.00  0.00    -0.084 Cl
HETATM   25  C   UNL     1      39.906 -14.301   0.206  1.00  0.00     0.024 A 
HETATM   26  C   UNL     1      41.253 -14.401   0.544  1.00  0.00     0.003 A 
HETATM   27  C   UNL     1      41.633 -14.566   1.879  1.00  0.00     0.015 A 
ENDBRANCH  19  21
ENDBRANCH   4  19
TORSDOF 4
ENDMDL
MODEL 7
REMARK VINA RESULT:      -8.3      2.629      3.602
REMARK  4 active torsions:
REMARK  status: ('A' for Active; 'I' for Inactive)
REMARK    1  A    between atoms: C_6  and  C_7 
REMARK    2  A    between atoms: C_7  and  N_8 
REMARK    3  A    between atoms: C_11  and  C_12 
REMARK    4  A    between atoms: C_12  and  C_13 
ROOT
HETATM    1  N   UNL     1      41.021 -15.198   0.278  1.00  0.00    -0.064 N 
HETATM    2  H   UNL     1      40.802 -16.133  -0.106  1.00  0.00     0.280 HD
HETATM    3  C   UNL     1      42.193 -15.398   1.221  1.00  0.00     0.247 C 
HETATM    4  C   UNL     1      41.788 -16.362   2.342  1.00  0.00     0.086 C 
HETATM    5  C   UNL     1      40.559 -15.822   3.078  1.00  0.00     0.016 C 
HETATM    6  C   UNL     1      39.409 -15.559   2.110  1.00  0.00     0.029 C 
HETATM    7  C   UNL     1      39.815 -14.639   0.968  1.00  0.00     0.235 C 
ENDROOT
BRANCH   1   8
HETATM    8  C   UNL     1      41.415 -14.417  -0.965  1.00  0.00     0.313 C 
BRANCH   8   9
HETATM    9  C   UNL     1      40.216 -14.194  -1.819  1.00  0.00     0.131 A 
HETATM   10  N   UNL     1      39.744 -13.006  -2.148  1.00  0.00    -0.232 NA
HETATM   11  C   UNL     1      38.626 -13.257  -2.911  1.00  0.00     0.085 A 
HETATM   12  C   UNL     1      38.437 -14.626  -3.072  1.00  0.00     0.062 A 
HETATM   13  C   UNL     1      37.718 -12.365  -3.497  1.00  0.00     0.034 A 
HETATM   14  C   UNL     1      37.384 -15.172  -3.807  1.00  0.00     0.032 A 
HETATM   15  N   UNL     1      39.467 -15.203  -2.372  1.00  0.00    -0.341 N 
HETATM   16  C   UNL     1      36.488 -14.267  -4.387  1.00  0.00     0.002 A 
HETATM   17  C   UNL     1      36.647 -12.888  -4.235  1.00  0.00     0.002 A 
HETATM   18  H   UNL     1      39.620 -16.199  -2.286  1.00  0.00     0.167 HD
ENDBRANCH   8   9
ENDBRANCH   1   8
BRANCH   4  19
HETATM   19  C   UNL     1      42.968 -16.499   3.291  1.00  0.00     0.165 C 
HETATM   20  O   UNL     1      43.440 -15.499   3.832  1.00  0.00    -0.292 OA
BRANCH  19  21
HETATM   21  C   UNL     1      43.562 -17.843   3.575  1.00  0.00     0.012 A 
HETATM   22  C   UNL     1      43.449 -18.831   2.588  1.00  0.00     0.039 A 
HETATM   23  C   UNL     1      43.981 -20.101   2.804  1.00  0.00     0.035 A 
HETATM   24 CL   UNL     1      43.830 -21.309   1.589  1.00  0.00    -0.084 Cl
HETATM   25  C   UNL     1      44.634 -20.399   3.997  1.00  0.00     0.024 A 
HETATM   26  C   UNL     1      44.752 -19.422   4.983  1.00  0.00     0.003 A 
HETATM   27  C   UNL     1      44.217 -18.147   4.777  1.00  0.00     0.015 A 
ENDBRANCH  19  21
ENDBRANCH   4  19
TORSDOF 4
ENDMDL
MODEL 8
REMARK VINA RESULT:      -8.3      5.144      7.872
REMARK  4 active torsions:
REMARK  status: ('A' for Active; 'I' for Inactive)
REMARK    1  A    between atoms: C_6  and  C_7 
REMARK    2  A    between atoms: C_7  and  N_8 
REMARK    3  A    between atoms: C_11  and  C_12 
REMARK    4  A    between atoms: C_12  and  C_13 
ROOT
HETATM    1  N   UNL     1      43.717 -15.256   6.465  1.00  0.00    -0.064 N 
HETATM    2  H   UNL     1      42.851 -14.699   6.560  1.00  0.00     0.280 HD
HETATM    3  C   UNL     1      43.612 -15.970   5.131  1.00  0.00     0.247 C 
HETATM    4  C   UNL     1      42.380 -16.881   5.135  1.00  0.00     0.086 C 
HETATM    5  C   UNL     1      42.466 -17.873   6.297  1.00  0.00     0.016 C 
HETATM    6  C   UNL     1      42.642 -17.147   7.629  1.00  0.00     0.029 C 
HETATM    7  C   UNL     1      43.837 -16.205   7.618  1.00  0.00     0.235 C 
ENDROOT
BRANCH   1   8
HETATM    8  C   UNL     1      44.797 -14.186   6.458  1.00  0.00     0.313 C 
BRANCH   8   9
HETATM    9  C   UNL     1      44.576 -13.241   7.586  1.00  0.00     0.131 A 
HETATM   10  N   UNL     1      45.423 -13.055   8.582  1.00  0.00    -0.232 NA
HETATM   11  C   UNL     1      44.819 -12.132   9.405  1.00  0.00     0.085 A 
HETATM   12  C   UNL     1      43.596 -11.729   8.880  1.00  0.00     0.062 A 
HETATM   13  C   UNL     1      45.254 -11.592  10.624  1.00  0.00     0.034 A 
HETATM   14  C   UNL     1      42.768 -10.792   9.500  1.00  0.00     0.032 A 
HETATM   15  N   UNL     1      43.465 -12.444   7.716  1.00  0.00    -0.341 N 
HETATM   16  C   UNL     1      43.218 -10.263  10.715  1.00  0.00     0.002 A 
HETATM   17  C   UNL     1      44.438 -10.655  11.271  1.00  0.00     0.002 A 
HETATM   18  H   UNL     1      42.675 -12.385   7.088  1.00  0.00     0.167 HD
ENDBRANCH   8   9
ENDBRANCH   1   8
BRANCH   4  19
HETATM   19  C   UNL     1      42.334 -17.614   3.803  1.00  0.00     0.165 C 
HETATM   20  O   UNL     1      42.719 -18.780   3.732  1.00  0.00    -0.292 OA
BRANCH  19  21
HETATM   21  C   UNL     1      41.824 -16.928   2.575  1.00  0.00     0.012 A 
HETATM   22  C   UNL     1      40.642 -16.181   2.685  1.00  0.00     0.039 A 
HETATM   23  C   UNL     1      40.122 -15.526   1.570  1.00  0.00     0.035 A 
HETATM   24 CL   UNL     1      38.668 -14.619   1.714  1.00  0.00    -0.084 Cl
HETATM   25  C   UNL     1      40.770 -15.601   0.340  1.00  0.00     0.024 A 
HETATM   26  C   UNL     1      41.946 -16.340   0.223  1.00  0.00     0.003 A 
HETATM   27  C   UNL     1      42.472 -17.004   1.334  1.00  0.00     0.015 A 
ENDBRANCH  19  21
ENDBRANCH   4  19
TORSDOF 4
ENDMDL
MODEL 9
REMARK VINA RESULT:      -8.1      6.434      9.093
REMARK  4 active torsions:
REMARK  status: ('A' for Active; 'I' for Inactive)
REMARK    1  A    between atoms: C_6  and  C_7 
REMARK    2  A    between atoms: C_7  and  N_8 
REMARK    3  A    between atoms: C_11  and  C_12 
REMARK    4  A    between atoms: C_12  and  C_13 
ROOT
HETATM    1  N   UNL     1      42.914 -12.160   7.789  1.00  0.00    -0.064 N 
HETATM    2  H   UNL     1      42.420 -12.806   8.428  1.00  0.00     0.280 HD
HETATM    3  C   UNL     1      42.544 -12.597   6.384  1.00  0.00     0.247 C 
HETATM    4  C   UNL     1      43.007 -14.040   6.160  1.00  0.00     0.086 C 
HETATM    5  C   UNL     1      44.514 -14.151   6.404  1.00  0.00     0.016 C 
HETATM    6  C   UNL     1      44.884 -13.644   7.796  1.00  0.00     0.029 C 
HETATM    7  C   UNL     1      44.388 -12.227   8.044  1.00  0.00     0.235 C 
ENDROOT
BRANCH   1   8
HETATM    8  C   UNL     1      42.306 -10.814   8.148  1.00  0.00     0.313 C 
BRANCH   8   9
HETATM    9  C   UNL     1      42.289 -10.648   9.628  1.00  0.00     0.131 A 
HETATM   10  N   UNL     1      43.178  -9.952  10.312  1.00  0.00    -0.232 NA
HETATM   11  C   UNL     1      42.808 -10.086  11.631  1.00  0.00     0.085 A 
HETATM   12  C   UNL     1      41.654 -10.854  11.743  1.00  0.00     0.062 A 
HETATM   13  C   UNL     1      43.414  -9.583  12.790  1.00  0.00     0.034 A 
HETATM   14  C   UNL     1      41.046 -11.148  12.964  1.00  0.00     0.032 A 
HETATM   15  N   UNL     1      41.337 -11.196  10.452  1.00  0.00    -0.341 N 
HETATM   16  C   UNL     1      41.663 -10.637  14.112  1.00  0.00     0.002 A 
HETATM   17  C   UNL     1      42.828  -9.870  14.030  1.00  0.00     0.002 A 
HETATM   18  H   UNL     1      40.543 -11.761  10.183  1.00  0.00     0.167 HD
ENDBRANCH   8   9
ENDBRANCH   1   8
BRANCH   4  19
HETATM   19  C   UNL     1      42.664 -14.426   4.729  1.00  0.00     0.165 C 
HETATM   20  O   UNL     1      42.302 -13.562   3.932  1.00  0.00    -0.292 OA
BRANCH  19  21
HETATM   21  C   UNL     1      42.762 -15.850   4.282  1.00  0.00     0.012 A 
HETATM   22  C   UNL     1      43.264 -16.099   2.997  1.00  0.00     0.039 A 
HETATM   23  C   UNL     1      43.372 -17.408   2.529  1.00  0.00     0.035 A 
HETATM   24 CL   UNL     1      43.982 -17.703   0.948  1.00  0.00    -0.084 Cl
HETATM   25  C   UNL     1      42.988 -18.479   3.332  1.00  0.00     0.024 A 
HETATM   26  C   UNL     1      42.490 -18.240   4.610  1.00  0.00     0.003 A 
HETATM   27  C   UNL     1      42.373 -16.931   5.086  1.00  0.00     0.015 A 
ENDBRANCH  19  21
ENDBRANCH   4  19
TORSDOF 4
ENDMDL
MODEL 10
REMARK VINA RESULT:      -8.1      3.934      5.956
REMARK  4 active torsions:
REMARK  status: ('A' for Active; 'I' for Inactive)
REMARK    1  A    between atoms: C_6  and  C_7 
REMARK    2  A    between atoms: C_7  and  N_8 
REMARK    3  A    between atoms: C_11  and  C_12 
REMARK    4  A    between atoms: C_12  and  C_13 
ROOT
HETATM    1  N   UNL     1      41.219 -14.005   4.361  1.00  0.00    -0.064 N 
HETATM    2  H   UNL     1      41.534 -14.190   5.329  1.00  0.00     0.280 HD
HETATM    3  C   UNL     1      41.068 -15.364   3.703  1.00  0.00     0.247 C 
HETATM    4  C   UNL     1      42.419 -16.086   3.705  1.00  0.00     0.086 C 
HETATM    5  C   UNL     1      43.471 -15.230   2.992  1.00  0.00     0.016 C 
HETATM    6  C   UNL     1      43.566 -13.841   3.618  1.00  0.00     0.029 C 
HETATM    7  C   UNL     1      42.218 -13.135   3.662  1.00  0.00     0.235 C 
ENDROOT
BRANCH   1   8
HETATM    8  C   UNL     1      39.878 -13.322   4.576  1.00  0.00     0.313 C 
BRANCH   8   9
HETATM    9  C   UNL     1      39.955 -12.427   5.763  1.00  0.00     0.131 A 
HETATM   10  N   UNL     1      40.629 -11.292   5.801  1.00  0.00    -0.232 NA
HETATM   11  C   UNL     1      40.457 -10.810   7.079  1.00  0.00     0.085 A 
HETATM   12  C   UNL     1      39.637 -11.655   7.818  1.00  0.00     0.062 A 
HETATM   13  C   UNL     1      40.976  -9.656   7.682  1.00  0.00     0.034 A 
HETATM   14  C   UNL     1      39.284 -11.411   9.146  1.00  0.00     0.032 A 
HETATM   15  N   UNL     1      39.323 -12.676   6.957  1.00  0.00    -0.341 N 
HETATM   16  C   UNL     1      39.810 -10.254   9.733  1.00  0.00     0.002 A 
HETATM   17  C   UNL     1      40.643  -9.391   9.017  1.00  0.00     0.002 A 
HETATM   18  H   UNL     1      38.737 -13.467   7.187  1.00  0.00     0.167 HD
ENDBRANCH   8   9
ENDBRANCH   1   8
BRANCH   4  19
HETATM   19  C   UNL     1      42.240 -17.419   2.997  1.00  0.00     0.165 C 
HETATM   20  O   UNL     1      41.331 -17.562   2.180  1.00  0.00    -0.292 OA
BRANCH  19  21
HETATM   21  C   UNL     1      43.161 -18.563   3.285  1.00  0.00     0.012 A 
HETATM   22  C   UNL     1      43.245 -19.591   2.336  1.00  0.00     0.039 A 
HETATM   23  C   UNL     1      44.085 -20.681   2.557  1.00  0.00     0.035 A 
HETATM   24 CL   UNL     1      44.175 -21.941   1.390  1.00  0.00    -0.084 Cl
HETATM   25  C   UNL     1      44.850 -20.759   3.718  1.00  0.00     0.024 A 
HETATM   26  C   UNL     1      44.773 -19.741   4.666  1.00  0.00     0.003 A 
HETATM   27  C   UNL     1      43.930 -18.646   4.454  1.00  0.00     0.015 A 
ENDBRANCH  19  21
ENDBRANCH   4  19
TORSDOF 4
ENDMDL
