MODEL 1
REMARK VINA RESULT:      -8.7      0.000      0.000
REMARK  7 active torsions:
REMARK  status: ('A' for Active; 'I' for Inactive)
REMARK       I    between atoms: C_2  and  N_3 
REMARK    1  A    between atoms: N_3  and  C_4 
REMARK    2  A    between atoms: C_7  and  C_8 
REMARK    3  A    between atoms: C_13  and  C_14 
REMARK    4  A    between atoms: C_14  and  C_15 
REMARK    5  A    between atoms: C_15  and  C_16 
REMARK    6  A    between atoms: C_16  and  O_17 
REMARK    7  A    between atoms: C_19  and  C_20 
ROOT
HETATM    1  C   UNL     1      42.753 -15.182   4.836  1.00  0.00     0.058 A 
HETATM    2  N   UNL     1      42.586 -14.652   3.577  1.00  0.00    -0.188 N 
HETATM    3  C   UNL     1      42.236 -15.399   2.514  1.00  0.00     0.726 A 
HETATM    4  N   UNL     1      42.054 -16.748   2.671  1.00  0.00    -0.084 N 
HETATM    5  N   UNL     1      41.682 -17.332   1.511  1.00  0.00    -0.140 NA
HETATM    6  C   UNL     1      41.709 -16.279   0.681  1.00  0.00     0.166 A 
HETATM    7  N   UNL     1      42.028 -15.075   1.263  1.00  0.00    -0.046 NA
HETATM    8  C   UNL     1      42.215 -17.453   3.951  1.00  0.00     0.187 A 
HETATM    9  C   UNL     1      42.575 -16.494   5.079  1.00  0.00     0.036 A 
HETATM   10  H   UNL     1      42.748 -13.655   3.461  1.00  0.00     0.184 HD
ENDROOT
BRANCH   1  11
HETATM   11  C   UNL     1      43.170 -14.272   5.906  1.00  0.00    -0.009 A 
HETATM   12  C   UNL     1      44.306 -14.568   6.665  1.00  0.00     0.016 A 
HETATM   13  C   UNL     1      44.730 -13.701   7.678  1.00  0.00     0.030 A 
HETATM   14  C   UNL     1      44.025 -12.528   7.946  1.00  0.00     0.034 A 
HETATM   15  C   UNL     1      42.881 -12.238   7.189  1.00  0.00     0.030 A 
HETATM   16  C   UNL     1      42.455 -13.103   6.176  1.00  0.00     0.016 A 
BRANCH  14  17
HETATM   17  N   UNL     1      44.394 -11.598   8.941  1.00  0.00    -0.328 N 
HETATM   18  C   UNL     1      44.534 -11.829  10.297  1.00  0.00     0.218 C 
HETATM   19  C   UNL     1      44.969 -10.596  11.050  1.00  0.00     0.117 C 
HETATM   20  O   UNL     1      44.373 -12.892  10.885  1.00  0.00    -0.274 OA
HETATM   21  H   UNL     1      44.594 -10.661   8.616  1.00  0.00     0.169 HD
ENDBRANCH  14  17
ENDBRANCH   1  11
BRANCH   8  22
HETATM   22  C   UNL     1      43.241 -18.577   3.862  1.00  0.00    -0.028 A 
HETATM   23  C   UNL     1      43.167 -19.504   2.806  1.00  0.00     0.028 A 
HETATM   24  C   UNL     1      44.066 -20.568   2.738  1.00  0.00     0.011 A 
HETATM   25 BR   UNL     1      43.942 -21.807   1.315  1.00  0.00    -0.051 Br
HETATM   26  C   UNL     1      45.048 -20.732   3.712  1.00  0.00     0.019 A 
HETATM   27  C   UNL     1      45.129 -19.826   4.767  1.00  0.00     0.002 A 
HETATM   28  C   UNL     1      44.228 -18.762   4.848  1.00  0.00     0.010 A 
ENDBRANCH   8  22
BRANCH   6  29
HETATM   29  C   UNL     1      41.461 -16.403  -0.777  1.00  0.00     0.085 C 
BRANCH  29  30
HETATM   30  C   UNL     1      41.078 -15.076  -1.433  1.00  0.00     0.034 C 
BRANCH  30  31
HETATM   31  C   UNL     1      40.910 -15.187  -2.946  1.00  0.00     0.164 C 
BRANCH  31  32
HETATM   32  O   UNL     1      42.182 -15.089  -3.579  1.00  0.00    -0.401 OA
HETATM   33  H   UNL     1      42.610 -15.960  -3.516  1.00  0.00     0.209 HD
ENDBRANCH  31  32
ENDBRANCH  30  31
ENDBRANCH  29  30
ENDBRANCH   6  29
TORSDOF 7
ENDMDL
MODEL 2
REMARK VINA RESULT:      -8.5      3.370      8.011
REMARK  7 active torsions:
REMARK  status: ('A' for Active; 'I' for Inactive)
REMARK       I    between atoms: C_2  and  N_3 
REMARK    1  A    between atoms: N_3  and  C_4 
REMARK    2  A    between atoms: C_7  and  C_8 
REMARK    3  A    between atoms: C_13  and  C_14 
REMARK    4  A    between atoms: C_14  and  C_15 
REMARK    5  A    between atoms: C_15  and  C_16 
REMARK    6  A    between atoms: C_16  and  O_17 
REMARK    7  A    between atoms: C_19  and  C_20 
ROOT
HETATM    1  C   UNL     1      41.978 -15.931   2.383  1.00  0.00     0.058 A 
HETATM    2  N   UNL     1      41.635 -15.694   3.694  1.00  0.00    -0.188 N 
HETATM    3  C   UNL     1      42.317 -16.217   4.730  1.00  0.00     0.726 A 
HETATM    4  N   UNL     1      43.386 -17.038   4.485  1.00  0.00    -0.084 N 
HETATM    5  N   UNL     1      43.965 -17.449   5.634  1.00  0.00    -0.140 NA
HETATM    6  C   UNL     1      43.157 -16.875   6.539  1.00  0.00     0.166 A 
HETATM    7  N   UNL     1      42.146 -16.099   6.022  1.00  0.00    -0.046 NA
HETATM    8  C   UNL     1      43.855 -17.394   3.138  1.00  0.00     0.187 A 
HETATM    9  C   UNL     1      43.026 -16.710   2.056  1.00  0.00     0.036 A 
HETATM   10  H   UNL     1      40.826 -15.105   3.870  1.00  0.00     0.184 HD
ENDROOT
BRANCH   1  11
HETATM   11  C   UNL     1      41.137 -15.333   1.343  1.00  0.00    -0.009 A 
HETATM   12  C   UNL     1      39.855 -14.877   1.664  1.00  0.00     0.016 A 
HETATM   13  C   UNL     1      39.045 -14.286   0.689  1.00  0.00     0.030 A 
HETATM   14  C   UNL     1      39.504 -14.142  -0.620  1.00  0.00     0.034 A 
HETATM   15  C   UNL     1      40.787 -14.608  -0.942  1.00  0.00     0.030 A 
HETATM   16  C   UNL     1      41.599 -15.200   0.032  1.00  0.00     0.016 A 
BRANCH  14  17
HETATM   17  N   UNL     1      38.755 -13.547  -1.656  1.00  0.00    -0.328 N 
HETATM   18  C   UNL     1      38.223 -14.167  -2.772  1.00  0.00     0.218 C 
HETATM   19  C   UNL     1      37.457 -13.211  -3.652  1.00  0.00     0.117 C 
HETATM   20  O   UNL     1      38.298 -15.356  -3.062  1.00  0.00    -0.274 OA
HETATM   21  H   UNL     1      38.574 -12.556  -1.558  1.00  0.00     0.169 HD
ENDBRANCH  14  17
ENDBRANCH   1  11
BRANCH   8  22
HETATM   22  C   UNL     1      43.877 -18.902   2.916  1.00  0.00    -0.028 A 
HETATM   23  C   UNL     1      44.390 -19.743   3.920  1.00  0.00     0.028 A 
HETATM   24  C   UNL     1      44.464 -21.122   3.713  1.00  0.00     0.011 A 
HETATM   25 BR   UNL     1      45.166 -22.233   5.073  1.00  0.00    -0.051 Br
HETATM   26  C   UNL     1      44.036 -21.684   2.514  1.00  0.00     0.019 A 
HETATM   27  C   UNL     1      43.533 -20.861   1.509  1.00  0.00     0.002 A 
HETATM   28  C   UNL     1      43.461 -19.481   1.703  1.00  0.00     0.010 A 
ENDBRANCH   8  22
BRANCH   6  29
HETATM   29  C   UNL     1      43.306 -17.097   7.999  1.00  0.00     0.085 C 
BRANCH  29  30
HETATM   30  C   UNL     1      44.138 -18.334   8.335  1.00  0.00     0.034 C 
BRANCH  30  31
HETATM   31  C   UNL     1      43.705 -19.572   7.555  1.00  0.00     0.164 C 
BRANCH  31  32
HETATM   32  O   UNL     1      43.556 -20.674   8.444  1.00  0.00    -0.401 OA
HETATM   33  H   UNL     1      43.591 -20.327   9.351  1.00  0.00     0.209 HD
ENDBRANCH  31  32
ENDBRANCH  30  31
ENDBRANCH  29  30
ENDBRANCH   6  29
TORSDOF 7
ENDMDL
MODEL 3
REMARK VINA RESULT:      -8.4      2.952      5.020
REMARK  7 active torsions:
REMARK  status: ('A' for Active; 'I' for Inactive)
REMARK       I    between atoms: C_2  and  N_3 
REMARK    1  A    between atoms: N_3  and  C_4 
REMARK    2  A    between atoms: C_7  and  C_8 
REMARK    3  A    between atoms: C_13  and  C_14 
REMARK    4  A    between atoms: C_14  and  C_15 
REMARK    5  A    between atoms: C_15  and  C_16 
REMARK    6  A    between atoms: C_16  and  O_17 
REMARK    7  A    between atoms: C_19  and  C_20 
ROOT
HETATM    1  C   UNL     1      43.480 -15.097   4.624  1.00  0.00     0.058 A 
HETATM    2  N   UNL     1      43.598 -16.455   4.818  1.00  0.00    -0.188 N 
HETATM    3  C   UNL     1      43.425 -17.348   3.826  1.00  0.00     0.726 A 
HETATM    4  N   UNL     1      43.099 -16.904   2.572  1.00  0.00    -0.084 N 
HETATM    5  N   UNL     1      42.991 -17.931   1.700  1.00  0.00    -0.140 NA
HETATM    6  C   UNL     1      43.216 -18.974   2.513  1.00  0.00     0.166 A 
HETATM    7  N   UNL     1      43.502 -18.654   3.820  1.00  0.00    -0.046 NA
HETATM    8  C   UNL     1      42.922 -15.488   2.223  1.00  0.00     0.187 A 
HETATM    9  C   UNL     1      43.180 -14.579   3.419  1.00  0.00     0.036 A 
HETATM   10  H   UNL     1      43.815 -16.779   5.756  1.00  0.00     0.184 HD
ENDROOT
BRANCH   1  11
HETATM   11  C   UNL     1      43.657 -14.228   5.790  1.00  0.00    -0.009 A 
HETATM   12  C   UNL     1      44.772 -14.393   6.616  1.00  0.00     0.016 A 
HETATM   13  C   UNL     1      44.968 -13.560   7.723  1.00  0.00     0.030 A 
HETATM   14  C   UNL     1      44.053 -12.550   8.019  1.00  0.00     0.034 A 
HETATM   15  C   UNL     1      42.931 -12.391   7.193  1.00  0.00     0.030 A 
HETATM   16  C   UNL     1      42.733 -13.224   6.087  1.00  0.00     0.016 A 
BRANCH  14  17
HETATM   17  N   UNL     1      44.184 -11.663   9.107  1.00  0.00    -0.328 N 
HETATM   18  C   UNL     1      44.371 -11.987  10.439  1.00  0.00     0.218 C 
HETATM   19  C   UNL     1      44.494 -10.767  11.317  1.00  0.00     0.117 C 
HETATM   20  O   UNL     1      44.468 -13.111  10.918  1.00  0.00    -0.274 OA
HETATM   21  H   UNL     1      44.155 -10.677   8.879  1.00  0.00     0.169 HD
ENDBRANCH  14  17
ENDBRANCH   1  11
BRANCH   8  22
HETATM   22  C   UNL     1      41.545 -15.208   1.632  1.00  0.00    -0.028 A 
HETATM   23  C   UNL     1      41.442 -14.681   0.331  1.00  0.00     0.028 A 
HETATM   24  C   UNL     1      40.192 -14.372  -0.206  1.00  0.00     0.011 A 
HETATM   25 BR   UNL     1      40.077 -13.655  -1.952  1.00  0.00    -0.051 Br
HETATM   26  C   UNL     1      39.030 -14.577   0.533  1.00  0.00     0.019 A 
HETATM   27  C   UNL     1      39.118 -15.092   1.825  1.00  0.00     0.002 A 
HETATM   28  C   UNL     1      40.365 -15.397   2.374  1.00  0.00     0.010 A 
ENDBRANCH   8  22
BRANCH   6  29
HETATM   29  C   UNL     1      43.117 -20.382   2.055  1.00  0.00     0.085 C 
BRANCH  29  30
HETATM   30  C   UNL     1      44.444 -21.135   2.146  1.00  0.00     0.034 C 
BRANCH  30  31
HETATM   31  C   UNL     1      44.486 -22.129   3.303  1.00  0.00     0.164 C 
BRANCH  31  32
HETATM   32  O   UNL     1      44.804 -21.447   4.512  1.00  0.00    -0.401 OA
HETATM   33  H   UNL     1      45.590 -21.874   4.893  1.00  0.00     0.209 HD
ENDBRANCH  31  32
ENDBRANCH  30  31
ENDBRANCH  29  30
ENDBRANCH   6  29
TORSDOF 7
ENDMDL
MODEL 4
REMARK VINA RESULT:      -8.4      5.170      7.427
REMARK  7 active torsions:
REMARK  status: ('A' for Active; 'I' for Inactive)
REMARK       I    between atoms: C_2  and  N_3 
REMARK    1  A    between atoms: N_3  and  C_4 
REMARK    2  A    between atoms: C_7  and  C_8 
REMARK    3  A    between atoms: C_13  and  C_14 
REMARK    4  A    between atoms: C_14  and  C_15 
REMARK    5  A    between atoms: C_15  and  C_16 
REMARK    6  A    between atoms: C_16  and  O_17 
REMARK    7  A    between atoms: C_19  and  C_20 
ROOT
HETATM    1  C   UNL     1      42.531 -16.134   1.412  1.00  0.00     0.058 A 
HETATM    2  N   UNL     1      41.935 -16.422   0.205  1.00  0.00    -0.188 N 
HETATM    3  C   UNL     1      41.390 -15.475  -0.581  1.00  0.00     0.726 A 
HETATM    4  N   UNL     1      41.403 -14.169  -0.167  1.00  0.00    -0.084 N 
HETATM    5  N   UNL     1      40.839 -13.356  -1.087  1.00  0.00    -0.140 NA
HETATM    6  C   UNL     1      40.461 -14.251  -2.012  1.00  0.00     0.166 A 
HETATM    7  N   UNL     1      40.797 -15.557  -1.744  1.00  0.00    -0.046 NA
HETATM    8  C   UNL     1      41.986 -13.718   1.105  1.00  0.00     0.187 A 
HETATM    9  C   UNL     1      42.602 -14.875   1.882  1.00  0.00     0.036 A 
HETATM   10  H   UNL     1      41.906 -17.396  -0.085  1.00  0.00     0.184 HD
ENDROOT
BRANCH   1  11
HETATM   11  C   UNL     1      43.058 -17.256   2.194  1.00  0.00    -0.009 A 
HETATM   12  C   UNL     1      43.808 -18.251   1.560  1.00  0.00     0.016 A 
HETATM   13  C   UNL     1      44.336 -19.319   2.293  1.00  0.00     0.030 A 
HETATM   14  C   UNL     1      44.122 -19.408   3.668  1.00  0.00     0.034 A 
HETATM   15  C   UNL     1      43.362 -18.413   4.300  1.00  0.00     0.030 A 
HETATM   16  C   UNL     1      42.833 -17.344   3.569  1.00  0.00     0.016 A 
BRANCH  14  17
HETATM   17  N   UNL     1      44.628 -20.445   4.478  1.00  0.00    -0.328 N 
HETATM   18  C   UNL     1      44.698 -21.792   4.174  1.00  0.00     0.218 C 
HETATM   19  C   UNL     1      45.328 -22.602   5.280  1.00  0.00     0.117 C 
HETATM   20  O   UNL     1      44.340 -22.333   3.134  1.00  0.00    -0.274 OA
HETATM   21  H   UNL     1      44.997 -20.163   5.378  1.00  0.00     0.169 HD
ENDBRANCH  14  17
ENDBRANCH   1  11
BRANCH   8  22
HETATM   22  C   UNL     1      40.974 -12.975   1.970  1.00  0.00    -0.028 A 
HETATM   23  C   UNL     1      40.801 -11.589   1.801  1.00  0.00     0.028 A 
HETATM   24  C   UNL     1      39.917 -10.885   2.619  1.00  0.00     0.011 A 
HETATM   25 BR   UNL     1      39.707  -9.021   2.381  1.00  0.00    -0.051 Br
HETATM   26  C   UNL     1      39.195 -11.539   3.614  1.00  0.00     0.019 A 
HETATM   27  C   UNL     1      39.362 -12.911   3.797  1.00  0.00     0.002 A 
HETATM   28  C   UNL     1      40.250 -13.623   2.988  1.00  0.00     0.010 A 
ENDBRANCH   8  22
BRANCH   6  29
HETATM   29  C   UNL     1      39.689 -13.873  -3.223  1.00  0.00     0.085 C 
BRANCH  29  30
HETATM   30  C   UNL     1      38.464 -14.757  -3.451  1.00  0.00     0.034 C 
BRANCH  30  31
HETATM   31  C   UNL     1      38.738 -15.922  -4.397  1.00  0.00     0.164 C 
BRANCH  31  32
HETATM   32  O   UNL     1      38.987 -17.105  -3.644  1.00  0.00    -0.401 OA
HETATM   33  H   UNL     1      39.184 -16.837  -2.731  1.00  0.00     0.209 HD
ENDBRANCH  31  32
ENDBRANCH  30  31
ENDBRANCH  29  30
ENDBRANCH   6  29
TORSDOF 7
ENDMDL
MODEL 5
REMARK VINA RESULT:      -8.3      3.871      8.180
REMARK  7 active torsions:
REMARK  status: ('A' for Active; 'I' for Inactive)
REMARK       I    between atoms: C_2  and  N_3 
REMARK    1  A    between atoms: N_3  and  C_4 
REMARK    2  A    between atoms: C_7  and  C_8 
REMARK    3  A    between atoms: C_13  and  C_14 
REMARK    4  A    between atoms: C_14  and  C_15 
REMARK    5  A    between atoms: C_15  and  C_16 
REMARK    6  A    between atoms: C_16  and  O_17 
REMARK    7  A    between atoms: C_19  and  C_20 
ROOT
HETATM    1  C   UNL     1      41.821 -15.843   0.920  1.00  0.00     0.058 A 
HETATM    2  N   UNL     1      42.589 -16.903   0.496  1.00  0.00    -0.188 N 
HETATM    3  C   UNL     1      42.987 -17.889   1.322  1.00  0.00     0.726 A 
HETATM    4  N   UNL     1      42.638 -17.837   2.646  1.00  0.00    -0.084 N 
HETATM    5  N   UNL     1      43.098 -18.915   3.318  1.00  0.00    -0.140 NA
HETATM    6  C   UNL     1      43.762 -19.553   2.342  1.00  0.00     0.166 A 
HETATM    7  N   UNL     1      43.702 -18.962   1.102  1.00  0.00    -0.046 NA
HETATM    8  C   UNL     1      41.838 -16.757   3.242  1.00  0.00     0.187 A 
HETATM    9  C   UNL     1      41.420 -15.727   2.199  1.00  0.00     0.036 A 
HETATM   10  H   UNL     1      42.866 -16.923  -0.481  1.00  0.00     0.184 HD
ENDROOT
BRANCH   1  11
HETATM   11  C   UNL     1      41.480 -14.815  -0.067  1.00  0.00    -0.009 A 
HETATM   12  C   UNL     1      41.664 -13.465   0.246  1.00  0.00     0.016 A 
HETATM   13  C   UNL     1      41.363 -12.470  -0.691  1.00  0.00     0.030 A 
HETATM   14  C   UNL     1      40.874 -12.810  -1.952  1.00  0.00     0.034 A 
HETATM   15  C   UNL     1      40.683 -14.165  -2.261  1.00  0.00     0.030 A 
HETATM   16  C   UNL     1      40.984 -15.161  -1.325  1.00  0.00     0.016 A 
BRANCH  14  17
HETATM   17  N   UNL     1      40.558 -11.869  -2.954  1.00  0.00    -0.328 N 
HETATM   18  C   UNL     1      41.369 -11.438  -3.988  1.00  0.00     0.218 C 
HETATM   19  C   UNL     1      40.678 -10.438  -4.883  1.00  0.00     0.117 C 
HETATM   20  O   UNL     1      42.513 -11.804  -4.232  1.00  0.00    -0.274 OA
HETATM   21  H   UNL     1      39.624 -11.481  -2.916  1.00  0.00     0.169 HD
ENDBRANCH  14  17
ENDBRANCH   1  11
BRANCH   8  22
HETATM   22  C   UNL     1      42.561 -16.078   4.399  1.00  0.00    -0.028 A 
HETATM   23  C   UNL     1      42.699 -16.755   5.625  1.00  0.00     0.028 A 
HETATM   24  C   UNL     1      43.313 -16.129   6.710  1.00  0.00     0.011 A 
HETATM   25 BR   UNL     1      43.479 -17.054   8.351  1.00  0.00    -0.051 Br
HETATM   26  C   UNL     1      43.794 -14.827   6.600  1.00  0.00     0.019 A 
HETATM   27  C   UNL     1      43.657 -14.142   5.395  1.00  0.00     0.002 A 
HETATM   28  C   UNL     1      43.038 -14.758   4.305  1.00  0.00     0.010 A 
ENDBRANCH   8  22
BRANCH   6  29
HETATM   29  C   UNL     1      44.552 -20.786   2.585  1.00  0.00     0.085 C 
BRANCH  29  30
HETATM   30  C   UNL     1      44.997 -20.935   4.040  1.00  0.00     0.034 C 
BRANCH  30  31
HETATM   31  C   UNL     1      44.741 -22.330   4.600  1.00  0.00     0.164 C 
BRANCH  31  32
HETATM   32  O   UNL     1      44.850 -23.295   3.559  1.00  0.00    -0.401 OA
HETATM   33  H   UNL     1      44.950 -24.168   3.975  1.00  0.00     0.209 HD
ENDBRANCH  31  32
ENDBRANCH  30  31
ENDBRANCH  29  30
ENDBRANCH   6  29
TORSDOF 7
ENDMDL
MODEL 6
REMARK VINA RESULT:      -8.2      2.132      2.614
REMARK  7 active torsions:
REMARK  status: ('A' for Active; 'I' for Inactive)
REMARK       I    between atoms: C_2  and  N_3 
REMARK    1  A    between atoms: N_3  and  C_4 
REMARK    2  A    between atoms: C_7  and  C_8 
REMARK    3  A    between atoms: C_13  and  C_14 
REMARK    4  A    between atoms: C_14  and  C_15 
REMARK    5  A    between atoms: C_15  and  C_16 
REMARK    6  A    between atoms: C_16  and  O_17 
REMARK    7  A    between atoms: C_19  and  C_20 
ROOT
HETATM    1  C   UNL     1      40.870 -14.091   4.856  1.00  0.00     0.058 A 
HETATM    2  N   UNL     1      40.897 -13.740   3.525  1.00  0.00    -0.188 N 
HETATM    3  C   UNL     1      41.032 -14.645   2.538  1.00  0.00     0.726 A 
HETATM    4  N   UNL     1      41.169 -15.971   2.856  1.00  0.00    -0.084 N 
HETATM    5  N   UNL     1      41.266 -16.735   1.746  1.00  0.00    -0.140 NA
HETATM    6  C   UNL     1      41.231 -15.794   0.791  1.00  0.00     0.166 A 
HETATM    7  N   UNL     1      41.071 -14.503   1.238  1.00  0.00    -0.046 NA
HETATM    8  C   UNL     1      41.177 -16.488   4.232  1.00  0.00     0.187 A 
HETATM    9  C   UNL     1      40.980 -15.372   5.252  1.00  0.00     0.036 A 
HETATM   10  H   UNL     1      40.821 -12.753   3.297  1.00  0.00     0.184 HD
ENDROOT
BRANCH   1  11
HETATM   11  C   UNL     1      40.754 -13.011   5.840  1.00  0.00    -0.009 A 
HETATM   12  C   UNL     1      39.543 -12.810   6.509  1.00  0.00     0.016 A 
HETATM   13  C   UNL     1      39.418 -11.796   7.465  1.00  0.00     0.030 A 
HETATM   14  C   UNL     1      40.502 -10.970   7.766  1.00  0.00     0.034 A 
HETATM   15  C   UNL     1      41.712 -11.169   7.088  1.00  0.00     0.030 A 
HETATM   16  C   UNL     1      41.839 -12.182   6.131  1.00  0.00     0.016 A 
BRANCH  14  17
HETATM   17  N   UNL     1      40.460  -9.936   8.723  1.00  0.00    -0.328 N 
HETATM   18  C   UNL     1      40.828 -10.007  10.055  1.00  0.00     0.218 C 
HETATM   19  C   UNL     1      40.670  -8.686  10.768  1.00  0.00     0.117 C 
HETATM   20  O   UNL     1      41.270 -10.985  10.647  1.00  0.00    -0.274 OA
HETATM   21  H   UNL     1      40.139  -9.036   8.388  1.00  0.00     0.169 HD
ENDBRANCH  14  17
ENDBRANCH   1  11
BRANCH   8  22
HETATM   22  C   UNL     1      42.445 -17.274   4.544  1.00  0.00    -0.028 A 
HETATM   23  C   UNL     1      42.812 -18.355   3.721  1.00  0.00     0.028 A 
HETATM   24  C   UNL     1      43.942 -19.117   4.022  1.00  0.00     0.011 A 
HETATM   25 BR   UNL     1      44.410 -20.571   2.908  1.00  0.00    -0.051 Br
HETATM   26  C   UNL     1      44.721 -18.823   5.137  1.00  0.00     0.019 A 
HETATM   27  C   UNL     1      44.365 -17.759   5.964  1.00  0.00     0.002 A 
HETATM   28  C   UNL     1      43.232 -16.996   5.676  1.00  0.00     0.010 A 
ENDBRANCH   8  22
BRANCH   6  29
HETATM   29  C   UNL     1      41.401 -16.108  -0.650  1.00  0.00     0.085 C 
BRANCH  29  30
HETATM   30  C   UNL     1      40.815 -15.037  -1.569  1.00  0.00     0.034 C 
BRANCH  30  31
HETATM   31  C   UNL     1      40.844 -15.436  -3.041  1.00  0.00     0.164 C 
BRANCH  31  32
HETATM   32  O   UNL     1      42.153 -15.242  -3.567  1.00  0.00    -0.401 OA
HETATM   33  H   UNL     1      42.452 -16.091  -3.933  1.00  0.00     0.209 HD
ENDBRANCH  31  32
ENDBRANCH  30  31
ENDBRANCH  29  30
ENDBRANCH   6  29
TORSDOF 7
ENDMDL
MODEL 7
REMARK VINA RESULT:      -8.2      5.613      8.407
REMARK  7 active torsions:
REMARK  status: ('A' for Active; 'I' for Inactive)
REMARK       I    between atoms: C_2  and  N_3 
REMARK    1  A    between atoms: N_3  and  C_4 
REMARK    2  A    between atoms: C_7  and  C_8 
REMARK    3  A    between atoms: C_13  and  C_14 
REMARK    4  A    between atoms: C_14  and  C_15 
REMARK    5  A    between atoms: C_15  and  C_16 
REMARK    6  A    between atoms: C_16  and  O_17 
REMARK    7  A    between atoms: C_19  and  C_20 
ROOT
HETATM    1  C   UNL     1      40.753 -15.506   0.464  1.00  0.00     0.058 A 
HETATM    2  N   UNL     1      39.689 -14.912   1.104  1.00  0.00    -0.188 N 
HETATM    3  C   UNL     1      38.872 -14.033   0.493  1.00  0.00     0.726 A 
HETATM    4  N   UNL     1      39.110 -13.691  -0.812  1.00  0.00    -0.084 N 
HETATM    5  N   UNL     1      38.181 -12.822  -1.270  1.00  0.00    -0.140 NA
HETATM    6  C   UNL     1      37.441 -12.644  -0.165  1.00  0.00     0.166 A 
HETATM    7  N   UNL     1      37.825 -13.383   0.930  1.00  0.00    -0.046 NA
HETATM    8  C   UNL     1      40.218 -14.231  -1.613  1.00  0.00     0.187 A 
HETATM    9  C   UNL     1      41.043 -15.239  -0.822  1.00  0.00     0.036 A 
HETATM   10  H   UNL     1      39.533 -15.150   2.079  1.00  0.00     0.184 HD
ENDROOT
BRANCH   1  11
HETATM   11  C   UNL     1      41.590 -16.420   1.246  1.00  0.00    -0.009 A 
HETATM   12  C   UNL     1      42.811 -16.858   0.727  1.00  0.00     0.016 A 
HETATM   13  C   UNL     1      43.633 -17.715   1.467  1.00  0.00     0.030 A 
HETATM   14  C   UNL     1      43.245 -18.146   2.736  1.00  0.00     0.034 A 
HETATM   15  C   UNL     1      42.016 -17.711   3.251  1.00  0.00     0.030 A 
HETATM   16  C   UNL     1      41.193 -16.854   2.513  1.00  0.00     0.016 A 
BRANCH  14  17
HETATM   17  N   UNL     1      44.021 -18.999   3.548  1.00  0.00    -0.328 N 
HETATM   18  C   UNL     1      44.367 -20.314   3.297  1.00  0.00     0.218 C 
HETATM   19  C   UNL     1      45.231 -20.901   4.386  1.00  0.00     0.117 C 
HETATM   20  O   UNL     1      44.070 -20.980   2.311  1.00  0.00    -0.274 OA
HETATM   21  H   UNL     1      44.376 -18.591   4.404  1.00  0.00     0.169 HD
ENDBRANCH  14  17
ENDBRANCH   1  11
BRANCH   8  22
HETATM   22  C   UNL     1      41.114 -13.131  -2.170  1.00  0.00    -0.028 A 
HETATM   23  C   UNL     1      41.683 -12.189  -1.293  1.00  0.00     0.028 A 
HETATM   24  C   UNL     1      42.465 -11.146  -1.791  1.00  0.00     0.011 A 
HETATM   25 BR   UNL     1      43.212  -9.886  -0.596  1.00  0.00    -0.051 Br
HETATM   26  C   UNL     1      42.693 -11.019  -3.159  1.00  0.00     0.019 A 
HETATM   27  C   UNL     1      42.129 -11.940  -4.039  1.00  0.00     0.002 A 
HETATM   28  C   UNL     1      41.339 -12.983  -3.551  1.00  0.00     0.010 A 
ENDBRANCH   8  22
BRANCH   6  29
HETATM   29  C   UNL     1      36.313 -11.681  -0.104  1.00  0.00     0.085 C 
BRANCH  29  30
HETATM   30  C   UNL     1      36.248 -10.919   1.219  1.00  0.00     0.034 C 
BRANCH  30  31
HETATM   31  C   UNL     1      34.978 -10.086   1.363  1.00  0.00     0.164 C 
BRANCH  31  32
HETATM   32  O   UNL     1      33.908 -10.913   1.809  1.00  0.00    -0.401 OA
HETATM   33  H   UNL     1      34.276 -11.559   2.434  1.00  0.00     0.209 HD
ENDBRANCH  31  32
ENDBRANCH  30  31
ENDBRANCH  29  30
ENDBRANCH   6  29
TORSDOF 7
ENDMDL
MODEL 8
REMARK VINA RESULT:      -8.1      2.924      3.426
REMARK  7 active torsions:
REMARK  status: ('A' for Active; 'I' for Inactive)
REMARK       I    between atoms: C_2  and  N_3 
REMARK    1  A    between atoms: N_3  and  C_4 
REMARK    2  A    between atoms: C_7  and  C_8 
REMARK    3  A    between atoms: C_13  and  C_14 
REMARK    4  A    between atoms: C_14  and  C_15 
REMARK    5  A    between atoms: C_15  and  C_16 
REMARK    6  A    between atoms: C_16  and  O_17 
REMARK    7  A    between atoms: C_19  and  C_20 
ROOT
HETATM    1  C   UNL     1      40.556 -13.718   3.117  1.00  0.00     0.058 A 
HETATM    2  N   UNL     1      40.625 -13.113   1.883  1.00  0.00    -0.188 N 
HETATM    3  C   UNL     1      40.677 -13.810   0.733  1.00  0.00     0.726 A 
HETATM    4  N   UNL     1      40.683 -15.179   0.777  1.00  0.00    -0.084 N 
HETATM    5  N   UNL     1      40.711 -15.711  -0.465  1.00  0.00    -0.140 NA
HETATM    6  C   UNL     1      40.774 -14.598  -1.212  1.00  0.00     0.166 A 
HETATM    7  N   UNL     1      40.739 -13.414  -0.513  1.00  0.00    -0.046 NA
HETATM    8  C   UNL     1      40.631 -15.960   2.021  1.00  0.00     0.187 A 
HETATM    9  C   UNL     1      40.538 -15.058   3.246  1.00  0.00     0.036 A 
HETATM   10  H   UNL     1      40.647 -12.097   1.858  1.00  0.00     0.184 HD
ENDROOT
BRANCH   1  11
HETATM   11  C   UNL     1      40.540 -12.852   4.298  1.00  0.00    -0.009 A 
HETATM   12  C   UNL     1      39.828 -13.244   5.436  1.00  0.00     0.016 A 
HETATM   13  C   UNL     1      39.816 -12.439   6.580  1.00  0.00     0.030 A 
HETATM   14  C   UNL     1      40.516 -11.232   6.603  1.00  0.00     0.034 A 
HETATM   15  C   UNL     1      41.222 -10.838   5.458  1.00  0.00     0.030 A 
HETATM   16  C   UNL     1      41.234 -11.641   4.312  1.00  0.00     0.016 A 
BRANCH  14  17
HETATM   17  N   UNL     1      40.563 -10.371   7.719  1.00  0.00    -0.328 N 
HETATM   18  C   UNL     1      41.667 -10.052   8.489  1.00  0.00     0.218 C 
HETATM   19  C   UNL     1      41.338  -9.073   9.589  1.00  0.00     0.117 C 
HETATM   20  O   UNL     1      42.815 -10.452   8.335  1.00  0.00    -0.274 OA
HETATM   21  H   UNL     1      39.689  -9.926   7.970  1.00  0.00     0.169 HD
ENDBRANCH  14  17
ENDBRANCH   1  11
BRANCH   8  22
HETATM   22  C   UNL     1      41.815 -16.912   2.152  1.00  0.00    -0.028 A 
HETATM   23  C   UNL     1      42.138 -17.448   3.412  1.00  0.00     0.028 A 
HETATM   24  C   UNL     1      43.248 -18.281   3.559  1.00  0.00     0.011 A 
HETATM   25 BR   UNL     1      43.670 -18.983   5.263  1.00  0.00    -0.051 Br
HETATM   26  C   UNL     1      44.053 -18.592   2.466  1.00  0.00     0.019 A 
HETATM   27  C   UNL     1      43.748 -18.061   1.214  1.00  0.00     0.002 A 
HETATM   28  C   UNL     1      42.644 -17.221   1.058  1.00  0.00     0.010 A 
ENDBRANCH   8  22
BRANCH   6  29
HETATM   29  C   UNL     1      40.922 -14.632  -2.688  1.00  0.00     0.085 C 
BRANCH  29  30
HETATM   30  C   UNL     1      40.370 -15.913  -3.315  1.00  0.00     0.034 C 
BRANCH  30  31
HETATM   31  C   UNL     1      39.051 -15.695  -4.050  1.00  0.00     0.164 C 
BRANCH  31  32
HETATM   32  O   UNL     1      38.975 -16.570  -5.171  1.00  0.00    -0.401 OA
HETATM   33  H   UNL     1      39.778 -17.117  -5.173  1.00  0.00     0.209 HD
ENDBRANCH  31  32
ENDBRANCH  30  31
ENDBRANCH  29  30
ENDBRANCH   6  29
TORSDOF 7
ENDMDL
MODEL 9
REMARK VINA RESULT:      -8.1      2.567      8.634
REMARK  7 active torsions:
REMARK  status: ('A' for Active; 'I' for Inactive)
REMARK       I    between atoms: C_2  and  N_3 
REMARK    1  A    between atoms: N_3  and  C_4 
REMARK    2  A    between atoms: C_7  and  C_8 
REMARK    3  A    between atoms: C_13  and  C_14 
REMARK    4  A    between atoms: C_14  and  C_15 
REMARK    5  A    between atoms: C_15  and  C_16 
REMARK    6  A    between atoms: C_16  and  O_17 
REMARK    7  A    between atoms: C_19  and  C_20 
ROOT
HETATM    1  C   UNL     1      41.357 -14.540   1.247  1.00  0.00     0.058 A 
HETATM    2  N   UNL     1      41.132 -13.897   2.443  1.00  0.00    -0.188 N 
HETATM    3  C   UNL     1      41.949 -14.029   3.505  1.00  0.00     0.726 A 
HETATM    4  N   UNL     1      43.042 -14.850   3.412  1.00  0.00    -0.084 N 
HETATM    5  N   UNL     1      43.761 -14.842   4.557  1.00  0.00    -0.140 NA
HETATM    6  C   UNL     1      43.010 -14.031   5.317  1.00  0.00     0.166 A 
HETATM    7  N   UNL     1      41.901 -13.501   4.701  1.00  0.00    -0.046 NA
HETATM    8  C   UNL     1      43.397 -15.612   2.206  1.00  0.00     0.187 A 
HETATM    9  C   UNL     1      42.418 -15.348   1.068  1.00  0.00     0.036 A 
HETATM   10  H   UNL     1      40.305 -13.310   2.514  1.00  0.00     0.184 HD
ENDROOT
BRANCH   1  11
HETATM   11  C   UNL     1      40.376 -14.343   0.176  1.00  0.00    -0.009 A 
HETATM   12  C   UNL     1      40.782 -14.426  -1.159  1.00  0.00     0.016 A 
HETATM   13  C   UNL     1      39.856 -14.260  -2.195  1.00  0.00     0.030 A 
HETATM   14  C   UNL     1      38.513 -14.011  -1.911  1.00  0.00     0.034 A 
HETATM   15  C   UNL     1      38.111 -13.921  -0.570  1.00  0.00     0.030 A 
HETATM   16  C   UNL     1      39.035 -14.086   0.467  1.00  0.00     0.016 A 
BRANCH  14  17
HETATM   17  N   UNL     1      37.518 -13.844  -2.896  1.00  0.00    -0.328 N 
HETATM   18  C   UNL     1      37.223 -14.694  -3.946  1.00  0.00     0.218 C 
HETATM   19  C   UNL     1      36.072 -14.197  -4.785  1.00  0.00     0.117 C 
HETATM   20  O   UNL     1      37.768 -15.760  -4.208  1.00  0.00    -0.274 OA
HETATM   21  H   UNL     1      36.947 -13.013  -2.810  1.00  0.00     0.169 HD
ENDBRANCH  14  17
ENDBRANCH   1  11
BRANCH   8  22
HETATM   22  C   UNL     1      43.501 -17.108   2.481  1.00  0.00    -0.028 A 
HETATM   23  C   UNL     1      43.679 -17.560   3.801  1.00  0.00     0.028 A 
HETATM   24  C   UNL     1      43.827 -18.923   4.065  1.00  0.00     0.011 A 
HETATM   25 BR   UNL     1      44.074 -19.508   5.846  1.00  0.00    -0.051 Br
HETATM   26  C   UNL     1      43.803 -19.853   3.030  1.00  0.00     0.019 A 
HETATM   27  C   UNL     1      43.635 -19.418   1.717  1.00  0.00     0.002 A 
HETATM   28  C   UNL     1      43.493 -18.056   1.442  1.00  0.00     0.010 A 
ENDBRANCH   8  22
BRANCH   6  29
HETATM   29  C   UNL     1      43.320 -13.757   6.743  1.00  0.00     0.085 C 
BRANCH  29  30
HETATM   30  C   UNL     1      44.809 -13.876   7.065  1.00  0.00     0.034 C 
BRANCH  30  31
HETATM   31  C   UNL     1      45.245 -12.965   8.208  1.00  0.00     0.164 C 
BRANCH  31  32
HETATM   32  O   UNL     1      44.464 -13.238   9.367  1.00  0.00    -0.401 OA
HETATM   33  H   UNL     1      43.937 -14.035   9.185  1.00  0.00     0.209 HD
ENDBRANCH  31  32
ENDBRANCH  30  31
ENDBRANCH  29  30
ENDBRANCH   6  29
TORSDOF 7
ENDMDL
MODEL 10
REMARK VINA RESULT:      -8.1      4.273      8.865
REMARK  7 active torsions:
REMARK  status: ('A' for Active; 'I' for Inactive)
REMARK       I    between atoms: C_2  and  N_3 
REMARK    1  A    between atoms: N_3  and  C_4 
REMARK    2  A    between atoms: C_7  and  C_8 
REMARK    3  A    between atoms: C_13  and  C_14 
REMARK    4  A    between atoms: C_14  and  C_15 
REMARK    5  A    between atoms: C_15  and  C_16 
REMARK    6  A    between atoms: C_16  and  O_17 
REMARK    7  A    between atoms: C_19  and  C_20 
ROOT
HETATM    1  C   UNL     1      41.173 -15.133  -0.021  1.00  0.00     0.058 A 
HETATM    2  N   UNL     1      42.076 -16.160  -0.177  1.00  0.00    -0.188 N 
HETATM    3  C   UNL     1      42.392 -17.008   0.820  1.00  0.00     0.726 A 
HETATM    4  N   UNL     1      41.814 -16.842   2.051  1.00  0.00    -0.084 N 
HETATM    5  N   UNL     1      42.224 -17.793   2.919  1.00  0.00    -0.140 NA
HETATM    6  C   UNL     1      43.092 -18.472   2.153  1.00  0.00     0.166 A 
HETATM    7  N   UNL     1      43.208 -18.030   0.856  1.00  0.00    -0.046 NA
HETATM    8  C   UNL     1      40.849 -15.780   2.368  1.00  0.00     0.187 A 
HETATM    9  C   UNL     1      40.548 -14.913   1.150  1.00  0.00     0.036 A 
HETATM   10  H   UNL     1      42.520 -16.263  -1.085  1.00  0.00     0.184 HD
ENDROOT
BRANCH   1  11
HETATM   11  C   UNL     1      40.939 -14.256  -1.171  1.00  0.00    -0.009 A 
HETATM   12  C   UNL     1      40.961 -14.786  -2.464  1.00  0.00     0.016 A 
HETATM   13  C   UNL     1      40.720 -13.968  -3.573  1.00  0.00     0.030 A 
HETATM   14  C   UNL     1      40.454 -12.609  -3.405  1.00  0.00     0.034 A 
HETATM   15  C   UNL     1      40.440 -12.078  -2.107  1.00  0.00     0.030 A 
HETATM   16  C   UNL     1      40.681 -12.895  -0.997  1.00  0.00     0.016 A 
BRANCH  14  17
HETATM   17  N   UNL     1      40.190 -11.721  -4.468  1.00  0.00    -0.328 N 
HETATM   18  C   UNL     1      41.064 -10.819  -5.047  1.00  0.00     0.218 C 
HETATM   19  C   UNL     1      40.432 -10.053  -6.183  1.00  0.00     0.117 C 
HETATM   20  O   UNL     1      42.237 -10.631  -4.747  1.00  0.00    -0.274 OA
HETATM   21  H   UNL     1      39.258 -11.766  -4.860  1.00  0.00     0.169 HD
ENDBRANCH  14  17
ENDBRANCH   1  11
BRANCH   8  22
HETATM   22  C   UNL     1      41.308 -14.914   3.535  1.00  0.00    -0.028 A 
HETATM   23  C   UNL     1      40.351 -14.306   4.368  1.00  0.00     0.028 A 
HETATM   24  C   UNL     1      40.753 -13.469   5.409  1.00  0.00     0.011 A 
HETATM   25 BR   UNL     1      39.449 -12.655   6.510  1.00  0.00    -0.051 Br
HETATM   26  C   UNL     1      42.104 -13.221   5.641  1.00  0.00     0.019 A 
HETATM   27  C   UNL     1      43.062 -13.811   4.819  1.00  0.00     0.002 A 
HETATM   28  C   UNL     1      42.669 -14.644   3.769  1.00  0.00     0.010 A 
ENDBRANCH   8  22
BRANCH   6  29
HETATM   29  C   UNL     1      43.912 -19.594   2.675  1.00  0.00     0.085 C 
BRANCH  29  30
HETATM   30  C   UNL     1      43.545 -20.942   2.054  1.00  0.00     0.034 C 
BRANCH  30  31
HETATM   31  C   UNL     1      44.722 -21.910   1.997  1.00  0.00     0.164 C 
BRANCH  31  32
HETATM   32  O   UNL     1      44.610 -22.865   3.047  1.00  0.00    -0.401 OA
HETATM   33  H   UNL     1      44.270 -22.403   3.831  1.00  0.00     0.209 HD
ENDBRANCH  31  32
ENDBRANCH  30  31
ENDBRANCH  29  30
ENDBRANCH   6  29
TORSDOF 7
ENDMDL
