MODEL 1
REMARK VINA RESULT:      -8.0      0.000      0.000
REMARK  8 active torsions:
REMARK  status: ('A' for Active; 'I' for Inactive)
REMARK    1  A    between atoms: C_2  and  C_3 
REMARK    2  A    between atoms: C_3  and  O_4 
REMARK    3  A    between atoms: O_4  and  C_5 
REMARK    4  A    between atoms: C_6  and  C_7 
REMARK    5  A    between atoms: C_11  and  C_12 
REMARK       I    between atoms: C_12  and  N_13 
REMARK    6  A    between atoms: N_13  and  N_14 
REMARK    7  A    between atoms: C_15  and  C_16 
REMARK    8  A    between atoms: C_18  and  O_19 
ROOT
HETATM    1  C   UNL     1      43.495 -18.573   1.896  1.00  0.00     0.092 A 
HETATM    2  N   UNL     1      44.352 -17.644   1.449  1.00  0.00    -0.174 NA
HETATM    3  N   UNL     1      43.567 -16.683   0.940  1.00  0.00    -0.272 N 
HETATM    4  H   UNL     1      43.999 -15.866   0.516  1.00  0.00     0.189 HD
HETATM    5  C   UNL     1      42.226 -16.906   1.100  1.00  0.00     0.121 A 
HETATM    6  C   UNL     1      42.151 -18.148   1.698  1.00  0.00     0.071 A 
ENDROOT
BRANCH   5   7
HETATM    7  C   UNL     1      41.248 -15.932   0.682  1.00  0.00     0.289 C 
HETATM    8  N   UNL     1      41.394 -15.495  -0.628  1.00  0.00    -0.242 N 
HETATM    9  H   UNL     1      42.137 -15.861  -1.207  1.00  0.00     0.192 HD
HETATM   10  O   UNL     1      40.354 -15.562   1.439  1.00  0.00    -0.264 OA
BRANCH   8  11
HETATM   11  N   UNL     1      40.471 -14.653  -1.179  1.00  0.00    -0.184 NA
HETATM   12  C   UNL     1      39.819 -15.125  -2.193  1.00  0.00     0.150 C 
BRANCH  12  13
HETATM   13  C   UNL     1      38.771 -14.338  -2.874  1.00  0.00    -0.014 A 
HETATM   14  C   UNL     1      37.783 -14.974  -3.630  1.00  0.00     0.049 A 
HETATM   15  C   UNL     1      36.820 -14.202  -4.270  1.00  0.00     0.066 A 
HETATM   16  C   UNL     1      36.829 -12.814  -4.165  1.00  0.00     0.036 A 
HETATM   17  C   UNL     1      37.817 -12.183  -3.407  1.00  0.00     0.004 A 
HETATM   18  C   UNL     1      38.791 -12.943  -2.758  1.00  0.00     0.013 A 
BRANCH  15  19
HETATM   19  O   UNL     1      35.836 -14.774  -5.022  1.00  0.00    -0.361 OA
HETATM   20  H   UNL     1      36.077 -15.700  -5.196  1.00  0.00     0.217 HD
ENDBRANCH  15  19
ENDBRANCH  12  13
ENDBRANCH   8  11
ENDBRANCH   5   7
BRANCH   1  21
HETATM   21  C   UNL     1      43.937 -19.796   2.567  1.00  0.00     0.028 A 
HETATM   22  C   UNL     1      44.388 -19.810   3.901  1.00  0.00     0.081 A 
HETATM   23  C   UNL     1      44.806 -21.022   4.470  1.00  0.00     0.038 A 
HETATM   24  C   UNL     1      44.762 -22.210   3.734  1.00  0.00     0.003 A 
HETATM   25  C   UNL     1      44.310 -22.199   2.419  1.00  0.00     0.001 A 
HETATM   26  C   UNL     1      43.902 -20.999   1.839  1.00  0.00     0.017 A 
BRANCH  22  27
HETATM   27  O   UNL     1      44.463 -18.611   4.565  1.00  0.00    -0.350 OA
BRANCH  27  28
HETATM   28  C   UNL     1      43.624 -18.467   5.712  1.00  0.00     0.175 C 
BRANCH  28  29
HETATM   29  C   UNL     1      42.501 -17.496   5.362  1.00  0.00     0.022 C 
HETATM   30  C   UNL     1      43.038 -16.208   4.762  1.00  0.00     0.007 C 
ENDBRANCH  28  29
ENDBRANCH  27  28
ENDBRANCH  22  27
ENDBRANCH   1  21
TORSDOF 8
ENDMDL
MODEL 2
REMARK VINA RESULT:      -7.7      1.059      1.455
REMARK  8 active torsions:
REMARK  status: ('A' for Active; 'I' for Inactive)
REMARK    1  A    between atoms: C_2  and  C_3 
REMARK    2  A    between atoms: C_3  and  O_4 
REMARK    3  A    between atoms: O_4  and  C_5 
REMARK    4  A    between atoms: C_6  and  C_7 
REMARK    5  A    between atoms: C_11  and  C_12 
REMARK       I    between atoms: C_12  and  N_13 
REMARK    6  A    between atoms: N_13  and  N_14 
REMARK    7  A    between atoms: C_15  and  C_16 
REMARK    8  A    between atoms: C_18  and  O_19 
ROOT
HETATM    1  C   UNL     1      43.471 -18.592   1.931  1.00  0.00     0.092 A 
HETATM    2  N   UNL     1      44.322 -17.703   1.402  1.00  0.00    -0.174 NA
HETATM    3  N   UNL     1      43.531 -16.767   0.857  1.00  0.00    -0.272 N 
HETATM    4  H   UNL     1      43.958 -15.983   0.371  1.00  0.00     0.189 HD
HETATM    5  C   UNL     1      42.193 -16.965   1.069  1.00  0.00     0.121 A 
HETATM    6  C   UNL     1      42.125 -18.166   1.746  1.00  0.00     0.071 A 
ENDROOT
BRANCH   5   7
HETATM    7  C   UNL     1      41.212 -16.007   0.620  1.00  0.00     0.289 C 
HETATM    8  N   UNL     1      41.415 -15.539  -0.672  1.00  0.00    -0.242 N 
HETATM    9  H   UNL     1      42.197 -15.873  -1.218  1.00  0.00     0.192 HD
HETATM   10  O   UNL     1      40.271 -15.677   1.335  1.00  0.00    -0.264 OA
BRANCH   8  11
HETATM   11  N   UNL     1      40.500 -14.710  -1.254  1.00  0.00    -0.184 NA
HETATM   12  C   UNL     1      39.829 -15.220  -2.237  1.00  0.00     0.150 C 
BRANCH  12  13
HETATM   13  C   UNL     1      38.786 -14.450  -2.945  1.00  0.00    -0.014 A 
HETATM   14  C   UNL     1      38.821 -13.053  -2.961  1.00  0.00     0.049 A 
HETATM   15  C   UNL     1      37.815 -12.360  -3.624  1.00  0.00     0.066 A 
HETATM   16  C   UNL     1      36.782 -13.036  -4.266  1.00  0.00     0.036 A 
HETATM   17  C   UNL     1      36.752 -14.432  -4.249  1.00  0.00     0.004 A 
HETATM   18  C   UNL     1      37.754 -15.144  -3.588  1.00  0.00     0.013 A 
BRANCH  15  19
HETATM   19  O   UNL     1      37.802 -10.996  -3.667  1.00  0.00    -0.361 OA
HETATM   20  H   UNL     1      37.935 -10.656  -2.766  1.00  0.00     0.217 HD
ENDBRANCH  15  19
ENDBRANCH  12  13
ENDBRANCH   8  11
ENDBRANCH   5   7
BRANCH   1  21
HETATM   21  C   UNL     1      43.921 -19.776   2.665  1.00  0.00     0.028 A 
HETATM   22  C   UNL     1      44.309 -19.730   4.017  1.00  0.00     0.081 A 
HETATM   23  C   UNL     1      44.740 -20.907   4.647  1.00  0.00     0.038 A 
HETATM   24  C   UNL     1      44.770 -22.119   3.952  1.00  0.00     0.003 A 
HETATM   25  C   UNL     1      44.380 -22.169   2.618  1.00  0.00     0.001 A 
HETATM   26  C   UNL     1      43.960 -21.004   1.978  1.00  0.00     0.017 A 
BRANCH  22  27
HETATM   27  O   UNL     1      44.312 -18.507   4.641  1.00  0.00    -0.350 OA
BRANCH  27  28
HETATM   28  C   UNL     1      45.073 -18.412   5.846  1.00  0.00     0.175 C 
BRANCH  28  29
HETATM   29  C   UNL     1      44.338 -17.475   6.801  1.00  0.00     0.022 C 
HETATM   30  C   UNL     1      42.830 -17.614   6.674  1.00  0.00     0.007 C 
ENDBRANCH  28  29
ENDBRANCH  27  28
ENDBRANCH  22  27
ENDBRANCH   1  21
TORSDOF 8
ENDMDL
MODEL 3
REMARK VINA RESULT:      -7.6      3.301      3.906
REMARK  8 active torsions:
REMARK  status: ('A' for Active; 'I' for Inactive)
REMARK    1  A    between atoms: C_2  and  C_3 
REMARK    2  A    between atoms: C_3  and  O_4 
REMARK    3  A    between atoms: O_4  and  C_5 
REMARK    4  A    between atoms: C_6  and  C_7 
REMARK    5  A    between atoms: C_11  and  C_12 
REMARK       I    between atoms: C_12  and  N_13 
REMARK    6  A    between atoms: N_13  and  N_14 
REMARK    7  A    between atoms: C_15  and  C_16 
REMARK    8  A    between atoms: C_18  and  O_19 
ROOT
HETATM    1  C   UNL     1      42.090 -17.548   1.868  1.00  0.00     0.092 A 
HETATM    2  N   UNL     1      40.768 -17.498   2.079  1.00  0.00    -0.174 NA
HETATM    3  N   UNL     1      40.347 -16.474   1.322  1.00  0.00    -0.272 N 
HETATM    4  H   UNL     1      39.361 -16.225   1.332  1.00  0.00     0.189 HD
HETATM    5  C   UNL     1      41.327 -15.893   0.564  1.00  0.00     0.121 A 
HETATM    6  C   UNL     1      42.482 -16.559   0.922  1.00  0.00     0.071 A 
ENDROOT
BRANCH   5   7
HETATM    7  C   UNL     1      41.026 -14.831  -0.366  1.00  0.00     0.289 C 
HETATM    8  N   UNL     1      42.118 -14.376  -1.093  1.00  0.00    -0.242 N 
HETATM    9  H   UNL     1      43.030 -14.788  -0.953  1.00  0.00     0.192 HD
HETATM   10  O   UNL     1      39.881 -14.408  -0.499  1.00  0.00    -0.264 OA
BRANCH   8  11
HETATM   11  N   UNL     1      41.948 -13.448  -2.080  1.00  0.00    -0.184 NA
HETATM   12  C   UNL     1      42.570 -12.326  -1.906  1.00  0.00     0.150 C 
BRANCH  12  13
HETATM   13  C   UNL     1      42.501 -11.240  -2.904  1.00  0.00    -0.014 A 
HETATM   14  C   UNL     1      42.638  -9.905  -2.512  1.00  0.00     0.049 A 
HETATM   15  C   UNL     1      42.553  -8.906  -3.475  1.00  0.00     0.066 A 
HETATM   16  C   UNL     1      42.336  -9.219  -4.814  1.00  0.00     0.036 A 
HETATM   17  C   UNL     1      42.201 -10.553  -5.201  1.00  0.00     0.004 A 
HETATM   18  C   UNL     1      42.284 -11.569  -4.246  1.00  0.00     0.013 A 
BRANCH  15  19
HETATM   19  O   UNL     1      42.678  -7.589  -3.145  1.00  0.00    -0.361 OA
HETATM   20  H   UNL     1      41.917  -7.105  -3.508  1.00  0.00     0.217 HD
ENDBRANCH  15  19
ENDBRANCH  12  13
ENDBRANCH   8  11
ENDBRANCH   5   7
BRANCH   1  21
HETATM   21  C   UNL     1      42.950 -18.558   2.485  1.00  0.00     0.028 A 
HETATM   22  C   UNL     1      43.497 -18.407   3.773  1.00  0.00     0.081 A 
HETATM   23  C   UNL     1      44.322 -19.416   4.290  1.00  0.00     0.038 A 
HETATM   24  C   UNL     1      44.591 -20.570   3.549  1.00  0.00     0.003 A 
HETATM   25  C   UNL     1      44.046 -20.725   2.279  1.00  0.00     0.001 A 
HETATM   26  C   UNL     1      43.232 -19.725   1.749  1.00  0.00     0.017 A 
BRANCH  22  27
HETATM   27  O   UNL     1      43.248 -17.233   4.441  1.00  0.00    -0.350 OA
BRANCH  27  28
HETATM   28  C   UNL     1      42.710 -17.354   5.758  1.00  0.00     0.175 C 
BRANCH  28  29
HETATM   29  C   UNL     1      41.210 -17.086   5.685  1.00  0.00     0.022 C 
HETATM   30  C   UNL     1      40.914 -15.684   5.180  1.00  0.00     0.007 C 
ENDBRANCH  28  29
ENDBRANCH  27  28
ENDBRANCH  22  27
ENDBRANCH   1  21
TORSDOF 8
ENDMDL
MODEL 4
REMARK VINA RESULT:      -7.6      2.287      2.642
REMARK  8 active torsions:
REMARK  status: ('A' for Active; 'I' for Inactive)
REMARK    1  A    between atoms: C_2  and  C_3 
REMARK    2  A    between atoms: C_3  and  O_4 
REMARK    3  A    between atoms: O_4  and  C_5 
REMARK    4  A    between atoms: C_6  and  C_7 
REMARK    5  A    between atoms: C_11  and  C_12 
REMARK       I    between atoms: C_12  and  N_13 
REMARK    6  A    between atoms: N_13  and  N_14 
REMARK    7  A    between atoms: C_15  and  C_16 
REMARK    8  A    between atoms: C_18  and  O_19 
ROOT
HETATM    1  C   UNL     1      43.155 -18.285   2.031  1.00  0.00     0.092 A 
HETATM    2  N   UNL     1      43.819 -17.543   1.134  1.00  0.00    -0.174 NA
HETATM    3  N   UNL     1      43.036 -16.471   0.942  1.00  0.00    -0.272 N 
HETATM    4  H   UNL     1      43.327 -15.761   0.275  1.00  0.00     0.189 HD
HETATM    5  C   UNL     1      41.918 -16.441   1.730  1.00  0.00     0.121 A 
HETATM    6  C   UNL     1      41.958 -17.628   2.433  1.00  0.00     0.071 A 
ENDROOT
BRANCH   5   7
HETATM    7  C   UNL     1      41.013 -15.317   1.706  1.00  0.00     0.289 C 
HETATM    8  N   UNL     1      39.904 -15.489   0.888  1.00  0.00    -0.242 N 
HETATM    9  H   UNL     1      39.780 -16.350   0.373  1.00  0.00     0.192 HD
HETATM   10  O   UNL     1      41.221 -14.318   2.388  1.00  0.00    -0.264 OA
BRANCH   8  11
HETATM   11  N   UNL     1      38.919 -14.545   0.858  1.00  0.00    -0.184 NA
HETATM   12  C   UNL     1      38.802 -13.894  -0.255  1.00  0.00     0.150 C 
BRANCH  12  13
HETATM   13  C   UNL     1      37.762 -12.862  -0.443  1.00  0.00    -0.014 A 
HETATM   14  C   UNL     1      36.986 -12.430   0.636  1.00  0.00     0.049 A 
HETATM   15  C   UNL     1      36.006 -11.467   0.420  1.00  0.00     0.066 A 
HETATM   16  C   UNL     1      35.792 -10.935  -0.847  1.00  0.00     0.036 A 
HETATM   17  C   UNL     1      36.570 -11.368  -1.922  1.00  0.00     0.004 A 
HETATM   18  C   UNL     1      37.559 -12.334  -1.723  1.00  0.00     0.013 A 
BRANCH  15  19
HETATM   19  O   UNL     1      35.221 -11.013   1.439  1.00  0.00    -0.361 OA
HETATM   20  H   UNL     1      34.930 -10.110   1.227  1.00  0.00     0.217 HD
ENDBRANCH  15  19
ENDBRANCH  12  13
ENDBRANCH   8  11
ENDBRANCH   5   7
BRANCH   1  21
HETATM   21  C   UNL     1      43.680 -19.546   2.555  1.00  0.00     0.028 A 
HETATM   22  C   UNL     1      44.239 -19.660   3.842  1.00  0.00     0.081 A 
HETATM   23  C   UNL     1      44.732 -20.903   4.268  1.00  0.00     0.038 A 
HETATM   24  C   UNL     1      44.657 -22.024   3.437  1.00  0.00     0.003 A 
HETATM   25  C   UNL     1      44.098 -21.916   2.169  1.00  0.00     0.001 A 
HETATM   26  C   UNL     1      43.614 -20.684   1.729  1.00  0.00     0.017 A 
BRANCH  22  27
HETATM   27  O   UNL     1      44.340 -18.520   4.601  1.00  0.00    -0.350 OA
BRANCH  27  28
HETATM   28  C   UNL     1      45.091 -18.626   5.810  1.00  0.00     0.175 C 
BRANCH  28  29
HETATM   29  C   UNL     1      44.721 -17.448   6.706  1.00  0.00     0.022 C 
HETATM   30  C   UNL     1      43.502 -17.753   7.560  1.00  0.00     0.007 C 
ENDBRANCH  28  29
ENDBRANCH  27  28
ENDBRANCH  22  27
ENDBRANCH   1  21
TORSDOF 8
ENDMDL
MODEL 5
REMARK VINA RESULT:      -7.5      4.925      6.636
REMARK  8 active torsions:
REMARK  status: ('A' for Active; 'I' for Inactive)
REMARK    1  A    between atoms: C_2  and  C_3 
REMARK    2  A    between atoms: C_3  and  O_4 
REMARK    3  A    between atoms: O_4  and  C_5 
REMARK    4  A    between atoms: C_6  and  C_7 
REMARK    5  A    between atoms: C_11  and  C_12 
REMARK       I    between atoms: C_12  and  N_13 
REMARK    6  A    between atoms: N_13  and  N_14 
REMARK    7  A    between atoms: C_15  and  C_16 
REMARK    8  A    between atoms: C_18  and  O_19 
ROOT
HETATM    1  C   UNL     1      43.236 -18.150   3.104  1.00  0.00     0.092 A 
HETATM    2  N   UNL     1      43.964 -17.128   2.633  1.00  0.00    -0.174 NA
HETATM    3  N   UNL     1      43.228 -16.040   2.904  1.00  0.00    -0.272 N 
HETATM    4  H   UNL     1      43.573 -15.128   2.618  1.00  0.00     0.189 HD
HETATM    5  C   UNL     1      42.078 -16.296   3.601  1.00  0.00     0.121 A 
HETATM    6  C   UNL     1      42.045 -17.671   3.721  1.00  0.00     0.071 A 
ENDROOT
BRANCH   5   7
HETATM    7  C   UNL     1      41.215 -15.228   4.042  1.00  0.00     0.289 C 
HETATM    8  N   UNL     1      41.716 -14.484   5.103  1.00  0.00    -0.242 N 
HETATM    9  H   UNL     1      42.618 -14.706   5.499  1.00  0.00     0.192 HD
HETATM   10  O   UNL     1      40.144 -15.003   3.484  1.00  0.00    -0.264 OA
BRANCH   8  11
HETATM   11  N   UNL     1      41.045 -13.381   5.546  1.00  0.00    -0.184 NA
HETATM   12  C   UNL     1      41.772 -12.477   6.121  1.00  0.00     0.150 C 
BRANCH  12  13
HETATM   13  C   UNL     1      41.189 -11.218   6.625  1.00  0.00    -0.014 A 
HETATM   14  C   UNL     1      39.963 -10.757   6.136  1.00  0.00     0.049 A 
HETATM   15  C   UNL     1      39.450  -9.560   6.622  1.00  0.00     0.066 A 
HETATM   16  C   UNL     1      40.137  -8.822   7.582  1.00  0.00     0.036 A 
HETATM   17  C   UNL     1      41.360  -9.287   8.068  1.00  0.00     0.004 A 
HETATM   18  C   UNL     1      41.890 -10.488   7.591  1.00  0.00     0.013 A 
BRANCH  15  19
HETATM   19  O   UNL     1      38.259  -9.065   6.177  1.00  0.00    -0.361 OA
HETATM   20  H   UNL     1      38.405  -8.632   5.319  1.00  0.00     0.217 HD
ENDBRANCH  15  19
ENDBRANCH  12  13
ENDBRANCH   8  11
ENDBRANCH   5   7
BRANCH   1  21
HETATM   21  C   UNL     1      43.692 -19.539   3.043  1.00  0.00     0.028 A 
HETATM   22  C   UNL     1      44.404 -20.151   4.092  1.00  0.00     0.081 A 
HETATM   23  C   UNL     1      44.818 -21.484   3.953  1.00  0.00     0.038 A 
HETATM   24  C   UNL     1      44.516 -22.209   2.797  1.00  0.00     0.003 A 
HETATM   25  C   UNL     1      43.806 -21.609   1.763  1.00  0.00     0.001 A 
HETATM   26  C   UNL     1      43.398 -20.281   1.885  1.00  0.00     0.017 A 
BRANCH  22  27
HETATM   27  O   UNL     1      44.723 -19.382   5.184  1.00  0.00    -0.350 OA
BRANCH  27  28
HETATM   28  C   UNL     1      44.026 -19.679   6.395  1.00  0.00     0.175 C 
BRANCH  28  29
HETATM   29  C   UNL     1      43.615 -18.359   7.042  1.00  0.00     0.022 C 
HETATM   30  C   UNL     1      44.464 -17.202   6.546  1.00  0.00     0.007 C 
ENDBRANCH  28  29
ENDBRANCH  27  28
ENDBRANCH  22  27
ENDBRANCH   1  21
TORSDOF 8
ENDMDL
MODEL 6
REMARK VINA RESULT:      -7.2      1.697      2.234
REMARK  8 active torsions:
REMARK  status: ('A' for Active; 'I' for Inactive)
REMARK    1  A    between atoms: C_2  and  C_3 
REMARK    2  A    between atoms: C_3  and  O_4 
REMARK    3  A    between atoms: O_4  and  C_5 
REMARK    4  A    between atoms: C_6  and  C_7 
REMARK    5  A    between atoms: C_11  and  C_12 
REMARK       I    between atoms: C_12  and  N_13 
REMARK    6  A    between atoms: N_13  and  N_14 
REMARK    7  A    between atoms: C_15  and  C_16 
REMARK    8  A    between atoms: C_18  and  O_19 
ROOT
HETATM    1  C   UNL     1      41.835 -17.109   1.896  1.00  0.00     0.092 A 
HETATM    2  N   UNL     1      40.558 -17.009   2.289  1.00  0.00    -0.174 NA
HETATM    3  N   UNL     1      40.038 -16.059   1.498  1.00  0.00    -0.272 N 
HETATM    4  H   UNL     1      39.065 -15.790   1.624  1.00  0.00     0.189 HD
HETATM    5  C   UNL     1      40.901 -15.579   0.550  1.00  0.00     0.121 A 
HETATM    6  C   UNL     1      42.091 -16.229   0.806  1.00  0.00     0.071 A 
ENDROOT
BRANCH   5   7
HETATM    7  C   UNL     1      40.475 -14.611  -0.432  1.00  0.00     0.289 C 
HETATM    8  N   UNL     1      39.827 -15.156  -1.533  1.00  0.00    -0.242 N 
HETATM    9  H   UNL     1      39.684 -16.154  -1.597  1.00  0.00     0.192 HD
HETATM   10  O   UNL     1      40.660 -13.409  -0.262  1.00  0.00    -0.264 OA
BRANCH   8  11
HETATM   11  N   UNL     1      39.282 -14.340  -2.482  1.00  0.00    -0.184 NA
HETATM   12  C   UNL     1      38.011 -14.486  -2.682  1.00  0.00     0.150 C 
BRANCH  12  13
HETATM   13  C   UNL     1      37.280 -13.653  -3.658  1.00  0.00    -0.014 A 
HETATM   14  C   UNL     1      36.349 -14.229  -4.527  1.00  0.00     0.049 A 
HETATM   15  C   UNL     1      35.690 -13.418  -5.445  1.00  0.00     0.066 A 
HETATM   16  C   UNL     1      35.945 -12.051  -5.505  1.00  0.00     0.036 A 
HETATM   17  C   UNL     1      36.874 -11.480  -4.634  1.00  0.00     0.004 A 
HETATM   18  C   UNL     1      37.545 -12.280  -3.707  1.00  0.00     0.013 A 
BRANCH  15  19
HETATM   19  O   UNL     1      34.775 -13.931  -6.316  1.00  0.00    -0.361 OA
HETATM   20  H   UNL     1      34.324 -14.678  -5.888  1.00  0.00     0.217 HD
ENDBRANCH  15  19
ENDBRANCH  12  13
ENDBRANCH   8  11
ENDBRANCH   5   7
BRANCH   1  21
HETATM   21  C   UNL     1      42.769 -18.069   2.484  1.00  0.00     0.028 A 
HETATM   22  C   UNL     1      43.512 -17.792   3.647  1.00  0.00     0.081 A 
HETATM   23  C   UNL     1      44.396 -18.761   4.143  1.00  0.00     0.038 A 
HETATM   24  C   UNL     1      44.533 -19.997   3.505  1.00  0.00     0.003 A 
HETATM   25  C   UNL     1      43.795 -20.276   2.360  1.00  0.00     0.001 A 
HETATM   26  C   UNL     1      42.919 -19.317   1.851  1.00  0.00     0.017 A 
BRANCH  22  27
HETATM   27  O   UNL     1      43.384 -16.545   4.207  1.00  0.00    -0.350 OA
BRANCH  27  28
HETATM   28  C   UNL     1      43.091 -16.504   5.604  1.00  0.00     0.175 C 
BRANCH  28  29
HETATM   29  C   UNL     1      41.716 -15.867   5.784  1.00  0.00     0.022 C 
HETATM   30  C   UNL     1      40.681 -16.884   6.234  1.00  0.00     0.007 C 
ENDBRANCH  28  29
ENDBRANCH  27  28
ENDBRANCH  22  27
ENDBRANCH   1  21
TORSDOF 8
ENDMDL
MODEL 7
REMARK VINA RESULT:      -7.2      6.985     10.786
REMARK  8 active torsions:
REMARK  status: ('A' for Active; 'I' for Inactive)
REMARK    1  A    between atoms: C_2  and  C_3 
REMARK    2  A    between atoms: C_3  and  O_4 
REMARK    3  A    between atoms: O_4  and  C_5 
REMARK    4  A    between atoms: C_6  and  C_7 
REMARK    5  A    between atoms: C_11  and  C_12 
REMARK       I    between atoms: C_12  and  N_13 
REMARK    6  A    between atoms: N_13  and  N_14 
REMARK    7  A    between atoms: C_15  and  C_16 
REMARK    8  A    between atoms: C_18  and  O_19 
ROOT
HETATM    1  C   UNL     1      43.763 -15.650   6.059  1.00  0.00     0.092 A 
HETATM    2  N   UNL     1      43.109 -14.656   5.443  1.00  0.00    -0.174 NA
HETATM    3  N   UNL     1      43.239 -13.608   6.269  1.00  0.00    -0.272 N 
HETATM    4  H   UNL     1      42.801 -12.725   6.019  1.00  0.00     0.189 HD
HETATM    5  C   UNL     1      44.015 -13.850   7.371  1.00  0.00     0.121 A 
HETATM    6  C   UNL     1      44.348 -15.186   7.272  1.00  0.00     0.071 A 
ENDROOT
BRANCH   5   7
HETATM    7  C   UNL     1      44.322 -12.805   8.317  1.00  0.00     0.289 C 
HETATM    8  N   UNL     1      43.386 -11.781   8.367  1.00  0.00    -0.242 N 
HETATM    9  H   UNL     1      42.569 -11.808   7.773  1.00  0.00     0.192 HD
HETATM   10  O   UNL     1      45.323 -12.864   9.026  1.00  0.00    -0.264 OA
BRANCH   8  11
HETATM   11  N   UNL     1      43.505 -10.786   9.294  1.00  0.00    -0.184 NA
HETATM   12  C   UNL     1      42.453 -10.565  10.015  1.00  0.00     0.150 C 
BRANCH  12  13
HETATM   13  C   UNL     1      42.442  -9.539  11.077  1.00  0.00    -0.014 A 
HETATM   14  C   UNL     1      43.067  -9.779  12.304  1.00  0.00     0.049 A 
HETATM   15  C   UNL     1      43.025  -8.797  13.287  1.00  0.00     0.066 A 
HETATM   16  C   UNL     1      42.374  -7.587  13.064  1.00  0.00     0.036 A 
HETATM   17  C   UNL     1      41.753  -7.351  11.836  1.00  0.00     0.004 A 
HETATM   18  C   UNL     1      41.786  -8.326  10.838  1.00  0.00     0.013 A 
BRANCH  15  19
HETATM   19  O   UNL     1      43.617  -8.983  14.502  1.00  0.00    -0.361 OA
HETATM   20  H   UNL     1      44.074  -9.841  14.496  1.00  0.00     0.217 HD
ENDBRANCH  15  19
ENDBRANCH  12  13
ENDBRANCH   8  11
ENDBRANCH   5   7
BRANCH   1  21
HETATM   21  C   UNL     1      43.899 -16.986   5.477  1.00  0.00     0.028 A 
HETATM   22  C   UNL     1      43.204 -17.385   4.320  1.00  0.00     0.081 A 
HETATM   23  C   UNL     1      43.379 -18.687   3.829  1.00  0.00     0.038 A 
HETATM   24  C   UNL     1      44.245 -19.580   4.466  1.00  0.00     0.003 A 
HETATM   25  C   UNL     1      44.939 -19.186   5.605  1.00  0.00     0.001 A 
HETATM   26  C   UNL     1      44.766 -17.897   6.109  1.00  0.00     0.017 A 
BRANCH  22  27
HETATM   27  O   UNL     1      42.324 -16.491   3.761  1.00  0.00    -0.350 OA
BRANCH  27  28
HETATM   28  C   UNL     1      41.011 -16.981   3.484  1.00  0.00     0.175 C 
BRANCH  28  29
HETATM   29  C   UNL     1      40.617 -16.522   2.083  1.00  0.00     0.022 C 
HETATM   30  C   UNL     1      41.210 -17.419   1.011  1.00  0.00     0.007 C 
ENDBRANCH  28  29
ENDBRANCH  27  28
ENDBRANCH  22  27
ENDBRANCH   1  21
TORSDOF 8
ENDMDL
MODEL 8
REMARK VINA RESULT:      -7.1      6.375     10.104
REMARK  8 active torsions:
REMARK  status: ('A' for Active; 'I' for Inactive)
REMARK    1  A    between atoms: C_2  and  C_3 
REMARK    2  A    between atoms: C_3  and  O_4 
REMARK    3  A    between atoms: O_4  and  C_5 
REMARK    4  A    between atoms: C_6  and  C_7 
REMARK    5  A    between atoms: C_11  and  C_12 
REMARK       I    between atoms: C_12  and  N_13 
REMARK    6  A    between atoms: N_13  and  N_14 
REMARK    7  A    between atoms: C_15  and  C_16 
REMARK    8  A    between atoms: C_18  and  O_19 
ROOT
HETATM    1  C   UNL     1      43.152 -15.548   4.619  1.00  0.00     0.092 A 
HETATM    2  N   UNL     1      42.192 -14.625   4.475  1.00  0.00    -0.174 NA
HETATM    3  N   UNL     1      42.369 -13.794   5.512  1.00  0.00    -0.272 N 
HETATM    4  H   UNL     1      41.735 -13.008   5.629  1.00  0.00     0.189 HD
HETATM    5  C   UNL     1      43.453 -14.090   6.294  1.00  0.00     0.121 A 
HETATM    6  C   UNL     1      43.967 -15.249   5.747  1.00  0.00     0.071 A 
ENDROOT
BRANCH   5   7
HETATM    7  C   UNL     1      43.831 -13.248   7.402  1.00  0.00     0.289 C 
HETATM    8  N   UNL     1      43.064 -12.099   7.541  1.00  0.00    -0.242 N 
HETATM    9  H   UNL     1      42.308 -11.911   6.897  1.00  0.00     0.192 HD
HETATM   10  O   UNL     1      44.744 -13.566   8.160  1.00  0.00    -0.264 OA
BRANCH   8  11
HETATM   11  N   UNL     1      43.251 -11.272   8.611  1.00  0.00    -0.184 NA
HETATM   12  C   UNL     1      42.188 -10.681   9.054  1.00  0.00     0.150 C 
BRANCH  12  13
HETATM   13  C   UNL     1      42.233  -9.780  10.223  1.00  0.00    -0.014 A 
HETATM   14  C   UNL     1      43.034 -10.086  11.326  1.00  0.00     0.049 A 
HETATM   15  C   UNL     1      43.041  -9.222  12.416  1.00  0.00     0.066 A 
HETATM   16  C   UNL     1      42.265  -8.067  12.419  1.00  0.00     0.036 A 
HETATM   17  C   UNL     1      41.468  -7.764  11.314  1.00  0.00     0.004 A 
HETATM   18  C   UNL     1      41.449  -8.620  10.212  1.00  0.00     0.013 A 
BRANCH  15  19
HETATM   19  O   UNL     1      43.803  -9.477  13.518  1.00  0.00    -0.361 OA
HETATM   20  H   UNL     1      43.387 -10.194  14.025  1.00  0.00     0.217 HD
ENDBRANCH  15  19
ENDBRANCH  12  13
ENDBRANCH   8  11
ENDBRANCH   5   7
BRANCH   1  21
HETATM   21  C   UNL     1      43.344 -16.643   3.666  1.00  0.00     0.028 A 
HETATM   22  C   UNL     1      43.063 -17.985   3.985  1.00  0.00     0.081 A 
HETATM   23  C   UNL     1      43.285 -18.979   3.020  1.00  0.00     0.038 A 
HETATM   24  C   UNL     1      43.763 -18.648   1.749  1.00  0.00     0.003 A 
HETATM   25  C   UNL     1      44.034 -17.322   1.430  1.00  0.00     0.001 A 
HETATM   26  C   UNL     1      43.827 -16.325   2.383  1.00  0.00     0.017 A 
BRANCH  22  27
HETATM   27  O   UNL     1      42.647 -18.267   5.262  1.00  0.00    -0.350 OA
BRANCH  27  28
HETATM   28  C   UNL     1      43.337 -19.320   5.937  1.00  0.00     0.175 C 
BRANCH  28  29
HETATM   29  C   UNL     1      44.529 -18.714   6.671  1.00  0.00     0.022 C 
HETATM   30  C   UNL     1      44.183 -18.356   8.106  1.00  0.00     0.007 C 
ENDBRANCH  28  29
ENDBRANCH  27  28
ENDBRANCH  22  27
ENDBRANCH   1  21
TORSDOF 8
ENDMDL
MODEL 9
REMARK VINA RESULT:      -7.1      4.958      9.147
REMARK  8 active torsions:
REMARK  status: ('A' for Active; 'I' for Inactive)
REMARK    1  A    between atoms: C_2  and  C_3 
REMARK    2  A    between atoms: C_3  and  O_4 
REMARK    3  A    between atoms: O_4  and  C_5 
REMARK    4  A    between atoms: C_6  and  C_7 
REMARK    5  A    between atoms: C_11  and  C_12 
REMARK       I    between atoms: C_12  and  N_13 
REMARK    6  A    between atoms: N_13  and  N_14 
REMARK    7  A    between atoms: C_15  and  C_16 
REMARK    8  A    between atoms: C_18  and  O_19 
ROOT
HETATM    1  C   UNL     1      44.442 -18.729   4.734  1.00  0.00     0.092 A 
HETATM    2  N   UNL     1      45.341 -18.710   5.727  1.00  0.00    -0.174 NA
HETATM    3  N   UNL     1      45.109 -17.554   6.366  1.00  0.00    -0.272 N 
HETATM    4  H   UNL     1      45.692 -17.305   7.161  1.00  0.00     0.189 HD
HETATM    5  C   UNL     1      44.046 -16.844   5.879  1.00  0.00     0.121 A 
HETATM    6  C   UNL     1      43.608 -17.577   4.794  1.00  0.00     0.071 A 
ENDROOT
BRANCH   5   7
HETATM    7  C   UNL     1      43.613 -15.618   6.504  1.00  0.00     0.289 C 
HETATM    8  N   UNL     1      44.643 -14.823   6.989  1.00  0.00    -0.242 N 
HETATM    9  H   UNL     1      45.604 -15.118   6.886  1.00  0.00     0.192 HD
HETATM   10  O   UNL     1      42.423 -15.318   6.560  1.00  0.00    -0.264 OA
BRANCH   8  11
HETATM   11  N   UNL     1      44.374 -13.590   7.508  1.00  0.00    -0.184 NA
HETATM   12  C   UNL     1      44.489 -13.486   8.794  1.00  0.00     0.150 C 
BRANCH  12  13
HETATM   13  C   UNL     1      44.256 -12.206   9.492  1.00  0.00    -0.014 A 
HETATM   14  C   UNL     1      43.177 -11.391   9.140  1.00  0.00     0.049 A 
HETATM   15  C   UNL     1      42.996 -10.184   9.808  1.00  0.00     0.066 A 
HETATM   16  C   UNL     1      43.871  -9.784  10.813  1.00  0.00     0.036 A 
HETATM   17  C   UNL     1      44.947 -10.602  11.162  1.00  0.00     0.004 A 
HETATM   18  C   UNL     1      45.143 -11.817  10.502  1.00  0.00     0.013 A 
BRANCH  15  19
HETATM   19  O   UNL     1      41.960  -9.352   9.501  1.00  0.00    -0.361 OA
HETATM   20  H   UNL     1      41.702  -8.869  10.305  1.00  0.00     0.217 HD
ENDBRANCH  15  19
ENDBRANCH  12  13
ENDBRANCH   8  11
ENDBRANCH   5   7
BRANCH   1  21
HETATM   21  C   UNL     1      44.322 -19.848   3.799  1.00  0.00     0.028 A 
HETATM   22  C   UNL     1      43.666 -19.734   2.558  1.00  0.00     0.081 A 
HETATM   23  C   UNL     1      43.582 -20.857   1.721  1.00  0.00     0.038 A 
HETATM   24  C   UNL     1      44.156 -22.075   2.100  1.00  0.00     0.003 A 
HETATM   25  C   UNL     1      44.811 -22.187   3.321  1.00  0.00     0.001 A 
HETATM   26  C   UNL     1      44.892 -21.081   4.167  1.00  0.00     0.017 A 
BRANCH  22  27
HETATM   27  O   UNL     1      43.072 -18.534   2.255  1.00  0.00    -0.350 OA
BRANCH  27  28
HETATM   28  C   UNL     1      43.589 -17.840   1.119  1.00  0.00     0.175 C 
BRANCH  28  29
HETATM   29  C   UNL     1      42.499 -16.910   0.593  1.00  0.00     0.022 C 
HETATM   30  C   UNL     1      41.127 -17.301   1.115  1.00  0.00     0.007 C 
ENDBRANCH  28  29
ENDBRANCH  27  28
ENDBRANCH  22  27
ENDBRANCH   1  21
TORSDOF 8
ENDMDL
MODEL 10
REMARK VINA RESULT:      -7.1      3.313      4.688
REMARK  8 active torsions:
REMARK  status: ('A' for Active; 'I' for Inactive)
REMARK    1  A    between atoms: C_2  and  C_3 
REMARK    2  A    between atoms: C_3  and  O_4 
REMARK    3  A    between atoms: O_4  and  C_5 
REMARK    4  A    between atoms: C_6  and  C_7 
REMARK    5  A    between atoms: C_11  and  C_12 
REMARK       I    between atoms: C_12  and  N_13 
REMARK    6  A    between atoms: N_13  and  N_14 
REMARK    7  A    between atoms: C_15  and  C_16 
REMARK    8  A    between atoms: C_18  and  O_19 
ROOT
HETATM    1  C   UNL     1      41.849 -16.594   4.312  1.00  0.00     0.092 A 
HETATM    2  N   UNL     1      40.841 -17.281   3.758  1.00  0.00    -0.174 NA
HETATM    3  N   UNL     1      40.374 -16.473   2.796  1.00  0.00    -0.272 N 
HETATM    4  H   UNL     1      39.579 -16.777   2.239  1.00  0.00     0.189 HD
HETATM    5  C   UNL     1      41.079 -15.310   2.644  1.00  0.00     0.121 A 
HETATM    6  C   UNL     1      42.033 -15.352   3.641  1.00  0.00     0.071 A 
ENDROOT
BRANCH   5   7
HETATM    7  C   UNL     1      40.757 -14.368   1.600  1.00  0.00     0.289 C 
HETATM    8  N   UNL     1      41.785 -13.491   1.279  1.00  0.00    -0.242 N 
HETATM    9  H   UNL     1      42.671 -13.547   1.761  1.00  0.00     0.192 HD
HETATM   10  O   UNL     1      39.664 -14.387   1.041  1.00  0.00    -0.264 OA
BRANCH   8  11
HETATM   11  N   UNL     1      41.645 -12.620   0.237  1.00  0.00    -0.184 NA
HETATM   12  C   UNL     1      42.573 -12.671  -0.663  1.00  0.00     0.150 C 
BRANCH  12  13
HETATM   13  C   UNL     1      42.540 -11.808  -1.861  1.00  0.00    -0.014 A 
HETATM   14  C   UNL     1      42.729 -10.428  -1.748  1.00  0.00     0.049 A 
HETATM   15  C   UNL     1      42.676  -9.643  -2.895  1.00  0.00     0.066 A 
HETATM   16  C   UNL     1      42.439 -10.212  -4.142  1.00  0.00     0.036 A 
HETATM   17  C   UNL     1      42.252 -11.591  -4.251  1.00  0.00     0.004 A 
HETATM   18  C   UNL     1      42.302 -12.394  -3.110  1.00  0.00     0.013 A 
BRANCH  15  19
HETATM   19  O   UNL     1      42.851  -8.291  -2.838  1.00  0.00    -0.361 OA
HETATM   20  H   UNL     1      41.978  -7.865  -2.829  1.00  0.00     0.217 HD
ENDBRANCH  15  19
ENDBRANCH  12  13
ENDBRANCH   8  11
ENDBRANCH   5   7
BRANCH   1  21
HETATM   21  C   UNL     1      42.670 -17.132   5.397  1.00  0.00     0.028 A 
HETATM   22  C   UNL     1      43.858 -17.850   5.166  1.00  0.00     0.081 A 
HETATM   23  C   UNL     1      44.584 -18.345   6.261  1.00  0.00     0.038 A 
HETATM   24  C   UNL     1      44.148 -18.117   7.569  1.00  0.00     0.003 A 
HETATM   25  C   UNL     1      42.978 -17.401   7.800  1.00  0.00     0.001 A 
HETATM   26  C   UNL     1      42.243 -16.913   6.720  1.00  0.00     0.017 A 
BRANCH  22  27
HETATM   27  O   UNL     1      44.217 -18.094   3.864  1.00  0.00    -0.350 OA
BRANCH  27  28
HETATM   28  C   UNL     1      43.970 -19.412   3.374  1.00  0.00     0.175 C 
BRANCH  28  29
HETATM   29  C   UNL     1      43.366 -19.296   1.977  1.00  0.00     0.022 C 
HETATM   30  C   UNL     1      43.689 -17.957   1.336  1.00  0.00     0.007 C 
ENDBRANCH  28  29
ENDBRANCH  27  28
ENDBRANCH  22  27
ENDBRANCH   1  21
TORSDOF 8
ENDMDL
