MODEL 1
REMARK VINA RESULT:      -9.2      0.000      0.000
REMARK  3 active torsions:
REMARK  status: ('A' for Active; 'I' for Inactive)
REMARK    1  A    between atoms: C_10  and  C_11 
REMARK    2  A    between atoms: C_13  and  C_14 
REMARK    3  A    between atoms: C_22  and  O_23 
ROOT
HETATM    1  C   UNL     1      39.508 -12.100   1.796  1.00  0.00     0.001 A 
HETATM    2  C   UNL     1      40.288 -13.177   1.363  1.00  0.00     0.015 A 
HETATM    3  C   UNL     1      40.681 -14.168   2.266  1.00  0.00     0.013 A 
HETATM    4  C   UNL     1      40.283 -14.066   3.608  1.00  0.00     0.046 A 
HETATM    5  C   UNL     1      40.682 -15.132   4.568  1.00  0.00     0.271 A 
HETATM    6  O   UNL     1      40.262 -15.140   5.720  1.00  0.00    -0.266 OA
HETATM    7  N   UNL     1      41.532 -16.121   4.127  1.00  0.00    -0.257 N 
HETATM    8  N   UNL     1      41.908 -16.205   2.832  1.00  0.00    -0.229 N 
HETATM    9  C   UNL     1      41.493 -15.309   1.888  1.00  0.00     0.122 A 
HETATM   10  C   UNL     1      42.712 -17.164   2.256  1.00  0.00     0.162 A 
HETATM   11  N   UNL     1      42.750 -16.960   0.946  1.00  0.00    -0.202 NA
HETATM   12  C   UNL     1      42.026 -15.823   0.730  1.00  0.00     0.194 A 
HETATM   13  C   UNL     1      39.500 -12.991   4.041  1.00  0.00     0.018 A 
HETATM   14  C   UNL     1      39.115 -12.007   3.132  1.00  0.00     0.001 A 
HETATM   15  H   UNL     1      41.651 -16.936   4.712  1.00  0.00     0.191 HD
ENDROOT
BRANCH  10  16
HETATM   16  C   UNL     1      43.395 -18.261   2.948  1.00  0.00     0.013 A 
HETATM   17  C   UNL     1      43.491 -19.511   2.318  1.00  0.00     0.031 A 
HETATM   18  C   UNL     1      44.155 -20.587   2.929  1.00  0.00     0.048 A 
HETATM   19  C   UNL     1      44.725 -20.398   4.197  1.00  0.00     0.016 A 
HETATM   20  C   UNL     1      44.653 -19.155   4.825  1.00  0.00     0.002 A 
HETATM   21  C   UNL     1      44.001 -18.090   4.200  1.00  0.00     0.015 A 
BRANCH  18  22
HETATM   22  C   UNL     1      44.248 -21.932   2.252  1.00  0.00     0.417 C 
HETATM   23  F   UNL     1      43.114 -22.287   1.587  1.00  0.00    -0.166 F 
HETATM   24  F   UNL     1      45.252 -21.988   1.333  1.00  0.00    -0.166 F 
HETATM   25  F   UNL     1      44.493 -22.938   3.136  1.00  0.00    -0.166 F 
ENDBRANCH  18  22
ENDBRANCH  10  16
BRANCH  12  26
HETATM   26  O   UNL     1      41.865 -15.293  -0.483  1.00  0.00    -0.343 OA
HETATM   27  H   UNL     1      40.968 -14.914  -0.492  1.00  0.00     0.219 HD
ENDBRANCH  12  26
TORSDOF 3
ENDMDL
MODEL 2
REMARK VINA RESULT:      -9.2      4.423      7.282
REMARK  3 active torsions:
REMARK  status: ('A' for Active; 'I' for Inactive)
REMARK    1  A    between atoms: C_10  and  C_11 
REMARK    2  A    between atoms: C_13  and  C_14 
REMARK    3  A    between atoms: C_22  and  O_23 
ROOT
HETATM    1  C   UNL     1      44.441 -21.912   1.996  1.00  0.00     0.001 A 
HETATM    2  C   UNL     1      44.150 -20.563   1.771  1.00  0.00     0.015 A 
HETATM    3  C   UNL     1      44.058 -19.675   2.847  1.00  0.00     0.013 A 
HETATM    4  C   UNL     1      44.260 -20.157   4.150  1.00  0.00     0.046 A 
HETATM    5  C   UNL     1      44.184 -19.209   5.295  1.00  0.00     0.271 A 
HETATM    6  O   UNL     1      44.465 -19.564   6.435  1.00  0.00    -0.266 OA
HETATM    7  N   UNL     1      43.796 -17.912   5.044  1.00  0.00    -0.257 N 
HETATM    8  N   UNL     1      43.603 -17.464   3.784  1.00  0.00    -0.229 N 
HETATM    9  C   UNL     1      43.754 -18.266   2.689  1.00  0.00     0.122 A 
HETATM   10  C   UNL     1      43.260 -16.188   3.395  1.00  0.00     0.162 A 
HETATM   11  N   UNL     1      43.278 -16.125   2.070  1.00  0.00    -0.202 NA
HETATM   12  C   UNL     1      43.558 -17.391   1.647  1.00  0.00     0.194 A 
HETATM   13  C   UNL     1      44.555 -21.505   4.375  1.00  0.00     0.018 A 
HETATM   14  C   UNL     1      44.643 -22.383   3.295  1.00  0.00     0.001 A 
HETATM   15  H   UNL     1      43.924 -17.231   5.779  1.00  0.00     0.191 HD
ENDROOT
BRANCH  10  16
HETATM   16  C   UNL     1      42.957 -15.057   4.279  1.00  0.00     0.013 A 
HETATM   17  C   UNL     1      43.789 -14.812   5.382  1.00  0.00     0.031 A 
HETATM   18  C   UNL     1      43.555 -13.729   6.245  1.00  0.00     0.048 A 
HETATM   19  C   UNL     1      42.461 -12.887   5.992  1.00  0.00     0.016 A 
HETATM   20  C   UNL     1      41.640 -13.109   4.888  1.00  0.00     0.002 A 
HETATM   21  C   UNL     1      41.892 -14.182   4.031  1.00  0.00     0.015 A 
BRANCH  18  22
HETATM   22  C   UNL     1      44.446 -13.475   7.436  1.00  0.00     0.417 C 
HETATM   23  F   UNL     1      45.760 -13.328   7.113  1.00  0.00    -0.166 F 
HETATM   24  F   UNL     1      44.102 -12.345   8.116  1.00  0.00    -0.166 F 
HETATM   25  F   UNL     1      44.394 -14.487   8.344  1.00  0.00    -0.166 F 
ENDBRANCH  18  22
ENDBRANCH  10  16
BRANCH  12  26
HETATM   26  O   UNL     1      43.631 -17.718   0.355  1.00  0.00    -0.343 OA
HETATM   27  H   UNL     1      44.527 -18.076   0.221  1.00  0.00     0.219 HD
ENDBRANCH  12  26
TORSDOF 3
ENDMDL
MODEL 3
REMARK VINA RESULT:      -9.1      5.230      8.398
REMARK  3 active torsions:
REMARK  status: ('A' for Active; 'I' for Inactive)
REMARK    1  A    between atoms: C_10  and  C_11 
REMARK    2  A    between atoms: C_13  and  C_14 
REMARK    3  A    between atoms: C_22  and  O_23 
ROOT
HETATM    1  C   UNL     1      44.705 -22.711   4.517  1.00  0.00     0.001 A 
HETATM    2  C   UNL     1      44.437 -21.733   5.481  1.00  0.00     0.015 A 
HETATM    3  C   UNL     1      44.229 -20.406   5.096  1.00  0.00     0.013 A 
HETATM    4  C   UNL     1      44.292 -20.070   3.735  1.00  0.00     0.046 A 
HETATM    5  C   UNL     1      44.048 -18.661   3.322  1.00  0.00     0.271 A 
HETATM    6  O   UNL     1      43.982 -18.349   2.137  1.00  0.00    -0.266 OA
HETATM    7  N   UNL     1      43.889 -17.712   4.305  1.00  0.00    -0.257 N 
HETATM    8  N   UNL     1      43.832 -18.050   5.612  1.00  0.00    -0.229 N 
HETATM    9  C   UNL     1      43.952 -19.341   6.041  1.00  0.00     0.122 A 
HETATM   10  C   UNL     1      43.632 -17.209   6.684  1.00  0.00     0.162 A 
HETATM   11  N   UNL     1      43.528 -17.938   7.787  1.00  0.00    -0.202 NA
HETATM   12  C   UNL     1      43.743 -19.227   7.395  1.00  0.00     0.194 A 
HETATM   13  C   UNL     1      44.556 -21.048   2.770  1.00  0.00     0.018 A 
HETATM   14  C   UNL     1      44.765 -22.369   3.165  1.00  0.00     0.001 A 
HETATM   15  H   UNL     1      43.541 -16.803   4.031  1.00  0.00     0.191 HD
ENDROOT
BRANCH  10  16
HETATM   16  C   UNL     1      43.514 -15.748   6.638  1.00  0.00     0.013 A 
HETATM   17  C   UNL     1      44.383 -14.968   7.416  1.00  0.00     0.031 A 
HETATM   18  C   UNL     1      44.325 -13.565   7.389  1.00  0.00     0.048 A 
HETATM   19  C   UNL     1      43.372 -12.943   6.569  1.00  0.00     0.016 A 
HETATM   20  C   UNL     1      42.516 -13.706   5.777  1.00  0.00     0.002 A 
HETATM   21  C   UNL     1      42.593 -15.101   5.804  1.00  0.00     0.015 A 
BRANCH  18  22
HETATM   22  C   UNL     1      45.255 -12.730   8.235  1.00  0.00     0.417 C 
HETATM   23  F   UNL     1      46.512 -12.624   7.722  1.00  0.00    -0.166 F 
HETATM   24  F   UNL     1      44.811 -11.452   8.398  1.00  0.00    -0.166 F 
HETATM   25  F   UNL     1      45.405 -13.236   9.490  1.00  0.00    -0.166 F 
ENDBRANCH  18  22
ENDBRANCH  10  16
BRANCH  12  26
HETATM   26  O   UNL     1      43.740 -20.250   8.253  1.00  0.00    -0.343 OA
HETATM   27  H   UNL     1      43.201 -20.945   7.837  1.00  0.00     0.219 HD
ENDBRANCH  12  26
TORSDOF 3
ENDMDL
MODEL 4
REMARK VINA RESULT:      -9.1      4.511      8.049
REMARK  3 active torsions:
REMARK  status: ('A' for Active; 'I' for Inactive)
REMARK    1  A    between atoms: C_10  and  C_11 
REMARK    2  A    between atoms: C_13  and  C_14 
REMARK    3  A    between atoms: C_22  and  O_23 
ROOT
HETATM    1  C   UNL     1      44.852 -22.841   4.520  1.00  0.00     0.001 A 
HETATM    2  C   UNL     1      44.521 -21.840   5.440  1.00  0.00     0.015 A 
HETATM    3  C   UNL     1      44.227 -20.548   4.997  1.00  0.00     0.013 A 
HETATM    4  C   UNL     1      44.270 -20.270   3.622  1.00  0.00     0.046 A 
HETATM    5  C   UNL     1      43.936 -18.899   3.146  1.00  0.00     0.271 A 
HETATM    6  O   UNL     1      43.851 -18.645   1.950  1.00  0.00    -0.266 OA
HETATM    7  N   UNL     1      43.715 -17.919   4.086  1.00  0.00    -0.257 N 
HETATM    8  N   UNL     1      43.679 -18.202   5.408  1.00  0.00    -0.229 N 
HETATM    9  C   UNL     1      43.882 -19.462   5.894  1.00  0.00     0.122 A 
HETATM   10  C   UNL     1      43.424 -17.328   6.442  1.00  0.00     0.162 A 
HETATM   11  N   UNL     1      43.367 -18.013   7.576  1.00  0.00    -0.202 NA
HETATM   12  C   UNL     1      43.665 -19.302   7.242  1.00  0.00     0.194 A 
HETATM   13  C   UNL     1      44.597 -21.271   2.701  1.00  0.00     0.018 A 
HETATM   14  C   UNL     1      44.891 -22.557   3.154  1.00  0.00     0.001 A 
HETATM   15  H   UNL     1      43.309 -17.049   3.773  1.00  0.00     0.191 HD
ENDROOT
BRANCH  10  16
HETATM   16  C   UNL     1      43.211 -15.882   6.330  1.00  0.00     0.013 A 
HETATM   17  C   UNL     1      41.964 -15.407   5.896  1.00  0.00     0.031 A 
HETATM   18  C   UNL     1      41.703 -14.031   5.794  1.00  0.00     0.048 A 
HETATM   19  C   UNL     1      42.719 -13.123   6.130  1.00  0.00     0.016 A 
HETATM   20  C   UNL     1      43.955 -13.582   6.582  1.00  0.00     0.002 A 
HETATM   21  C   UNL     1      44.197 -14.953   6.691  1.00  0.00     0.015 A 
BRANCH  18  22
HETATM   22  C   UNL     1      40.364 -13.524   5.318  1.00  0.00     0.417 C 
HETATM   23  F   UNL     1      39.679 -12.821   6.261  1.00  0.00    -0.166 F 
HETATM   24  F   UNL     1      40.470 -12.697   4.241  1.00  0.00    -0.166 F 
HETATM   25  F   UNL     1      39.538 -14.535   4.932  1.00  0.00    -0.166 F 
ENDBRANCH  18  22
ENDBRANCH  10  16
BRANCH  12  26
HETATM   26  O   UNL     1      43.727 -20.283   8.144  1.00  0.00    -0.343 OA
HETATM   27  H   UNL     1      44.456 -20.861   7.859  1.00  0.00     0.219 HD
ENDBRANCH  12  26
TORSDOF 3
ENDMDL
MODEL 5
REMARK VINA RESULT:      -8.9      1.919      3.311
REMARK  3 active torsions:
REMARK  status: ('A' for Active; 'I' for Inactive)
REMARK    1  A    between atoms: C_10  and  C_11 
REMARK    2  A    between atoms: C_13  and  C_14 
REMARK    3  A    between atoms: C_22  and  O_23 
ROOT
HETATM    1  C   UNL     1      40.510 -12.739   5.429  1.00  0.00     0.001 A 
HETATM    2  C   UNL     1      41.462 -13.667   5.864  1.00  0.00     0.015 A 
HETATM    3  C   UNL     1      41.625 -14.877   5.183  1.00  0.00     0.013 A 
HETATM    4  C   UNL     1      40.822 -15.145   4.064  1.00  0.00     0.046 A 
HETATM    5  C   UNL     1      41.010 -16.424   3.324  1.00  0.00     0.271 A 
HETATM    6  O   UNL     1      40.410 -16.647   2.278  1.00  0.00    -0.266 OA
HETATM    7  N   UNL     1      41.884 -17.353   3.841  1.00  0.00    -0.257 N 
HETATM    8  N   UNL     1      42.648 -17.081   4.921  1.00  0.00    -0.229 N 
HETATM    9  C   UNL     1      42.587 -15.886   5.581  1.00  0.00     0.122 A 
HETATM   10  C   UNL     1      43.588 -17.900   5.507  1.00  0.00     0.162 A 
HETATM   11  N   UNL     1      44.201 -17.227   6.472  1.00  0.00    -0.202 NA
HETATM   12  C   UNL     1      43.577 -16.014   6.526  1.00  0.00     0.194 A 
HETATM   13  C   UNL     1      39.873 -14.216   3.626  1.00  0.00     0.018 A 
HETATM   14  C   UNL     1      39.716 -13.013   4.314  1.00  0.00     0.001 A 
HETATM   15  H   UNL     1      42.150 -18.129   3.251  1.00  0.00     0.191 HD
ENDROOT
BRANCH  10  16
HETATM   16  C   UNL     1      43.905 -19.279   5.123  1.00  0.00     0.013 A 
HETATM   17  C   UNL     1      43.831 -19.645   3.770  1.00  0.00     0.031 A 
HETATM   18  C   UNL     1      44.146 -20.947   3.349  1.00  0.00     0.048 A 
HETATM   19  C   UNL     1      44.535 -21.893   4.309  1.00  0.00     0.016 A 
HETATM   20  C   UNL     1      44.632 -21.536   5.653  1.00  0.00     0.002 A 
HETATM   21  C   UNL     1      44.328 -20.234   6.057  1.00  0.00     0.015 A 
BRANCH  18  22
HETATM   22  C   UNL     1      44.055 -21.339   1.895  1.00  0.00     0.417 C 
HETATM   23  F   UNL     1      42.938 -22.055   1.591  1.00  0.00    -0.166 F 
HETATM   24  F   UNL     1      44.044 -20.262   1.061  1.00  0.00    -0.166 F 
HETATM   25  F   UNL     1      45.109 -22.105   1.501  1.00  0.00    -0.166 F 
ENDBRANCH  18  22
ENDBRANCH  10  16
BRANCH  12  26
HETATM   26  O   UNL     1      43.914 -15.071   7.407  1.00  0.00    -0.343 OA
HETATM   27  H   UNL     1      43.078 -14.757   7.795  1.00  0.00     0.219 HD
ENDBRANCH  12  26
TORSDOF 3
ENDMDL
MODEL 6
REMARK VINA RESULT:      -8.8      4.382      7.396
REMARK  3 active torsions:
REMARK  status: ('A' for Active; 'I' for Inactive)
REMARK    1  A    between atoms: C_10  and  C_11 
REMARK    2  A    between atoms: C_13  and  C_14 
REMARK    3  A    between atoms: C_22  and  O_23 
ROOT
HETATM    1  C   UNL     1      44.498 -21.877   2.095  1.00  0.00     0.001 A 
HETATM    2  C   UNL     1      44.189 -20.532   1.864  1.00  0.00     0.015 A 
HETATM    3  C   UNL     1      44.064 -19.647   2.939  1.00  0.00     0.013 A 
HETATM    4  C   UNL     1      44.249 -20.126   4.244  1.00  0.00     0.046 A 
HETATM    5  C   UNL     1      44.137 -19.180   5.389  1.00  0.00     0.271 A 
HETATM    6  O   UNL     1      44.403 -19.532   6.533  1.00  0.00    -0.266 OA
HETATM    7  N   UNL     1      43.734 -17.890   5.130  1.00  0.00    -0.257 N 
HETATM    8  N   UNL     1      43.557 -17.443   3.867  1.00  0.00    -0.229 N 
HETATM    9  C   UNL     1      43.741 -18.243   2.774  1.00  0.00     0.122 A 
HETATM   10  C   UNL     1      43.202 -16.173   3.472  1.00  0.00     0.162 A 
HETATM   11  N   UNL     1      43.243 -16.109   2.147  1.00  0.00    -0.202 NA
HETATM   12  C   UNL     1      43.550 -17.371   1.729  1.00  0.00     0.194 A 
HETATM   13  C   UNL     1      44.561 -21.470   4.475  1.00  0.00     0.018 A 
HETATM   14  C   UNL     1      44.682 -22.345   3.397  1.00  0.00     0.001 A 
HETATM   15  H   UNL     1      43.838 -17.206   5.867  1.00  0.00     0.191 HD
ENDROOT
BRANCH  10  16
HETATM   16  C   UNL     1      42.865 -15.048   4.350  1.00  0.00     0.013 A 
HETATM   17  C   UNL     1      41.588 -14.473   4.263  1.00  0.00     0.031 A 
HETATM   18  C   UNL     1      41.209 -13.409   5.097  1.00  0.00     0.048 A 
HETATM   19  C   UNL     1      42.136 -12.915   6.028  1.00  0.00     0.016 A 
HETATM   20  C   UNL     1      43.401 -13.491   6.137  1.00  0.00     0.002 A 
HETATM   21  C   UNL     1      43.760 -14.557   5.309  1.00  0.00     0.015 A 
BRANCH  18  22
HETATM   22  C   UNL     1      39.837 -12.788   4.994  1.00  0.00     0.417 C 
HETATM   23  F   UNL     1      39.836 -11.437   5.162  1.00  0.00    -0.166 F 
HETATM   24  F   UNL     1      39.250 -13.012   3.786  1.00  0.00    -0.166 F 
HETATM   25  F   UNL     1      38.977 -13.281   5.926  1.00  0.00    -0.166 F 
ENDBRANCH  18  22
ENDBRANCH  10  16
BRANCH  12  26
HETATM   26  O   UNL     1      43.653 -17.695   0.439  1.00  0.00    -0.343 OA
HETATM   27  H   UNL     1      44.512 -18.142   0.344  1.00  0.00     0.219 HD
ENDBRANCH  12  26
TORSDOF 3
ENDMDL
MODEL 7
REMARK VINA RESULT:      -8.8      1.841      3.378
REMARK  3 active torsions:
REMARK  status: ('A' for Active; 'I' for Inactive)
REMARK    1  A    between atoms: C_10  and  C_11 
REMARK    2  A    between atoms: C_13  and  C_14 
REMARK    3  A    between atoms: C_22  and  O_23 
ROOT
HETATM    1  C   UNL     1      40.129 -12.151   5.640  1.00  0.00     0.001 A 
HETATM    2  C   UNL     1      41.102 -13.124   5.889  1.00  0.00     0.015 A 
HETATM    3  C   UNL     1      41.309 -14.160   4.974  1.00  0.00     0.013 A 
HETATM    4  C   UNL     1      40.528 -14.210   3.809  1.00  0.00     0.046 A 
HETATM    5  C   UNL     1      40.761 -15.301   2.823  1.00  0.00     0.271 A 
HETATM    6  O   UNL     1      40.181 -15.316   1.743  1.00  0.00    -0.266 OA
HETATM    7  N   UNL     1      41.656 -16.294   3.150  1.00  0.00    -0.257 N 
HETATM    8  N   UNL     1      42.399 -16.234   4.277  1.00  0.00    -0.229 N 
HETATM    9  C   UNL     1      42.295 -15.205   5.170  1.00  0.00     0.122 A 
HETATM   10  C   UNL     1      43.356 -17.132   4.696  1.00  0.00     0.162 A 
HETATM   11  N   UNL     1      43.937 -16.659   5.790  1.00  0.00    -0.202 NA
HETATM   12  C   UNL     1      43.278 -15.502   6.085  1.00  0.00     0.194 A 
HETATM   13  C   UNL     1      39.557 -13.235   3.559  1.00  0.00     0.018 A 
HETATM   14  C   UNL     1      39.357 -12.207   4.479  1.00  0.00     0.001 A 
HETATM   15  H   UNL     1      41.952 -16.922   2.416  1.00  0.00     0.191 HD
ENDROOT
BRANCH  10  16
HETATM   16  C   UNL     1      43.717 -18.392   4.039  1.00  0.00     0.013 A 
HETATM   17  C   UNL     1      44.039 -19.506   4.829  1.00  0.00     0.031 A 
HETATM   18  C   UNL     1      44.370 -20.741   4.249  1.00  0.00     0.048 A 
HETATM   19  C   UNL     1      44.380 -20.850   2.850  1.00  0.00     0.016 A 
HETATM   20  C   UNL     1      44.044 -19.756   2.054  1.00  0.00     0.002 A 
HETATM   21  C   UNL     1      43.704 -18.537   2.645  1.00  0.00     0.015 A 
BRANCH  18  22
HETATM   22  C   UNL     1      44.724 -21.934   5.103  1.00  0.00     0.417 C 
HETATM   23  F   UNL     1      46.065 -22.123   5.246  1.00  0.00    -0.166 F 
HETATM   24  F   UNL     1      44.225 -21.841   6.367  1.00  0.00    -0.166 F 
HETATM   25  F   UNL     1      44.235 -23.097   4.592  1.00  0.00    -0.166 F 
ENDBRANCH  18  22
ENDBRANCH  10  16
BRANCH  12  26
HETATM   26  O   UNL     1      43.576 -14.755   7.149  1.00  0.00    -0.343 OA
HETATM   27  H   UNL     1      44.536 -14.598   7.104  1.00  0.00     0.219 HD
ENDBRANCH  12  26
TORSDOF 3
ENDMDL
MODEL 8
REMARK VINA RESULT:      -8.6      3.647      4.976
REMARK  3 active torsions:
REMARK  status: ('A' for Active; 'I' for Inactive)
REMARK    1  A    between atoms: C_10  and  C_11 
REMARK    2  A    between atoms: C_13  and  C_14 
REMARK    3  A    between atoms: C_22  and  O_23 
ROOT
HETATM    1  C   UNL     1      42.342 -10.801  -4.414  1.00  0.00     0.001 A 
HETATM    2  C   UNL     1      41.963 -12.083  -4.002  1.00  0.00     0.015 A 
HETATM    3  C   UNL     1      41.955 -12.410  -2.643  1.00  0.00     0.013 A 
HETATM    4  C   UNL     1      42.330 -11.438  -1.703  1.00  0.00     0.046 A 
HETATM    5  C   UNL     1      42.301 -11.777  -0.254  1.00  0.00     0.271 A 
HETATM    6  O   UNL     1      42.511 -10.926   0.603  1.00  0.00    -0.266 OA
HETATM    7  N   UNL     1      42.021 -13.076   0.106  1.00  0.00    -0.257 N 
HETATM    8  N   UNL     1      41.662 -14.002  -0.811  1.00  0.00    -0.229 N 
HETATM    9  C   UNL     1      41.579 -13.719  -2.145  1.00  0.00     0.122 A 
HETATM   10  C   UNL     1      41.315 -15.315  -0.580  1.00  0.00     0.162 A 
HETATM   11  N   UNL     1      40.920 -15.860  -1.723  1.00  0.00    -0.202 NA
HETATM   12  C   UNL     1      41.101 -14.896  -2.671  1.00  0.00     0.194 A 
HETATM   13  C   UNL     1      42.705 -10.154  -2.115  1.00  0.00     0.018 A 
HETATM   14  C   UNL     1      42.713  -9.839  -3.473  1.00  0.00     0.001 A 
HETATM   15  H   UNL     1      41.817 -13.263   1.077  1.00  0.00     0.191 HD
ENDROOT
BRANCH  10  16
HETATM   16  C   UNL     1      41.335 -16.009   0.711  1.00  0.00     0.013 A 
HETATM   17  C   UNL     1      42.238 -17.066   0.904  1.00  0.00     0.031 A 
HETATM   18  C   UNL     1      42.312 -17.747   2.129  1.00  0.00     0.048 A 
HETATM   19  C   UNL     1      41.457 -17.359   3.172  1.00  0.00     0.016 A 
HETATM   20  C   UNL     1      40.569 -16.299   2.999  1.00  0.00     0.002 A 
HETATM   21  C   UNL     1      40.516 -15.621   1.779  1.00  0.00     0.015 A 
BRANCH  18  22
HETATM   22  C   UNL     1      43.278 -18.889   2.329  1.00  0.00     0.417 C 
HETATM   23  F   UNL     1      42.871 -20.055   1.756  1.00  0.00    -0.166 F 
HETATM   24  F   UNL     1      44.511 -18.631   1.809  1.00  0.00    -0.166 F 
HETATM   25  F   UNL     1      43.479 -19.170   3.646  1.00  0.00    -0.166 F 
ENDBRANCH  18  22
ENDBRANCH  10  16
BRANCH  12  26
HETATM   26  O   UNL     1      40.831 -15.097  -3.962  1.00  0.00    -0.343 OA
HETATM   27  H   UNL     1      39.887 -15.330  -4.004  1.00  0.00     0.219 HD
ENDBRANCH  12  26
TORSDOF 3
ENDMDL
MODEL 9
REMARK VINA RESULT:      -8.6      4.055      7.205
REMARK  3 active torsions:
REMARK  status: ('A' for Active; 'I' for Inactive)
REMARK    1  A    between atoms: C_10  and  C_11 
REMARK    2  A    between atoms: C_13  and  C_14 
REMARK    3  A    between atoms: C_22  and  O_23 
ROOT
HETATM    1  C   UNL     1      44.799 -20.529   4.034  1.00  0.00     0.001 A 
HETATM    2  C   UNL     1      44.338 -19.564   3.132  1.00  0.00     0.015 A 
HETATM    3  C   UNL     1      43.515 -18.525   3.576  1.00  0.00     0.013 A 
HETATM    4  C   UNL     1      43.161 -18.465   4.932  1.00  0.00     0.046 A 
HETATM    5  C   UNL     1      42.302 -17.346   5.411  1.00  0.00     0.271 A 
HETATM    6  O   UNL     1      42.064 -17.193   6.604  1.00  0.00    -0.266 OA
HETATM    7  N   UNL     1      41.786 -16.476   4.478  1.00  0.00    -0.257 N 
HETATM    8  N   UNL     1      42.135 -16.547   3.174  1.00  0.00    -0.229 N 
HETATM    9  C   UNL     1      42.996 -17.495   2.697  1.00  0.00     0.122 A 
HETATM   10  C   UNL     1      41.730 -15.716   2.154  1.00  0.00     0.162 A 
HETATM   11  N   UNL     1      42.381 -16.048   1.047  1.00  0.00    -0.202 NA
HETATM   12  C   UNL     1      43.131 -17.138   1.376  1.00  0.00     0.194 A 
HETATM   13  C   UNL     1      43.625 -19.427   5.835  1.00  0.00     0.018 A 
HETATM   14  C   UNL     1      44.443 -20.461   5.382  1.00  0.00     0.001 A 
HETATM   15  H   UNL     1      41.366 -15.620   4.813  1.00  0.00     0.191 HD
ENDROOT
BRANCH  10  16
HETATM   16  C   UNL     1      40.766 -14.615   2.256  1.00  0.00     0.013 A 
HETATM   17  C   UNL     1      39.604 -14.651   1.470  1.00  0.00     0.031 A 
HETATM   18  C   UNL     1      38.640 -13.633   1.548  1.00  0.00     0.048 A 
HETATM   19  C   UNL     1      38.857 -12.561   2.427  1.00  0.00     0.016 A 
HETATM   20  C   UNL     1      39.998 -12.524   3.227  1.00  0.00     0.002 A 
HETATM   21  C   UNL     1      40.942 -13.550   3.149  1.00  0.00     0.015 A 
BRANCH  18  22
HETATM   22  C   UNL     1      37.396 -13.670   0.694  1.00  0.00     0.417 C 
HETATM   23  F   UNL     1      36.565 -14.708   0.987  1.00  0.00    -0.166 F 
HETATM   24  F   UNL     1      36.641 -12.543   0.819  1.00  0.00    -0.166 F 
HETATM   25  F   UNL     1      37.683 -13.783  -0.631  1.00  0.00    -0.166 F 
ENDBRANCH  18  22
ENDBRANCH  10  16
BRANCH  12  26
HETATM   26  O   UNL     1      43.908 -17.769   0.494  1.00  0.00    -0.343 OA
HETATM   27  H   UNL     1      44.467 -18.372   1.014  1.00  0.00     0.219 HD
ENDBRANCH  12  26
TORSDOF 3
ENDMDL
MODEL 10
REMARK VINA RESULT:      -8.6      4.015      7.635
REMARK  3 active torsions:
REMARK  status: ('A' for Active; 'I' for Inactive)
REMARK    1  A    between atoms: C_10  and  C_11 
REMARK    2  A    between atoms: C_13  and  C_14 
REMARK    3  A    between atoms: C_22  and  O_23 
ROOT
HETATM    1  C   UNL     1      44.347 -20.146   5.413  1.00  0.00     0.001 A 
HETATM    2  C   UNL     1      43.441 -19.092   5.571  1.00  0.00     0.015 A 
HETATM    3  C   UNL     1      43.058 -18.324   4.468  1.00  0.00     0.013 A 
HETATM    4  C   UNL     1      43.593 -18.625   3.207  1.00  0.00     0.046 A 
HETATM    5  C   UNL     1      43.169 -17.822   2.027  1.00  0.00     0.271 A 
HETATM    6  O   UNL     1      43.525 -18.123   0.892  1.00  0.00    -0.266 OA
HETATM    7  N   UNL     1      42.356 -16.732   2.238  1.00  0.00    -0.257 N 
HETATM    8  N   UNL     1      41.849 -16.454   3.460  1.00  0.00    -0.229 N 
HETATM    9  C   UNL     1      42.128 -17.215   4.560  1.00  0.00     0.122 A 
HETATM   10  C   UNL     1      40.994 -15.428   3.795  1.00  0.00     0.162 A 
HETATM   11  N   UNL     1      40.640 -15.564   5.067  1.00  0.00    -0.202 NA
HETATM   12  C   UNL     1      41.345 -16.636   5.531  1.00  0.00     0.194 A 
HETATM   13  C   UNL     1      44.496 -19.681   3.047  1.00  0.00     0.018 A 
HETATM   14  C   UNL     1      44.874 -20.439   4.155  1.00  0.00     0.001 A 
HETATM   15  H   UNL     1      41.921 -16.305   1.433  1.00  0.00     0.191 HD
ENDROOT
BRANCH  10  16
HETATM   16  C   UNL     1      40.509 -14.369   2.905  1.00  0.00     0.013 A 
HETATM   17  C   UNL     1      39.309 -14.563   2.203  1.00  0.00     0.031 A 
HETATM   18  C   UNL     1      38.792 -13.571   1.355  1.00  0.00     0.048 A 
HETATM   19  C   UNL     1      39.499 -12.368   1.211  1.00  0.00     0.016 A 
HETATM   20  C   UNL     1      40.681 -12.155   1.919  1.00  0.00     0.002 A 
HETATM   21  C   UNL     1      41.178 -13.146   2.768  1.00  0.00     0.015 A 
BRANCH  18  22
HETATM   22  C   UNL     1      37.506 -13.787   0.595  1.00  0.00     0.417 C 
HETATM   23  F   UNL     1      37.692 -14.044  -0.729  1.00  0.00    -0.166 F 
HETATM   24  F   UNL     1      36.782 -14.835   1.078  1.00  0.00    -0.166 F 
HETATM   25  F   UNL     1      36.684 -12.705   0.654  1.00  0.00    -0.166 F 
ENDBRANCH  18  22
ENDBRANCH  10  16
BRANCH  12  26
HETATM   26  O   UNL     1      41.263 -17.059   6.793  1.00  0.00    -0.343 OA
HETATM   27  H   UNL     1      40.691 -16.419   7.252  1.00  0.00     0.219 HD
ENDBRANCH  12  26
TORSDOF 3
ENDMDL
