MODEL 1
REMARK VINA RESULT:      -9.3      0.000      0.000
REMARK  5 active torsions:
REMARK  status: ('A' for Active; 'I' for Inactive)
REMARK    1  A    between atoms: O_2  and  C_3 
REMARK    2  A    between atoms: C_5  and  O_6 
REMARK    3  A    between atoms: C_8  and  C_9 
REMARK    4  A    between atoms: C_21  and  N_22 
REMARK       I    between atoms: N_22  and  C_23 
REMARK    5  A    between atoms: C_23  and  C_24 
ROOT
HETATM    1  C   UNL     1      42.063 -16.483   4.683  1.00  0.00    -0.022 A 
HETATM    2  C   UNL     1      42.358 -15.362   5.473  1.00  0.00     0.031 A 
HETATM    3  C   UNL     1      41.578 -14.189   5.425  1.00  0.00     0.059 A 
HETATM    4  C   UNL     1      40.466 -14.132   4.567  1.00  0.00     0.050 A 
HETATM    5  N   UNL     1      39.609 -13.027   4.400  1.00  0.00    -0.324 N 
HETATM    6  C   UNL     1      39.301 -12.047   5.307  1.00  0.00     0.245 C 
HETATM    7  O   UNL     1      38.544 -11.133   4.982  1.00  0.00    -0.271 OA
HETATM    8  C   UNL     1      39.865 -12.212   6.720  1.00  0.00     0.181 C 
HETATM    9  N   UNL     1      41.311 -12.023   6.638  1.00  0.00    -0.334 N 
HETATM   10  C   UNL     1      42.149 -13.010   6.135  1.00  0.00     0.256 C 
HETATM   11  O   UNL     1      43.372 -12.920   6.237  1.00  0.00    -0.267 OA
HETATM   12  C   UNL     1      39.170 -11.331   7.773  1.00  0.00     0.060 C 
HETATM   13  C   UNL     1      40.106 -10.355   8.486  1.00  0.00     0.088 C 
HETATM   14  C   UNL     1      41.001  -9.672   7.461  1.00  0.00     0.045 C 
HETATM   15  C   UNL     1      41.871 -10.675   6.718  1.00  0.00     0.129 C 
HETATM   16  C   UNL     1      40.181 -15.242   3.760  1.00  0.00     0.031 A 
HETATM   17  C   UNL     1      40.960 -16.402   3.825  1.00  0.00     0.014 A 
HETATM   18  H   UNL     1      39.038 -12.983   3.561  1.00  0.00     0.169 HD
ENDROOT
BRANCH  13  19
HETATM   19  N   UNL     1      40.892 -11.019   9.529  1.00  0.00    -0.356 N 
HETATM   20  C   UNL     1      40.858 -10.591  10.834  1.00  0.00     0.222 C 
HETATM   21  O   UNL     1      40.309  -9.558  11.201  1.00  0.00    -0.273 OA
HETATM   22  H   UNL     1      41.145 -11.986   9.350  1.00  0.00     0.162 HD
BRANCH  20  23
HETATM   23  C   UNL     1      41.675 -11.442  11.797  1.00  0.00     0.081 C 
HETATM   24  C   UNL     1      41.457 -10.999  13.253  1.00  0.00     0.041 C 
HETATM   25  C   UNL     1      42.114  -9.665  13.592  1.00  0.00     0.233 C 
HETATM   26  N   UNL     1      43.546  -9.690  13.172  1.00  0.00    -0.075 N 
HETATM   27  H   UNL     1      44.069 -10.357  13.753  1.00  0.00     0.277 HD
HETATM   28  H   UNL     1      43.954  -8.767  13.372  1.00  0.00     0.277 HD
HETATM   29  C   UNL     1      43.752  -9.996  11.726  1.00  0.00     0.233 C 
HETATM   30  C   UNL     1      43.157 -11.363  11.414  1.00  0.00     0.041 C 
ENDBRANCH  20  23
ENDBRANCH  13  19
BRANCH   1  31
HETATM   31  C   UNL     1      42.935 -17.675   4.700  1.00  0.00     0.008 A 
HETATM   32  C   UNL     1      43.218 -18.403   5.876  1.00  0.00     0.082 A 
HETATM   33  C   UNL     1      44.051 -19.529   5.814  1.00  0.00     0.074 A 
HETATM   34  C   UNL     1      44.598 -19.961   4.601  1.00  0.00     0.070 A 
HETATM   35  C   UNL     1      44.318 -19.255   3.437  1.00  0.00     0.038 A 
HETATM   36  C   UNL     1      43.497 -18.125   3.489  1.00  0.00     0.018 A 
BRANCH  32  37
HETATM   37  O   UNL     1      42.668 -17.924   7.042  1.00  0.00    -0.355 OA
HETATM   38  C   UNL     1      43.555 -17.702   8.133  1.00  0.00     0.210 C 
ENDBRANCH  32  37
BRANCH  34  39
HETATM   39  O   UNL     1      45.387 -21.075   4.694  1.00  0.00    -0.356 OA
HETATM   40  C   UNL     1      44.746 -22.289   5.069  1.00  0.00     0.210 C 
ENDBRANCH  34  39
ENDBRANCH   1  31
TORSDOF 5
ENDMDL
MODEL 2
REMARK VINA RESULT:      -9.2      0.912      1.617
REMARK  5 active torsions:
REMARK  status: ('A' for Active; 'I' for Inactive)
REMARK    1  A    between atoms: O_2  and  C_3 
REMARK    2  A    between atoms: C_5  and  O_6 
REMARK    3  A    between atoms: C_8  and  C_9 
REMARK    4  A    between atoms: C_21  and  N_22 
REMARK       I    between atoms: N_22  and  C_23 
REMARK    5  A    between atoms: C_23  and  C_24 
ROOT
HETATM    1  C   UNL     1      42.054 -16.426   4.607  1.00  0.00    -0.022 A 
HETATM    2  C   UNL     1      42.355 -15.313   5.408  1.00  0.00     0.031 A 
HETATM    3  C   UNL     1      41.583 -14.135   5.370  1.00  0.00     0.059 A 
HETATM    4  C   UNL     1      40.470 -14.065   4.513  1.00  0.00     0.050 A 
HETATM    5  N   UNL     1      39.619 -12.954   4.357  1.00  0.00    -0.324 N 
HETATM    6  C   UNL     1      39.317 -11.980   5.273  1.00  0.00     0.245 C 
HETATM    7  O   UNL     1      38.565 -11.059   4.957  1.00  0.00    -0.271 OA
HETATM    8  C   UNL     1      39.881 -12.161   6.684  1.00  0.00     0.181 C 
HETATM    9  N   UNL     1      41.328 -11.979   6.603  1.00  0.00    -0.334 N 
HETATM   10  C   UNL     1      42.160 -12.967   6.090  1.00  0.00     0.256 C 
HETATM   11  O   UNL     1      43.384 -12.883   6.193  1.00  0.00    -0.267 OA
HETATM   12  C   UNL     1      39.191 -11.286   7.746  1.00  0.00     0.060 C 
HETATM   13  C   UNL     1      40.134 -10.321   8.466  1.00  0.00     0.088 C 
HETATM   14  C   UNL     1      41.032  -9.634   7.447  1.00  0.00     0.045 C 
HETATM   15  C   UNL     1      41.895 -10.635   6.695  1.00  0.00     0.129 C 
HETATM   16  C   UNL     1      40.178 -15.166   3.697  1.00  0.00     0.031 A 
HETATM   17  C   UNL     1      40.951 -16.331   3.751  1.00  0.00     0.014 A 
HETATM   18  H   UNL     1      39.048 -12.899   3.519  1.00  0.00     0.169 HD
ENDROOT
BRANCH  13  19
HETATM   19  N   UNL     1      40.916 -10.998   9.503  1.00  0.00    -0.356 N 
HETATM   20  C   UNL     1      40.859 -10.604  10.818  1.00  0.00     0.222 C 
HETATM   21  O   UNL     1      40.289  -9.589  11.203  1.00  0.00    -0.273 OA
HETATM   22  H   UNL     1      41.187 -11.957   9.304  1.00  0.00     0.162 HD
BRANCH  20  23
HETATM   23  C   UNL     1      41.677 -11.466  11.770  1.00  0.00     0.081 C 
HETATM   24  C   UNL     1      41.475 -11.028  13.230  1.00  0.00     0.041 C 
HETATM   25  C   UNL     1      42.145  -9.701  13.569  1.00  0.00     0.233 C 
HETATM   26  N   UNL     1      43.573  -9.736  13.138  1.00  0.00    -0.075 N 
HETATM   27  H   UNL     1      44.096 -10.410  13.712  1.00  0.00     0.277 HD
HETATM   28  H   UNL     1      43.990  -8.817  13.339  1.00  0.00     0.277 HD
HETATM   29  C   UNL     1      43.765 -10.036  11.689  1.00  0.00     0.233 C 
HETATM   30  C   UNL     1      43.156 -11.397  11.375  1.00  0.00     0.041 C 
ENDBRANCH  20  23
ENDBRANCH  13  19
BRANCH   1  31
HETATM   31  C   UNL     1      42.920 -17.623   4.614  1.00  0.00     0.008 A 
HETATM   32  C   UNL     1      43.796 -17.943   3.554  1.00  0.00     0.082 A 
HETATM   33  C   UNL     1      44.591 -19.095   3.633  1.00  0.00     0.074 A 
HETATM   34  C   UNL     1      44.548 -19.931   4.755  1.00  0.00     0.070 A 
HETATM   35  C   UNL     1      43.694 -19.618   5.806  1.00  0.00     0.038 A 
HETATM   36  C   UNL     1      42.889 -18.478   5.734  1.00  0.00     0.018 A 
BRANCH  32  37
HETATM   37  O   UNL     1      43.784 -17.097   2.471  1.00  0.00    -0.355 OA
HETATM   38  C   UNL     1      43.703 -17.696   1.182  1.00  0.00     0.210 C 
ENDBRANCH  32  37
BRANCH  34  39
HETATM   39  O   UNL     1      45.382 -21.014   4.693  1.00  0.00    -0.356 OA
HETATM   40  C   UNL     1      44.837 -22.269   5.085  1.00  0.00     0.210 C 
ENDBRANCH  34  39
ENDBRANCH   1  31
TORSDOF 5
ENDMDL
MODEL 3
REMARK VINA RESULT:      -9.0      3.480      4.834
REMARK  5 active torsions:
REMARK  status: ('A' for Active; 'I' for Inactive)
REMARK    1  A    between atoms: O_2  and  C_3 
REMARK    2  A    between atoms: C_5  and  O_6 
REMARK    3  A    between atoms: C_8  and  C_9 
REMARK    4  A    between atoms: C_21  and  N_22 
REMARK       I    between atoms: N_22  and  C_23 
REMARK    5  A    between atoms: C_23  and  C_24 
ROOT
HETATM    1  C   UNL     1      42.293 -17.525   2.294  1.00  0.00    -0.022 A 
HETATM    2  C   UNL     1      42.398 -16.147   2.533  1.00  0.00     0.031 A 
HETATM    3  C   UNL     1      41.665 -15.201   1.789  1.00  0.00     0.059 A 
HETATM    4  C   UNL     1      40.793 -15.643   0.778  1.00  0.00     0.050 A 
HETATM    5  N   UNL     1      40.011 -14.818  -0.055  1.00  0.00    -0.324 N 
HETATM    6  C   UNL     1      39.502 -13.575   0.218  1.00  0.00     0.245 C 
HETATM    7  O   UNL     1      38.855 -12.980  -0.643  1.00  0.00    -0.271 OA
HETATM    8  C   UNL     1      39.708 -13.040   1.637  1.00  0.00     0.181 C 
HETATM    9  N   UNL     1      41.133 -12.761   1.797  1.00  0.00    -0.334 N 
HETATM   10  C   UNL     1      42.058 -13.779   1.993  1.00  0.00     0.256 C 
HETATM   11  O   UNL     1      43.221 -13.529   2.308  1.00  0.00    -0.267 OA
HETATM   12  C   UNL     1      38.788 -11.860   1.995  1.00  0.00     0.060 C 
HETATM   13  C   UNL     1      39.534 -10.580   2.373  1.00  0.00     0.088 C 
HETATM   14  C   UNL     1      40.656 -10.334   1.375  1.00  0.00     0.045 C 
HETATM   15  C   UNL     1      41.669 -11.468   1.378  1.00  0.00     0.129 C 
HETATM   16  C   UNL     1      40.700 -17.018   0.522  1.00  0.00     0.031 A 
HETATM   17  C   UNL     1      41.430 -17.944   1.275  1.00  0.00     0.014 A 
HETATM   18  H   UNL     1      39.660 -15.207  -0.924  1.00  0.00     0.169 HD
ENDROOT
BRANCH  13  19
HETATM   19  N   UNL     1      40.038 -10.631   3.748  1.00  0.00    -0.356 N 
HETATM   20  C   UNL     1      39.187 -10.717   4.822  1.00  0.00     0.222 C 
HETATM   21  O   UNL     1      37.969 -10.607   4.739  1.00  0.00    -0.273 OA
HETATM   22  H   UNL     1      40.988 -10.973   3.863  1.00  0.00     0.162 HD
BRANCH  20  23
HETATM   23  C   UNL     1      39.883 -10.837   6.171  1.00  0.00     0.081 C 
HETATM   24  C   UNL     1      41.410 -10.899   6.005  1.00  0.00     0.041 C 
HETATM   25  C   UNL     1      41.910 -12.218   5.428  1.00  0.00     0.233 C 
HETATM   26  N   UNL     1      41.337 -13.356   6.205  1.00  0.00    -0.075 N 
HETATM   27  H   UNL     1      41.726 -13.360   7.157  1.00  0.00     0.277 HD
HETATM   28  H   UNL     1      41.654 -14.233   5.771  1.00  0.00     0.277 HD
HETATM   29  C   UNL     1      39.845 -13.367   6.260  1.00  0.00     0.233 C 
HETATM   30  C   UNL     1      39.358 -12.076   6.905  1.00  0.00     0.041 C 
ENDBRANCH  20  23
ENDBRANCH  13  19
BRANCH   1  31
HETATM   31  C   UNL     1      43.123 -18.492   3.040  1.00  0.00     0.008 A 
HETATM   32  C   UNL     1      43.163 -18.543   4.450  1.00  0.00     0.082 A 
HETATM   33  C   UNL     1      43.972 -19.492   5.090  1.00  0.00     0.074 A 
HETATM   34  C   UNL     1      44.733 -20.409   4.356  1.00  0.00     0.070 A 
HETATM   35  C   UNL     1      44.694 -20.371   2.967  1.00  0.00     0.038 A 
HETATM   36  C   UNL     1      43.898 -19.422   2.319  1.00  0.00     0.018 A 
BRANCH  32  37
HETATM   37  O   UNL     1      42.409 -17.609   5.120  1.00  0.00    -0.355 OA
HETATM   38  C   UNL     1      43.076 -16.819   6.099  1.00  0.00     0.210 C 
ENDBRANCH  32  37
BRANCH  34  39
HETATM   39  O   UNL     1      45.470 -21.278   5.114  1.00  0.00    -0.356 OA
HETATM   40  C   UNL     1      45.096 -22.650   5.067  1.00  0.00     0.210 C 
ENDBRANCH  34  39
ENDBRANCH   1  31
TORSDOF 5
ENDMDL
MODEL 4
REMARK VINA RESULT:      -8.9      4.478      8.277
REMARK  5 active torsions:
REMARK  status: ('A' for Active; 'I' for Inactive)
REMARK    1  A    between atoms: O_2  and  C_3 
REMARK    2  A    between atoms: C_5  and  O_6 
REMARK    3  A    between atoms: C_8  and  C_9 
REMARK    4  A    between atoms: C_21  and  N_22 
REMARK       I    between atoms: N_22  and  C_23 
REMARK    5  A    between atoms: C_23  and  C_24 
ROOT
HETATM    1  C   UNL     1      42.001 -16.119   4.399  1.00  0.00    -0.022 A 
HETATM    2  C   UNL     1      41.155 -15.886   3.305  1.00  0.00     0.031 A 
HETATM    3  C   UNL     1      40.315 -14.756   3.237  1.00  0.00     0.059 A 
HETATM    4  C   UNL     1      40.323 -13.825   4.290  1.00  0.00     0.050 A 
HETATM    5  N   UNL     1      39.531 -12.663   4.370  1.00  0.00    -0.324 N 
HETATM    6  C   UNL     1      39.029 -11.906   3.343  1.00  0.00     0.245 C 
HETATM    7  O   UNL     1      38.328 -10.927   3.595  1.00  0.00    -0.271 OA
HETATM    8  C   UNL     1      39.457 -12.294   1.926  1.00  0.00     0.181 C 
HETATM    9  N   UNL     1      38.830 -13.575   1.614  1.00  0.00    -0.334 N 
HETATM   10  C   UNL     1      39.310 -14.769   2.138  1.00  0.00     0.256 C 
HETATM   11  O   UNL     1      38.896 -15.854   1.731  1.00  0.00    -0.267 OA
HETATM   12  C   UNL     1      39.206 -11.194   0.879  1.00  0.00     0.060 C 
HETATM   13  C   UNL     1      38.274 -11.617  -0.258  1.00  0.00     0.088 C 
HETATM   14  C   UNL     1      37.068 -12.343   0.320  1.00  0.00     0.045 C 
HETATM   15  C   UNL     1      37.476 -13.604   1.066  1.00  0.00     0.129 C 
HETATM   16  C   UNL     1      41.151 -14.065   5.396  1.00  0.00     0.031 A 
HETATM   17  C   UNL     1      41.984 -15.188   5.444  1.00  0.00     0.014 A 
HETATM   18  H   UNL     1      39.395 -12.235   5.280  1.00  0.00     0.169 HD
ENDROOT
BRANCH  13  19
HETATM   19  N   UNL     1      38.970 -12.435  -1.254  1.00  0.00    -0.356 N 
HETATM   20  C   UNL     1      39.470 -11.888  -2.410  1.00  0.00     0.222 C 
HETATM   21  O   UNL     1      39.255 -10.736  -2.770  1.00  0.00    -0.273 OA
HETATM   22  H   UNL     1      39.389 -13.295  -0.912  1.00  0.00     0.162 HD
BRANCH  20  23
HETATM   23  C   UNL     1      40.228 -12.868  -3.295  1.00  0.00     0.081 C 
HETATM   24  C   UNL     1      40.688 -14.099  -2.496  1.00  0.00     0.041 C 
HETATM   25  C   UNL     1      41.831 -13.809  -1.530  1.00  0.00     0.233 C 
HETATM   26  N   UNL     1      42.933 -13.108  -2.252  1.00  0.00    -0.075 N 
HETATM   27  H   UNL     1      43.365 -13.744  -2.935  1.00  0.00     0.277 HD
HETATM   28  H   UNL     1      43.672 -12.887  -1.571  1.00  0.00     0.277 HD
HETATM   29  C   UNL     1      42.513 -11.842  -2.923  1.00  0.00     0.233 C 
HETATM   30  C   UNL     1      41.421 -12.153  -3.939  1.00  0.00     0.041 C 
ENDBRANCH  20  23
ENDBRANCH  13  19
BRANCH   1  31
HETATM   31  C   UNL     1      42.820 -17.346   4.479  1.00  0.00     0.008 A 
HETATM   32  C   UNL     1      43.732 -17.727   3.472  1.00  0.00     0.082 A 
HETATM   33  C   UNL     1      44.480 -18.904   3.619  1.00  0.00     0.074 A 
HETATM   34  C   UNL     1      44.354 -19.705   4.760  1.00  0.00     0.070 A 
HETATM   35  C   UNL     1      43.464 -19.333   5.760  1.00  0.00     0.038 A 
HETATM   36  C   UNL     1      42.706 -18.167   5.619  1.00  0.00     0.018 A 
BRANCH  32  37
HETATM   37  O   UNL     1      43.803 -16.912   2.367  1.00  0.00    -0.355 OA
HETATM   38  C   UNL     1      43.866 -17.550   1.095  1.00  0.00     0.210 C 
ENDBRANCH  32  37
BRANCH  34  39
HETATM   39  O   UNL     1      45.150 -20.819   4.767  1.00  0.00    -0.356 OA
HETATM   40  C   UNL     1      44.658 -21.957   5.464  1.00  0.00     0.210 C 
ENDBRANCH  34  39
ENDBRANCH   1  31
TORSDOF 5
ENDMDL
MODEL 5
REMARK VINA RESULT:      -8.8      4.662      8.026
REMARK  5 active torsions:
REMARK  status: ('A' for Active; 'I' for Inactive)
REMARK    1  A    between atoms: O_2  and  C_3 
REMARK    2  A    between atoms: C_5  and  O_6 
REMARK    3  A    between atoms: C_8  and  C_9 
REMARK    4  A    between atoms: C_21  and  N_22 
REMARK       I    between atoms: N_22  and  C_23 
REMARK    5  A    between atoms: C_23  and  C_24 
ROOT
HETATM    1  C   UNL     1      42.943 -16.471   3.549  1.00  0.00    -0.022 A 
HETATM    2  C   UNL     1      41.876 -15.965   2.791  1.00  0.00     0.031 A 
HETATM    3  C   UNL     1      41.383 -14.658   2.976  1.00  0.00     0.059 A 
HETATM    4  C   UNL     1      41.976 -13.825   3.941  1.00  0.00     0.050 A 
HETATM    5  N   UNL     1      41.583 -12.508   4.247  1.00  0.00    -0.324 N 
HETATM    6  C   UNL     1      40.986 -11.587   3.425  1.00  0.00     0.245 C 
HETATM    7  O   UNL     1      40.685 -10.480   3.869  1.00  0.00    -0.271 OA
HETATM    8  C   UNL     1      40.811 -11.983   1.957  1.00  0.00     0.181 C 
HETATM    9  N   UNL     1      39.808 -13.042   1.906  1.00  0.00    -0.334 N 
HETATM   10  C   UNL     1      40.106 -14.349   2.274  1.00  0.00     0.256 C 
HETATM   11  O   UNL     1      39.316 -15.267   2.057  1.00  0.00    -0.267 OA
HETATM   12  C   UNL     1      40.524 -10.794   1.024  1.00  0.00     0.060 C 
HETATM   13  C   UNL     1      39.196 -10.896   0.273  1.00  0.00     0.088 C 
HETATM   14  C   UNL     1      38.101 -11.328   1.239  1.00  0.00     0.045 C 
HETATM   15  C   UNL     1      38.389 -12.694   1.840  1.00  0.00     0.129 C 
HETATM   16  C   UNL     1      43.029 -14.334   4.714  1.00  0.00     0.031 A 
HETATM   17  C   UNL     1      43.511 -15.632   4.514  1.00  0.00     0.014 A 
HETATM   18  H   UNL     1      41.869 -12.115   5.138  1.00  0.00     0.169 HD
ENDROOT
BRANCH  13  19
HETATM   19  N   UNL     1      39.289 -11.802  -0.875  1.00  0.00    -0.356 N 
HETATM   20  C   UNL     1      39.937 -11.433  -2.028  1.00  0.00     0.222 C 
HETATM   21  O   UNL     1      40.347 -10.300  -2.250  1.00  0.00    -0.273 OA
HETATM   22  H   UNL     1      39.206 -12.794  -0.669  1.00  0.00     0.162 HD
BRANCH  20  23
HETATM   23  C   UNL     1      40.004 -12.523  -3.089  1.00  0.00     0.081 C 
HETATM   24  C   UNL     1      39.668 -13.901  -2.495  1.00  0.00     0.041 C 
HETATM   25  C   UNL     1      40.763 -14.461  -1.593  1.00  0.00     0.233 C 
HETATM   26  N   UNL     1      42.074 -14.410  -2.304  1.00  0.00    -0.075 N 
HETATM   27  H   UNL     1      42.069 -15.067  -3.095  1.00  0.00     0.277 HD
HETATM   28  H   UNL     1      42.800 -14.753  -1.662  1.00  0.00     0.277 HD
HETATM   29  C   UNL     1      42.461 -13.046  -2.772  1.00  0.00     0.233 C 
HETATM   30  C   UNL     1      41.397 -12.525  -3.729  1.00  0.00     0.041 C 
ENDBRANCH  20  23
ENDBRANCH  13  19
BRANCH   1  31
HETATM   31  C   UNL     1      43.396 -17.868   3.385  1.00  0.00     0.008 A 
HETATM   32  C   UNL     1      43.899 -18.642   4.452  1.00  0.00     0.082 A 
HETATM   33  C   UNL     1      44.306 -19.964   4.222  1.00  0.00     0.074 A 
HETATM   34  C   UNL     1      44.207 -20.542   2.951  1.00  0.00     0.070 A 
HETATM   35  C   UNL     1      43.705 -19.789   1.897  1.00  0.00     0.038 A 
HETATM   36  C   UNL     1      43.306 -18.467   2.113  1.00  0.00     0.018 A 
BRANCH  32  37
HETATM   37  O   UNL     1      43.990 -18.018   5.674  1.00  0.00    -0.355 OA
HETATM   38  C   UNL     1      45.213 -18.167   6.387  1.00  0.00     0.210 C 
ENDBRANCH  32  37
BRANCH  34  39
HETATM   39  O   UNL     1      44.637 -21.839   2.878  1.00  0.00    -0.356 OA
HETATM   40  C   UNL     1      44.696 -22.568   4.099  1.00  0.00     0.210 C 
ENDBRANCH  34  39
ENDBRANCH   1  31
TORSDOF 5
ENDMDL
MODEL 6
REMARK VINA RESULT:      -8.8      1.984      2.362
REMARK  5 active torsions:
REMARK  status: ('A' for Active; 'I' for Inactive)
REMARK    1  A    between atoms: O_2  and  C_3 
REMARK    2  A    between atoms: C_5  and  O_6 
REMARK    3  A    between atoms: C_8  and  C_9 
REMARK    4  A    between atoms: C_21  and  N_22 
REMARK       I    between atoms: N_22  and  C_23 
REMARK    5  A    between atoms: C_23  and  C_24 
ROOT
HETATM    1  C   UNL     1      41.890 -16.857   3.394  1.00  0.00    -0.022 A 
HETATM    2  C   UNL     1      42.103 -15.562   3.888  1.00  0.00     0.031 A 
HETATM    3  C   UNL     1      41.279 -14.478   3.523  1.00  0.00     0.059 A 
HETATM    4  C   UNL     1      40.204 -14.693   2.643  1.00  0.00     0.050 A 
HETATM    5  N   UNL     1      39.310 -13.709   2.178  1.00  0.00    -0.324 N 
HETATM    6  C   UNL     1      38.923 -12.551   2.801  1.00  0.00     0.245 C 
HETATM    7  O   UNL     1      38.144 -11.786   2.234  1.00  0.00    -0.271 OA
HETATM    8  C   UNL     1      39.432 -12.331   4.227  1.00  0.00     0.181 C 
HETATM    9  N   UNL     1      40.870 -12.095   4.147  1.00  0.00    -0.334 N 
HETATM   10  C   UNL     1      41.770 -13.133   3.933  1.00  0.00     0.256 C 
HETATM   11  O   UNL     1      42.982 -12.958   4.049  1.00  0.00    -0.267 OA
HETATM   12  C   UNL     1      38.655 -11.253   5.004  1.00  0.00     0.060 C 
HETATM   13  C   UNL     1      39.519 -10.084   5.479  1.00  0.00     0.088 C 
HETATM   14  C   UNL     1      40.429  -9.633   4.346  1.00  0.00     0.045 C 
HETATM   15  C   UNL     1      41.370 -10.743   3.905  1.00  0.00     0.129 C 
HETATM   16  C   UNL     1      40.000 -15.982   2.130  1.00  0.00     0.031 A 
HETATM   17  C   UNL     1      40.823 -17.048   2.508  1.00  0.00     0.014 A 
HETATM   18  H   UNL     1      38.775 -13.904   1.337  1.00  0.00     0.169 HD
ENDROOT
BRANCH  13  19
HETATM   19  N   UNL     1      40.285 -10.428   6.680  1.00  0.00    -0.356 N 
HETATM   20  C   UNL     1      39.723 -10.364   7.932  1.00  0.00     0.222 C 
HETATM   21  O   UNL     1      38.619  -9.885   8.162  1.00  0.00    -0.273 OA
HETATM   22  H   UNL     1      41.076 -11.050   6.543  1.00  0.00     0.162 HD
BRANCH  20  23
HETATM   23  C   UNL     1      40.638 -10.828   9.058  1.00  0.00     0.081 C 
HETATM   24  C   UNL     1      39.859 -11.004  10.371  1.00  0.00     0.041 C 
HETATM   25  C   UNL     1      39.437  -9.688  11.014  1.00  0.00     0.233 C 
HETATM   26  N   UNL     1      40.618  -8.783  11.126  1.00  0.00    -0.075 N 
HETATM   27  H   UNL     1      41.289  -9.165  11.804  1.00  0.00     0.277 HD
HETATM   28  H   UNL     1      40.300  -7.888  11.522  1.00  0.00     0.277 HD
HETATM   29  C   UNL     1      41.301  -8.509   9.827  1.00  0.00     0.233 C 
HETATM   30  C   UNL     1      41.783  -9.823   9.228  1.00  0.00     0.041 C 
ENDBRANCH  20  23
ENDBRANCH  13  19
BRANCH   1  31
HETATM   31  C   UNL     1      42.809 -17.962   3.736  1.00  0.00     0.008 A 
HETATM   32  C   UNL     1      43.016 -18.406   5.060  1.00  0.00     0.082 A 
HETATM   33  C   UNL     1      43.901 -19.465   5.308  1.00  0.00     0.074 A 
HETATM   34  C   UNL     1      44.574 -20.109   4.263  1.00  0.00     0.070 A 
HETATM   35  C   UNL     1      44.369 -19.683   2.956  1.00  0.00     0.038 A 
HETATM   36  C   UNL     1      43.497 -18.621   2.698  1.00  0.00     0.018 A 
BRANCH  32  37
HETATM   37  O   UNL     1      42.342 -17.728   6.048  1.00  0.00    -0.355 OA
HETATM   38  C   UNL     1      42.989 -17.613   7.311  1.00  0.00     0.210 C 
ENDBRANCH  32  37
BRANCH  34  39
HETATM   39  O   UNL     1      45.399 -21.126   4.656  1.00  0.00    -0.356 OA
HETATM   40  C   UNL     1      44.793 -22.390   4.901  1.00  0.00     0.210 C 
ENDBRANCH  34  39
ENDBRANCH   1  31
TORSDOF 5
ENDMDL
MODEL 7
REMARK VINA RESULT:      -8.8      4.416      7.206
REMARK  5 active torsions:
REMARK  status: ('A' for Active; 'I' for Inactive)
REMARK    1  A    between atoms: O_2  and  C_3 
REMARK    2  A    between atoms: C_5  and  O_6 
REMARK    3  A    between atoms: C_8  and  C_9 
REMARK    4  A    between atoms: C_21  and  N_22 
REMARK       I    between atoms: N_22  and  C_23 
REMARK    5  A    between atoms: C_23  and  C_24 
ROOT
HETATM    1  C   UNL     1      41.944 -16.530   4.039  1.00  0.00    -0.022 A 
HETATM    2  C   UNL     1      41.714 -15.522   3.090  1.00  0.00     0.031 A 
HETATM    3  C   UNL     1      40.895 -14.409   3.367  1.00  0.00     0.059 A 
HETATM    4  C   UNL     1      40.292 -14.291   4.631  1.00  0.00     0.050 A 
HETATM    5  N   UNL     1      39.440 -13.248   5.045  1.00  0.00    -0.324 N 
HETATM    6  C   UNL     1      39.420 -11.948   4.613  1.00  0.00     0.245 C 
HETATM    7  O   UNL     1      38.584 -11.168   5.068  1.00  0.00    -0.271 OA
HETATM    8  C   UNL     1      40.520 -11.527   3.635  1.00  0.00     0.181 C 
HETATM    9  N   UNL     1      40.264 -12.208   2.369  1.00  0.00    -0.334 N 
HETATM   10  C   UNL     1      40.556 -13.556   2.194  1.00  0.00     0.256 C 
HETATM   11  O   UNL     1      40.511 -14.077   1.080  1.00  0.00    -0.267 OA
HETATM   12  C   UNL     1      40.690 -10.002   3.511  1.00  0.00     0.060 C 
HETATM   13  C   UNL     1      40.476  -9.465   2.095  1.00  0.00     0.088 C 
HETATM   14  C   UNL     1      39.227 -10.097   1.497  1.00  0.00     0.045 C 
HETATM   15  C   UNL     1      39.356 -11.608   1.394  1.00  0.00     0.129 C 
HETATM   16  C   UNL     1      40.503 -15.306   5.575  1.00  0.00     0.031 A 
HETATM   17  C   UNL     1      41.324 -16.402   5.287  1.00  0.00     0.014 A 
HETATM   18  H   UNL     1      38.836 -13.409   5.844  1.00  0.00     0.169 HD
ENDROOT
BRANCH  13  19
HETATM   19  N   UNL     1      41.650  -9.686   1.247  1.00  0.00    -0.356 N 
HETATM   20  C   UNL     1      42.066  -8.745   0.338  1.00  0.00     0.222 C 
HETATM   21  O   UNL     1      41.426  -7.738   0.055  1.00  0.00    -0.273 OA
HETATM   22  H   UNL     1      42.338 -10.346   1.600  1.00  0.00     0.162 HD
BRANCH  20  23
HETATM   23  C   UNL     1      43.346  -9.107  -0.404  1.00  0.00     0.081 C 
HETATM   24  C   UNL     1      43.669  -8.072  -1.494  1.00  0.00     0.041 C 
HETATM   25  C   UNL     1      42.738  -8.142  -2.700  1.00  0.00     0.233 C 
HETATM   26  N   UNL     1      42.666  -9.547  -3.197  1.00  0.00    -0.075 N 
HETATM   27  H   UNL     1      43.574  -9.825  -3.592  1.00  0.00     0.277 HD
HETATM   28  H   UNL     1      42.001  -9.575  -3.982  1.00  0.00     0.277 HD
HETATM   29  C   UNL     1      42.228 -10.537  -2.169  1.00  0.00     0.233 C 
HETATM   30  C   UNL     1      43.206 -10.512  -1.002  1.00  0.00     0.041 C 
ENDBRANCH  20  23
ENDBRANCH  13  19
BRANCH   1  31
HETATM   31  C   UNL     1      42.749 -17.722   3.702  1.00  0.00     0.008 A 
HETATM   32  C   UNL     1      43.815 -18.181   4.505  1.00  0.00     0.082 A 
HETATM   33  C   UNL     1      44.532 -19.324   4.124  1.00  0.00     0.074 A 
HETATM   34  C   UNL     1      44.200 -20.035   2.965  1.00  0.00     0.070 A 
HETATM   35  C   UNL     1      43.147 -19.594   2.173  1.00  0.00     0.038 A 
HETATM   36  C   UNL     1      42.431 -18.450   2.538  1.00  0.00     0.018 A 
BRANCH  32  37
HETATM   37  O   UNL     1      44.107 -17.435   5.622  1.00  0.00    -0.355 OA
HETATM   38  C   UNL     1      45.065 -17.973   6.528  1.00  0.00     0.210 C 
ENDBRANCH  32  37
BRANCH  34  39
HETATM   39  O   UNL     1      44.983 -21.131   2.722  1.00  0.00    -0.356 OA
HETATM   40  C   UNL     1      44.437 -22.138   1.879  1.00  0.00     0.210 C 
ENDBRANCH  34  39
ENDBRANCH   1  31
TORSDOF 5
ENDMDL
MODEL 8
REMARK VINA RESULT:      -8.5      1.578      1.909
REMARK  5 active torsions:
REMARK  status: ('A' for Active; 'I' for Inactive)
REMARK    1  A    between atoms: O_2  and  C_3 
REMARK    2  A    between atoms: C_5  and  O_6 
REMARK    3  A    between atoms: C_8  and  C_9 
REMARK    4  A    between atoms: C_21  and  N_22 
REMARK       I    between atoms: N_22  and  C_23 
REMARK    5  A    between atoms: C_23  and  C_24 
ROOT
HETATM    1  C   UNL     1      41.708 -16.406   3.448  1.00  0.00    -0.022 A 
HETATM    2  C   UNL     1      42.174 -15.341   4.234  1.00  0.00     0.031 A 
HETATM    3  C   UNL     1      41.422 -14.164   4.419  1.00  0.00     0.059 A 
HETATM    4  C   UNL     1      40.161 -14.046   3.809  1.00  0.00     0.050 A 
HETATM    5  N   UNL     1      39.307 -12.929   3.890  1.00  0.00    -0.324 N 
HETATM    6  C   UNL     1      39.204 -12.011   4.902  1.00  0.00     0.245 C 
HETATM    7  O   UNL     1      38.414 -11.074   4.796  1.00  0.00    -0.271 OA
HETATM    8  C   UNL     1      40.038 -12.272   6.158  1.00  0.00     0.181 C 
HETATM    9  N   UNL     1      41.441 -12.083   5.799  1.00  0.00    -0.334 N 
HETATM   10  C   UNL     1      42.144 -13.038   5.074  1.00  0.00     0.256 C 
HETATM   11  O   UNL     1      43.364 -12.959   4.934  1.00  0.00    -0.267 OA
HETATM   12  C   UNL     1      39.584 -11.461   7.385  1.00  0.00     0.060 C 
HETATM   13  C   UNL     1      40.661 -10.538   7.956  1.00  0.00     0.088 C 
HETATM   14  C   UNL     1      41.344  -9.792   6.818  1.00  0.00     0.045 C 
HETATM   15  C   UNL     1      42.029 -10.746   5.852  1.00  0.00     0.129 C 
HETATM   16  C   UNL     1      39.700 -15.099   3.006  1.00  0.00     0.031 A 
HETATM   17  C   UNL     1      40.457 -16.264   2.838  1.00  0.00     0.014 A 
HETATM   18  H   UNL     1      38.580 -12.827   3.189  1.00  0.00     0.169 HD
ENDROOT
BRANCH  13  19
HETATM   19  N   UNL     1      41.629 -11.273   8.774  1.00  0.00    -0.356 N 
HETATM   20  C   UNL     1      42.327 -10.659   9.785  1.00  0.00     0.222 C 
HETATM   21  O   UNL     1      42.318  -9.450   9.986  1.00  0.00    -0.273 OA
HETATM   22  H   UNL     1      41.495 -12.279   8.829  1.00  0.00     0.162 HD
BRANCH  20  23
HETATM   23  C   UNL     1      43.232 -11.589  10.581  1.00  0.00     0.081 C 
HETATM   24  C   UNL     1      44.259 -10.796  11.406  1.00  0.00     0.041 C 
HETATM   25  C   UNL     1      45.357 -10.155  10.564  1.00  0.00     0.233 C 
HETATM   26  N   UNL     1      45.962 -11.180   9.665  1.00  0.00    -0.075 N 
HETATM   27  H   UNL     1      46.476 -11.875  10.222  1.00  0.00     0.277 HD
HETATM   28  H   UNL     1      46.669 -10.715   9.079  1.00  0.00     0.277 HD
HETATM   29  C   UNL     1      44.981 -11.864   8.771  1.00  0.00     0.233 C 
HETATM   30  C   UNL     1      43.930 -12.562   9.623  1.00  0.00     0.041 C 
ENDBRANCH  20  23
ENDBRANCH  13  19
BRANCH   1  31
HETATM   31  C   UNL     1      42.544 -17.600   3.212  1.00  0.00     0.008 A 
HETATM   32  C   UNL     1      43.038 -18.411   4.257  1.00  0.00     0.082 A 
HETATM   33  C   UNL     1      43.823 -19.533   3.955  1.00  0.00     0.074 A 
HETATM   34  C   UNL     1      44.115 -19.880   2.632  1.00  0.00     0.070 A 
HETATM   35  C   UNL     1      43.626 -19.091   1.597  1.00  0.00     0.038 A 
HETATM   36  C   UNL     1      42.851 -17.965   1.886  1.00  0.00     0.018 A 
BRANCH  32  37
HETATM   37  O   UNL     1      42.734 -18.014   5.538  1.00  0.00    -0.355 OA
HETATM   38  C   UNL     1      43.392 -18.697   6.600  1.00  0.00     0.210 C 
ENDBRANCH  32  37
BRANCH  34  39
HETATM   39  O   UNL     1      44.886 -21.001   2.491  1.00  0.00    -0.356 OA
HETATM   40  C   UNL     1      44.708 -22.031   3.456  1.00  0.00     0.210 C 
ENDBRANCH  34  39
ENDBRANCH   1  31
TORSDOF 5
ENDMDL
MODEL 9
REMARK VINA RESULT:      -8.0      4.446      5.947
REMARK  5 active torsions:
REMARK  status: ('A' for Active; 'I' for Inactive)
REMARK    1  A    between atoms: O_2  and  C_3 
REMARK    2  A    between atoms: C_5  and  O_6 
REMARK    3  A    between atoms: C_8  and  C_9 
REMARK    4  A    between atoms: C_21  and  N_22 
REMARK       I    between atoms: N_22  and  C_23 
REMARK    5  A    between atoms: C_23  and  C_24 
ROOT
HETATM    1  C   UNL     1      42.209 -16.989   2.596  1.00  0.00    -0.022 A 
HETATM    2  C   UNL     1      42.200 -15.586   2.599  1.00  0.00     0.031 A 
HETATM    3  C   UNL     1      41.772 -14.840   1.483  1.00  0.00     0.059 A 
HETATM    4  C   UNL     1      41.332 -15.512   0.329  1.00  0.00     0.050 A 
HETATM    5  N   UNL     1      40.893 -14.902  -0.863  1.00  0.00    -0.324 N 
HETATM    6  C   UNL     1      40.302 -13.676  -1.021  1.00  0.00     0.245 C 
HETATM    7  O   UNL     1      40.001 -13.287  -2.149  1.00  0.00    -0.271 OA
HETATM    8  C   UNL     1      39.972 -12.898   0.255  1.00  0.00     0.181 C 
HETATM    9  N   UNL     1      41.238 -12.483   0.854  1.00  0.00    -0.334 N 
HETATM   10  C   UNL     1      42.044 -13.377   1.548  1.00  0.00     0.256 C 
HETATM   11  O   UNL     1      43.011 -12.986   2.202  1.00  0.00    -0.267 OA
HETATM   12  C   UNL     1      38.967 -11.752   0.041  1.00  0.00     0.060 C 
HETATM   13  C   UNL     1      39.507 -10.371   0.416  1.00  0.00     0.088 C 
HETATM   14  C   UNL     1      40.911 -10.206  -0.149  1.00  0.00     0.045 C 
HETATM   15  C   UNL     1      41.871 -11.239   0.421  1.00  0.00     0.129 C 
HETATM   16  C   UNL     1      41.358 -16.913   0.314  1.00  0.00     0.031 A 
HETATM   17  C   UNL     1      41.779 -17.640   1.434  1.00  0.00     0.014 A 
HETATM   18  H   UNL     1      40.886 -15.458  -1.712  1.00  0.00     0.169 HD
ENDROOT
BRANCH  13  19
HETATM   19  N   UNL     1      39.481 -10.152   1.864  1.00  0.00    -0.356 N 
HETATM   20  C   UNL     1      38.432 -10.589   2.637  1.00  0.00     0.222 C 
HETATM   21  O   UNL     1      37.391 -11.048   2.180  1.00  0.00    -0.273 OA
HETATM   22  H   UNL     1      40.383 -10.022   2.313  1.00  0.00     0.162 HD
BRANCH  20  23
HETATM   23  C   UNL     1      38.605 -10.344   4.130  1.00  0.00     0.081 C 
HETATM   24  C   UNL     1      39.873  -9.524   4.417  1.00  0.00     0.041 C 
HETATM   25  C   UNL     1      41.166 -10.306   4.213  1.00  0.00     0.233 C 
HETATM   26  N   UNL     1      41.096 -11.596   4.959  1.00  0.00    -0.075 N 
HETATM   27  H   UNL     1      41.094 -11.416   5.971  1.00  0.00     0.277 HD
HETATM   28  H   UNL     1      41.960 -12.122   4.771  1.00  0.00     0.277 HD
HETATM   29  C   UNL     1      39.930 -12.452   4.588  1.00  0.00     0.233 C 
HETATM   30  C   UNL     1      38.641 -11.690   4.864  1.00  0.00     0.041 C 
ENDBRANCH  20  23
ENDBRANCH  13  19
BRANCH   1  31
HETATM   31  C   UNL     1      42.727 -17.749   3.752  1.00  0.00     0.008 A 
HETATM   32  C   UNL     1      42.072 -17.787   5.002  1.00  0.00     0.082 A 
HETATM   33  C   UNL     1      42.622 -18.535   6.053  1.00  0.00     0.074 A 
HETATM   34  C   UNL     1      43.804 -19.264   5.884  1.00  0.00     0.070 A 
HETATM   35  C   UNL     1      44.451 -19.237   4.654  1.00  0.00     0.038 A 
HETATM   36  C   UNL     1      43.918 -18.488   3.602  1.00  0.00     0.018 A 
BRANCH  32  37
HETATM   37  O   UNL     1      40.923 -17.040   5.117  1.00  0.00    -0.355 OA
HETATM   38  C   UNL     1      40.902 -16.037   6.126  1.00  0.00     0.210 C 
ENDBRANCH  32  37
BRANCH  34  39
HETATM   39  O   UNL     1      44.218 -19.948   6.994  1.00  0.00    -0.356 OA
HETATM   40  C   UNL     1      43.548 -21.169   7.285  1.00  0.00     0.210 C 
ENDBRANCH  34  39
ENDBRANCH   1  31
TORSDOF 5
ENDMDL
MODEL 10
REMARK VINA RESULT:      -8.0      4.772      6.264
REMARK  5 active torsions:
REMARK  status: ('A' for Active; 'I' for Inactive)
REMARK    1  A    between atoms: O_2  and  C_3 
REMARK    2  A    between atoms: C_5  and  O_6 
REMARK    3  A    between atoms: C_8  and  C_9 
REMARK    4  A    between atoms: C_21  and  N_22 
REMARK       I    between atoms: N_22  and  C_23 
REMARK    5  A    between atoms: C_23  and  C_24 
ROOT
HETATM    1  C   UNL     1      42.087 -17.061   2.830  1.00  0.00    -0.022 A 
HETATM    2  C   UNL     1      42.061 -15.661   2.734  1.00  0.00     0.031 A 
HETATM    3  C   UNL     1      41.648 -15.001   1.560  1.00  0.00     0.059 A 
HETATM    4  C   UNL     1      41.243 -15.758   0.447  1.00  0.00     0.050 A 
HETATM    5  N   UNL     1      40.823 -15.240  -0.794  1.00  0.00    -0.324 N 
HETATM    6  C   UNL     1      40.220 -14.037  -1.051  1.00  0.00     0.245 C 
HETATM    7  O   UNL     1      39.940 -13.732  -2.210  1.00  0.00    -0.271 OA
HETATM    8  C   UNL     1      39.851 -13.176   0.159  1.00  0.00     0.181 C 
HETATM    9  N   UNL     1      41.098 -12.702   0.755  1.00  0.00    -0.334 N 
HETATM   10  C   UNL     1      41.900 -13.534   1.527  1.00  0.00     0.256 C 
HETATM   11  O   UNL     1      42.846 -13.083   2.173  1.00  0.00    -0.267 OA
HETATM   12  C   UNL     1      38.836 -12.063  -0.156  1.00  0.00     0.060 C 
HETATM   13  C   UNL     1      39.350 -10.652   0.132  1.00  0.00     0.088 C 
HETATM   14  C   UNL     1      40.764 -10.506  -0.412  1.00  0.00     0.045 C 
HETATM   15  C   UNL     1      41.724 -11.482   0.249  1.00  0.00     0.129 C 
HETATM   16  C   UNL     1      41.288 -17.157   0.531  1.00  0.00     0.031 A 
HETATM   17  C   UNL     1      41.693 -17.797   1.707  1.00  0.00     0.014 A 
HETATM   18  H   UNL     1      40.842 -15.854  -1.603  1.00  0.00     0.169 HD
ENDROOT
BRANCH  13  19
HETATM   19  N   UNL     1      39.288 -10.332   1.561  1.00  0.00    -0.356 N 
HETATM   20  C   UNL     1      39.240  -9.034   2.004  1.00  0.00     0.222 C 
HETATM   21  O   UNL     1      39.396  -8.058   1.279  1.00  0.00    -0.273 OA
HETATM   22  H   UNL     1      38.910 -11.058   2.165  1.00  0.00     0.162 HD
BRANCH  20  23
HETATM   23  C   UNL     1      39.102  -8.888   3.514  1.00  0.00     0.081 C 
HETATM   24  C   UNL     1      39.966  -7.731   4.043  1.00  0.00     0.041 C 
HETATM   25  C   UNL     1      41.462  -8.028   4.028  1.00  0.00     0.233 C 
HETATM   26  N   UNL     1      41.720  -9.336   4.699  1.00  0.00    -0.075 N 
HETATM   27  H   UNL     1      41.511  -9.262   5.703  1.00  0.00     0.277 HD
HETATM   28  H   UNL     1      42.728  -9.533   4.639  1.00  0.00     0.277 HD
HETATM   29  C   UNL     1      40.976 -10.485   4.103  1.00  0.00     0.233 C 
HETATM   30  C   UNL     1      39.480 -10.211   4.189  1.00  0.00     0.041 C 
ENDBRANCH  20  23
ENDBRANCH  13  19
BRANCH   1  31
HETATM   31  C   UNL     1      42.589 -17.730   4.048  1.00  0.00     0.008 A 
HETATM   32  C   UNL     1      43.623 -18.691   4.026  1.00  0.00     0.082 A 
HETATM   33  C   UNL     1      44.050 -19.280   5.224  1.00  0.00     0.074 A 
HETATM   34  C   UNL     1      43.483 -18.922   6.452  1.00  0.00     0.070 A 
HETATM   35  C   UNL     1      42.470 -17.970   6.483  1.00  0.00     0.038 A 
HETATM   36  C   UNL     1      42.029 -17.383   5.294  1.00  0.00     0.018 A 
BRANCH  32  37
HETATM   37  O   UNL     1      44.132 -19.017   2.791  1.00  0.00    -0.355 OA
HETATM   38  C   UNL     1      44.346 -20.399   2.523  1.00  0.00     0.210 C 
ENDBRANCH  32  37
BRANCH  34  39
HETATM   39  O   UNL     1      44.004 -19.576   7.535  1.00  0.00    -0.356 OA
HETATM   40  C   UNL     1      43.596 -20.925   7.730  1.00  0.00     0.210 C 
ENDBRANCH  34  39
ENDBRANCH   1  31
TORSDOF 5
ENDMDL
