MODEL 1
REMARK VINA RESULT:      -7.9      0.000      0.000
REMARK  6 active torsions:
REMARK  status: ('A' for Active; 'I' for Inactive)
REMARK    1  A    between atoms: C_2  and  N_3 
REMARK    2  A    between atoms: C_2  and  C_11 
REMARK       I    between atoms: N_3  and  C_4 
REMARK    3  A    between atoms: C_4  and  C_5 
REMARK    4  A    between atoms: C_14  and  O_15 
REMARK    5  A    between atoms: O_15  and  C_16 
REMARK    6  A    between atoms: C_16  and  C_17 
ROOT
HETATM    1  C   UNL     1      40.628 -15.737   2.077  1.00  0.00    -0.036 A 
HETATM    2  C   UNL     1      41.236 -16.861   1.494  1.00  0.00     0.012 A 
HETATM    3  C   UNL     1      41.948 -17.785   2.268  1.00  0.00     0.037 A 
HETATM    4  C   UNL     1      42.063 -17.601   3.643  1.00  0.00     0.069 A 
HETATM    5  C   UNL     1      41.425 -16.513   4.239  1.00  0.00     0.037 A 
HETATM    6  C   UNL     1      40.711 -15.588   3.467  1.00  0.00     0.012 A 
ENDROOT
BRANCH   1   7
HETATM    7  C   UNL     1      39.883 -14.766   1.179  1.00  0.00     0.113 C 
HETATM    8  C   UNL     1      38.393 -14.607   1.497  1.00  0.00     0.037 C 
BRANCH   7   9
HETATM    9  N   UNL     1      40.061 -15.162  -0.208  1.00  0.00    -0.352 N 
HETATM   10  C   UNL     1      40.635 -14.323  -1.127  1.00  0.00     0.225 C 
HETATM   11  O   UNL     1      41.125 -13.234  -0.866  1.00  0.00    -0.273 OA
HETATM   12  H   UNL     1      39.632 -16.028  -0.508  1.00  0.00     0.163 HD
BRANCH  10  13
HETATM   13  C   UNL     1      40.629 -14.846  -2.508  1.00  0.00     0.119 A 
HETATM   14  C   UNL     1      39.348 -14.880  -3.300  1.00  0.00     0.126 A 
HETATM   15 CL   UNL     1      39.087 -16.273  -4.350  1.00  0.00    -0.101 Cl
HETATM   16 CL   UNL     1      37.860 -14.232  -2.632  1.00  0.00    -0.101 Cl
HETATM   17  C   UNL     1      40.430 -13.913  -3.682  1.00  0.00     0.060 A 
ENDBRANCH  10  13
ENDBRANCH   7   9
ENDBRANCH   1   7
BRANCH   4  18
HETATM   18  O   UNL     1      42.754 -18.408   4.505  1.00  0.00    -0.347 OA
BRANCH  18  19
HETATM   19  C   UNL     1      44.135 -18.622   4.212  1.00  0.00     0.215 C 
BRANCH  19  20
HETATM   20  C   UNL     1      44.374 -20.082   3.939  1.00  0.00    -0.017 A 
HETATM   21  C   UNL     1      44.728 -20.963   4.956  1.00  0.00     0.125 A 
HETATM   22  N   UNL     1      44.919 -22.291   4.781  1.00  0.00    -0.272 NA
HETATM   23  C   UNL     1      44.749 -22.770   3.531  1.00  0.00     0.116 A 
HETATM   24  C   UNL     1      44.387 -21.983   2.450  1.00  0.00     0.020 A 
HETATM   25  C   UNL     1      44.192 -20.622   2.661  1.00  0.00     0.012 A 
ENDBRANCH  19  20
ENDBRANCH  18  19
ENDBRANCH   4  18
TORSDOF 6
ENDMDL
MODEL 2
REMARK VINA RESULT:      -7.7      1.695      2.634
REMARK  6 active torsions:
REMARK  status: ('A' for Active; 'I' for Inactive)
REMARK    1  A    between atoms: C_2  and  N_3 
REMARK    2  A    between atoms: C_2  and  C_11 
REMARK       I    between atoms: N_3  and  C_4 
REMARK    3  A    between atoms: C_4  and  C_5 
REMARK    4  A    between atoms: C_14  and  O_15 
REMARK    5  A    between atoms: O_15  and  C_16 
REMARK    6  A    between atoms: C_16  and  C_17 
ROOT
HETATM    1  C   UNL     1      41.799 -16.743   1.620  1.00  0.00    -0.036 A 
HETATM    2  C   UNL     1      41.434 -17.225   2.888  1.00  0.00     0.012 A 
HETATM    3  C   UNL     1      42.085 -18.323   3.463  1.00  0.00     0.037 A 
HETATM    4  C   UNL     1      43.117 -18.959   2.777  1.00  0.00     0.069 A 
HETATM    5  C   UNL     1      43.517 -18.461   1.536  1.00  0.00     0.037 A 
HETATM    6  C   UNL     1      42.869 -17.362   0.961  1.00  0.00     0.012 A 
ENDROOT
BRANCH   1   7
HETATM    7  C   UNL     1      41.043 -15.558   1.048  1.00  0.00     0.113 C 
HETATM    8  C   UNL     1      39.690 -15.277   1.708  1.00  0.00     0.037 C 
BRANCH   7   9
HETATM    9  N   UNL     1      40.873 -15.743  -0.384  1.00  0.00    -0.352 N 
HETATM   10  C   UNL     1      41.289 -14.797  -1.284  1.00  0.00     0.225 C 
HETATM   11  O   UNL     1      41.908 -13.784  -0.996  1.00  0.00    -0.273 OA
HETATM   12  H   UNL     1      40.322 -16.532  -0.693  1.00  0.00     0.163 HD
BRANCH  10  13
HETATM   13  C   UNL     1      40.933 -15.100  -2.685  1.00  0.00     0.119 A 
HETATM   14  C   UNL     1      39.518 -14.908  -3.166  1.00  0.00     0.126 A 
HETATM   15 CL   UNL     1      38.884 -16.098  -4.303  1.00  0.00    -0.101 Cl
HETATM   16 CL   UNL     1      38.287 -14.251  -2.100  1.00  0.00    -0.101 Cl
HETATM   17  C   UNL     1      40.597 -13.986  -3.651  1.00  0.00     0.060 A 
ENDBRANCH  10  13
ENDBRANCH   7   9
ENDBRANCH   1   7
BRANCH   4  18
HETATM   18  O   UNL     1      43.810 -20.056   3.209  1.00  0.00    -0.347 OA
BRANCH  18  19
HETATM   19  C   UNL     1      45.005 -19.805   3.951  1.00  0.00     0.215 C 
BRANCH  19  20
HETATM   20  C   UNL     1      44.653 -19.428   5.364  1.00  0.00    -0.017 A 
HETATM   21  C   UNL     1      43.995 -20.313   6.211  1.00  0.00     0.125 A 
HETATM   22  N   UNL     1      43.686 -20.046   7.501  1.00  0.00    -0.272 NA
HETATM   23  C   UNL     1      44.050 -18.836   7.975  1.00  0.00     0.116 A 
HETATM   24  C   UNL     1      44.718 -17.885   7.221  1.00  0.00     0.020 A 
HETATM   25  C   UNL     1      45.028 -18.190   5.899  1.00  0.00     0.012 A 
ENDBRANCH  19  20
ENDBRANCH  18  19
ENDBRANCH   4  18
TORSDOF 6
ENDMDL
MODEL 3
REMARK VINA RESULT:      -7.5      2.490      3.334
REMARK  6 active torsions:
REMARK  status: ('A' for Active; 'I' for Inactive)
REMARK    1  A    between atoms: C_2  and  N_3 
REMARK    2  A    between atoms: C_2  and  C_11 
REMARK       I    between atoms: N_3  and  C_4 
REMARK    3  A    between atoms: C_4  and  C_5 
REMARK    4  A    between atoms: C_14  and  O_15 
REMARK    5  A    between atoms: O_15  and  C_16 
REMARK    6  A    between atoms: C_16  and  C_17 
ROOT
HETATM    1  C   UNL     1      42.038 -15.650   5.174  1.00  0.00    -0.036 A 
HETATM    2  C   UNL     1      41.336 -16.790   4.748  1.00  0.00     0.012 A 
HETATM    3  C   UNL     1      41.833 -18.078   4.980  1.00  0.00     0.037 A 
HETATM    4  C   UNL     1      43.045 -18.249   5.643  1.00  0.00     0.069 A 
HETATM    5  C   UNL     1      43.730 -17.125   6.108  1.00  0.00     0.037 A 
HETATM    6  C   UNL     1      43.233 -15.837   5.880  1.00  0.00     0.012 A 
ENDROOT
BRANCH   1   7
HETATM    7  C   UNL     1      41.451 -14.282   4.878  1.00  0.00     0.113 C 
HETATM    8  C   UNL     1      40.289 -13.871   5.786  1.00  0.00     0.037 C 
BRANCH   7   9
HETATM    9  N   UNL     1      41.043 -14.226   3.484  1.00  0.00    -0.352 N 
HETATM   10  C   UNL     1      41.891 -13.779   2.505  1.00  0.00     0.225 C 
HETATM   11  O   UNL     1      43.064 -13.484   2.679  1.00  0.00    -0.273 OA
HETATM   12  H   UNL     1      40.070 -14.405   3.272  1.00  0.00     0.163 HD
BRANCH  10  13
HETATM   13  C   UNL     1      41.271 -13.682   1.168  1.00  0.00     0.119 A 
HETATM   14  C   UNL     1      41.362 -14.838   0.206  1.00  0.00     0.126 A 
HETATM   15 CL   UNL     1      41.586 -14.450  -1.501  1.00  0.00    -0.101 Cl
HETATM   16 CL   UNL     1      42.132 -16.343   0.677  1.00  0.00    -0.101 Cl
HETATM   17  C   UNL     1      40.041 -14.495   0.830  1.00  0.00     0.060 A 
ENDBRANCH  10  13
ENDBRANCH   7   9
ENDBRANCH   1   7
BRANCH   4  18
HETATM   18  O   UNL     1      43.655 -19.445   5.903  1.00  0.00    -0.347 OA
BRANCH  18  19
HETATM   19  C   UNL     1      44.883 -19.699   5.218  1.00  0.00     0.215 C 
BRANCH  19  20
HETATM   20  C   UNL     1      44.609 -20.476   3.959  1.00  0.00    -0.017 A 
HETATM   21  C   UNL     1      44.756 -21.858   3.912  1.00  0.00     0.125 A 
HETATM   22  N   UNL     1      44.489 -22.615   2.822  1.00  0.00    -0.272 NA
HETATM   23  C   UNL     1      44.053 -21.965   1.723  1.00  0.00     0.116 A 
HETATM   24  C   UNL     1      43.862 -20.594   1.666  1.00  0.00     0.020 A 
HETATM   25  C   UNL     1      44.139 -19.842   2.803  1.00  0.00     0.012 A 
ENDBRANCH  19  20
ENDBRANCH  18  19
ENDBRANCH   4  18
TORSDOF 6
ENDMDL
MODEL 4
REMARK VINA RESULT:      -7.4      7.205      9.044
REMARK  6 active torsions:
REMARK  status: ('A' for Active; 'I' for Inactive)
REMARK    1  A    between atoms: C_2  and  N_3 
REMARK    2  A    between atoms: C_2  and  C_11 
REMARK       I    between atoms: N_3  and  C_4 
REMARK    3  A    between atoms: C_4  and  C_5 
REMARK    4  A    between atoms: C_14  and  O_15 
REMARK    5  A    between atoms: O_15  and  C_16 
REMARK    6  A    between atoms: C_16  and  C_17 
ROOT
HETATM    1  C   UNL     1      43.965 -13.388   7.235  1.00  0.00    -0.036 A 
HETATM    2  C   UNL     1      44.602 -14.633   7.373  1.00  0.00     0.012 A 
HETATM    3  C   UNL     1      44.216 -15.735   6.602  1.00  0.00     0.037 A 
HETATM    4  C   UNL     1      43.183 -15.611   5.676  1.00  0.00     0.069 A 
HETATM    5  C   UNL     1      42.574 -14.369   5.499  1.00  0.00     0.037 A 
HETATM    6  C   UNL     1      42.959 -13.264   6.268  1.00  0.00     0.012 A 
ENDROOT
BRANCH   1   7
HETATM    7  C   UNL     1      44.421 -12.237   8.113  1.00  0.00     0.113 C 
HETATM    8  C   UNL     1      45.790 -12.432   8.771  1.00  0.00     0.037 C 
BRANCH   7   9
HETATM    9  N   UNL     1      43.411 -11.974   9.124  1.00  0.00    -0.352 N 
HETATM   10  C   UNL     1      42.637 -10.844   9.089  1.00  0.00     0.225 C 
HETATM   11  O   UNL     1      42.648 -10.018   8.188  1.00  0.00    -0.273 OA
HETATM   12  H   UNL     1      43.382 -12.586   9.929  1.00  0.00     0.163 HD
BRANCH  10  13
HETATM   13  C   UNL     1      41.746 -10.686  10.257  1.00  0.00     0.119 A 
HETATM   14  C   UNL     1      42.326 -10.422  11.622  1.00  0.00     0.126 A 
HETATM   15 CL   UNL     1      41.542 -11.202  12.996  1.00  0.00    -0.101 Cl
HETATM   16 CL   UNL     1      44.056 -10.219  11.841  1.00  0.00    -0.101 Cl
HETATM   17  C   UNL     1      41.573  -9.335  10.914  1.00  0.00     0.060 A 
ENDBRANCH  10  13
ENDBRANCH   7   9
ENDBRANCH   1   7
BRANCH   4  18
HETATM   18  O   UNL     1      42.690 -16.614   4.886  1.00  0.00    -0.347 OA
BRANCH  18  19
HETATM   19  C   UNL     1      42.741 -17.935   5.425  1.00  0.00     0.215 C 
BRANCH  19  20
HETATM   20  C   UNL     1      43.470 -18.843   4.472  1.00  0.00    -0.017 A 
HETATM   21  C   UNL     1      44.451 -19.724   4.915  1.00  0.00     0.125 A 
HETATM   22  N   UNL     1      45.113 -20.590   4.113  1.00  0.00    -0.272 NA
HETATM   23  C   UNL     1      44.784 -20.580   2.804  1.00  0.00     0.116 A 
HETATM   24  C   UNL     1      43.816 -19.752   2.262  1.00  0.00     0.020 A 
HETATM   25  C   UNL     1      43.147 -18.876   3.111  1.00  0.00     0.012 A 
ENDBRANCH  19  20
ENDBRANCH  18  19
ENDBRANCH   4  18
TORSDOF 6
ENDMDL
MODEL 5
REMARK VINA RESULT:      -7.3      5.361      6.526
REMARK  6 active torsions:
REMARK  status: ('A' for Active; 'I' for Inactive)
REMARK    1  A    between atoms: C_2  and  N_3 
REMARK    2  A    between atoms: C_2  and  C_11 
REMARK       I    between atoms: N_3  and  C_4 
REMARK    3  A    between atoms: C_4  and  C_5 
REMARK    4  A    between atoms: C_14  and  O_15 
REMARK    5  A    between atoms: O_15  and  C_16 
REMARK    6  A    between atoms: C_16  and  C_17 
ROOT
HETATM    1  C   UNL     1      43.333 -14.909   5.035  1.00  0.00    -0.036 A 
HETATM    2  C   UNL     1      43.021 -16.138   5.640  1.00  0.00     0.012 A 
HETATM    3  C   UNL     1      42.823 -17.294   4.875  1.00  0.00     0.037 A 
HETATM    4  C   UNL     1      42.934 -17.240   3.488  1.00  0.00     0.069 A 
HETATM    5  C   UNL     1      43.287 -16.034   2.881  1.00  0.00     0.037 A 
HETATM    6  C   UNL     1      43.488 -14.878   3.644  1.00  0.00     0.012 A 
ENDROOT
BRANCH   1   7
HETATM    7  C   UNL     1      43.522 -13.691   5.921  1.00  0.00     0.113 C 
HETATM    8  C   UNL     1      44.477 -13.893   7.101  1.00  0.00     0.037 C 
BRANCH   7   9
HETATM    9  N   UNL     1      42.225 -13.239   6.397  1.00  0.00    -0.352 N 
HETATM   10  C   UNL     1      41.505 -12.287   5.723  1.00  0.00     0.225 C 
HETATM   11  O   UNL     1      41.820 -11.807   4.644  1.00  0.00    -0.273 OA
HETATM   12  H   UNL     1      41.925 -13.552   7.310  1.00  0.00     0.163 HD
BRANCH  10  13
HETATM   13  C   UNL     1      40.267 -11.867   6.412  1.00  0.00     0.119 A 
HETATM   14  C   UNL     1      40.341 -10.992   7.636  1.00  0.00     0.126 A 
HETATM   15 CL   UNL     1      39.189 -11.319   8.931  1.00  0.00    -0.101 Cl
HETATM   16 CL   UNL     1      41.883 -10.391   8.221  1.00  0.00    -0.101 Cl
HETATM   17  C   UNL     1      39.805 -10.428   6.353  1.00  0.00     0.060 A 
ENDBRANCH  10  13
ENDBRANCH   7   9
ENDBRANCH   1   7
BRANCH   4  18
HETATM   18  O   UNL     1      42.734 -18.283   2.627  1.00  0.00    -0.347 OA
BRANCH  18  19
HETATM   19  C   UNL     1      43.901 -18.863   2.042  1.00  0.00     0.215 C 
BRANCH  19  20
HETATM   20  C   UNL     1      44.180 -20.195   2.683  1.00  0.00    -0.017 A 
HETATM   21  C   UNL     1      44.068 -21.383   1.968  1.00  0.00     0.125 A 
HETATM   22  N   UNL     1      44.342 -22.606   2.477  1.00  0.00    -0.272 NA
HETATM   23  C   UNL     1      44.748 -22.652   3.764  1.00  0.00     0.116 A 
HETATM   24  C   UNL     1      44.903 -21.530   4.561  1.00  0.00     0.020 A 
HETATM   25  C   UNL     1      44.620 -20.285   4.008  1.00  0.00     0.012 A 
ENDBRANCH  19  20
ENDBRANCH  18  19
ENDBRANCH   4  18
TORSDOF 6
ENDMDL
MODEL 6
REMARK VINA RESULT:      -7.2      5.731      6.919
REMARK  6 active torsions:
REMARK  status: ('A' for Active; 'I' for Inactive)
REMARK    1  A    between atoms: C_2  and  N_3 
REMARK    2  A    between atoms: C_2  and  C_11 
REMARK       I    between atoms: N_3  and  C_4 
REMARK    3  A    between atoms: C_4  and  C_5 
REMARK    4  A    between atoms: C_14  and  O_15 
REMARK    5  A    between atoms: O_15  and  C_16 
REMARK    6  A    between atoms: C_16  and  C_17 
ROOT
HETATM    1  C   UNL     1      41.605 -14.860   5.473  1.00  0.00    -0.036 A 
HETATM    2  C   UNL     1      40.913 -15.836   6.211  1.00  0.00     0.012 A 
HETATM    3  C   UNL     1      41.428 -17.127   6.369  1.00  0.00     0.037 A 
HETATM    4  C   UNL     1      42.648 -17.468   5.790  1.00  0.00     0.069 A 
HETATM    5  C   UNL     1      43.365 -16.495   5.093  1.00  0.00     0.037 A 
HETATM    6  C   UNL     1      42.853 -15.201   4.936  1.00  0.00     0.012 A 
ENDROOT
BRANCH   1   7
HETATM    7  C   UNL     1      40.985 -13.483   5.328  1.00  0.00     0.113 C 
HETATM    8  C   UNL     1      41.861 -12.455   4.607  1.00  0.00     0.037 C 
BRANCH   7   9
HETATM    9  N   UNL     1      40.606 -12.987   6.641  1.00  0.00    -0.352 N 
HETATM   10  C   UNL     1      39.531 -12.154   6.811  1.00  0.00     0.225 C 
HETATM   11  O   UNL     1      38.751 -11.832   5.927  1.00  0.00    -0.273 OA
HETATM   12  H   UNL     1      41.236 -13.168   7.411  1.00  0.00     0.163 HD
BRANCH  10  13
HETATM   13  C   UNL     1      39.364 -11.658   8.192  1.00  0.00     0.119 A 
HETATM   14  C   UNL     1      40.419 -10.780   8.814  1.00  0.00     0.126 A 
HETATM   15 CL   UNL     1      40.770 -11.031  10.525  1.00  0.00    -0.101 Cl
HETATM   16 CL   UNL     1      41.821 -10.267   7.892  1.00  0.00    -0.101 Cl
HETATM   17  C   UNL     1      39.085 -10.195   8.455  1.00  0.00     0.060 A 
ENDBRANCH  10  13
ENDBRANCH   7   9
ENDBRANCH   1   7
BRANCH   4  18
HETATM   18  O   UNL     1      43.244 -18.698   5.842  1.00  0.00    -0.347 OA
BRANCH  18  19
HETATM   19  C   UNL     1      44.506 -18.825   5.185  1.00  0.00     0.215 C 
BRANCH  19  20
HETATM   20  C   UNL     1      44.442 -19.940   4.178  1.00  0.00    -0.017 A 
HETATM   21  C   UNL     1      44.703 -21.259   4.536  1.00  0.00     0.125 A 
HETATM   22  N   UNL     1      44.625 -22.308   3.685  1.00  0.00    -0.272 NA
HETATM   23  C   UNL     1      44.269 -22.033   2.412  1.00  0.00     0.116 A 
HETATM   24  C   UNL     1      43.978 -20.759   1.954  1.00  0.00     0.020 A 
HETATM   25  C   UNL     1      44.061 -19.700   2.853  1.00  0.00     0.012 A 
ENDBRANCH  19  20
ENDBRANCH  18  19
ENDBRANCH   4  18
TORSDOF 6
ENDMDL
MODEL 7
REMARK VINA RESULT:      -7.2      2.542      2.910
REMARK  6 active torsions:
REMARK  status: ('A' for Active; 'I' for Inactive)
REMARK    1  A    between atoms: C_2  and  N_3 
REMARK    2  A    between atoms: C_2  and  C_11 
REMARK       I    between atoms: N_3  and  C_4 
REMARK    3  A    between atoms: C_4  and  C_5 
REMARK    4  A    between atoms: C_14  and  O_15 
REMARK    5  A    between atoms: O_15  and  C_16 
REMARK    6  A    between atoms: C_16  and  C_17 
ROOT
HETATM    1  C   UNL     1      40.777 -14.995   0.967  1.00  0.00    -0.036 A 
HETATM    2  C   UNL     1      41.558 -15.829   0.149  1.00  0.00     0.012 A 
HETATM    3  C   UNL     1      42.129 -17.005   0.647  1.00  0.00     0.037 A 
HETATM    4  C   UNL     1      41.930 -17.370   1.976  1.00  0.00     0.069 A 
HETATM    5  C   UNL     1      41.121 -16.572   2.785  1.00  0.00     0.037 A 
HETATM    6  C   UNL     1      40.546 -15.396   2.289  1.00  0.00     0.012 A 
ENDROOT
BRANCH   1   7
HETATM    7  C   UNL     1      40.198 -13.726   0.369  1.00  0.00     0.113 C 
HETATM    8  C   UNL     1      38.789 -13.873  -0.212  1.00  0.00     0.037 C 
BRANCH   7   9
HETATM    9  N   UNL     1      41.107 -13.214  -0.642  1.00  0.00    -0.352 N 
HETATM   10  C   UNL     1      42.103 -12.325  -0.329  1.00  0.00     0.225 C 
HETATM   11  O   UNL     1      42.381 -11.960   0.804  1.00  0.00    -0.273 OA
HETATM   12  H   UNL     1      40.905 -13.430  -1.609  1.00  0.00     0.163 HD
BRANCH  10  13
HETATM   13  C   UNL     1      42.855 -11.825  -1.497  1.00  0.00     0.119 A 
HETATM   14  C   UNL     1      42.257 -10.766  -2.386  1.00  0.00     0.126 A 
HETATM   15 CL   UNL     1      42.555 -10.904  -4.119  1.00  0.00    -0.101 Cl
HETATM   16 CL   UNL     1      40.697 -10.052  -2.011  1.00  0.00    -0.101 Cl
HETATM   17  C   UNL     1      43.421 -10.422  -1.504  1.00  0.00     0.060 A 
ENDBRANCH  10  13
ENDBRANCH   7   9
ENDBRANCH   1   7
BRANCH   4  18
HETATM   18  O   UNL     1      42.457 -18.471   2.593  1.00  0.00    -0.347 OA
BRANCH  18  19
HETATM   19  C   UNL     1      43.773 -18.858   2.195  1.00  0.00     0.215 C 
BRANCH  19  20
HETATM   20  C   UNL     1      44.121 -20.182   2.820  1.00  0.00    -0.017 A 
HETATM   21  C   UNL     1      44.077 -21.364   2.089  1.00  0.00     0.125 A 
HETATM   22  N   UNL     1      44.414 -22.578   2.583  1.00  0.00    -0.272 NA
HETATM   23  C   UNL     1      44.817 -22.619   3.871  1.00  0.00     0.116 A 
HETATM   24  C   UNL     1      44.907 -21.501   4.683  1.00  0.00     0.020 A 
HETATM   25  C   UNL     1      44.560 -20.266   4.146  1.00  0.00     0.012 A 
ENDBRANCH  19  20
ENDBRANCH  18  19
ENDBRANCH   4  18
TORSDOF 6
ENDMDL
MODEL 8
REMARK VINA RESULT:      -7.1      2.007      2.379
REMARK  6 active torsions:
REMARK  status: ('A' for Active; 'I' for Inactive)
REMARK    1  A    between atoms: C_2  and  N_3 
REMARK    2  A    between atoms: C_2  and  C_11 
REMARK       I    between atoms: N_3  and  C_4 
REMARK    3  A    between atoms: C_4  and  C_5 
REMARK    4  A    between atoms: C_14  and  O_15 
REMARK    5  A    between atoms: O_15  and  C_16 
REMARK    6  A    between atoms: C_16  and  C_17 
ROOT
HETATM    1  C   UNL     1      40.082 -15.075   1.641  1.00  0.00    -0.036 A 
HETATM    2  C   UNL     1      40.371 -14.848   2.997  1.00  0.00     0.012 A 
HETATM    3  C   UNL     1      41.046 -15.802   3.765  1.00  0.00     0.037 A 
HETATM    4  C   UNL     1      41.447 -17.005   3.189  1.00  0.00     0.069 A 
HETATM    5  C   UNL     1      41.205 -17.223   1.832  1.00  0.00     0.037 A 
HETATM    6  C   UNL     1      40.531 -16.268   1.061  1.00  0.00     0.012 A 
ENDROOT
BRANCH   1   7
HETATM    7  C   UNL     1      39.334 -14.004   0.868  1.00  0.00     0.113 C 
HETATM    8  C   UNL     1      37.816 -14.200   0.801  1.00  0.00     0.037 C 
BRANCH   7   9
HETATM    9  N   UNL     1      39.887 -13.905  -0.472  1.00  0.00    -0.352 N 
HETATM   10  C   UNL     1      40.242 -12.698  -1.016  1.00  0.00     0.225 C 
HETATM   11  O   UNL     1      40.222 -11.632  -0.419  1.00  0.00    -0.273 OA
HETATM   12  H   UNL     1      39.882 -14.739  -1.045  1.00  0.00     0.163 HD
BRANCH  10  13
HETATM   13  C   UNL     1      40.676 -12.776  -2.426  1.00  0.00     0.119 A 
HETATM   14  C   UNL     1      42.058 -12.324  -2.818  1.00  0.00     0.126 A 
HETATM   15 CL   UNL     1      42.224 -11.483  -4.360  1.00  0.00    -0.101 Cl
HETATM   16 CL   UNL     1      43.203 -11.773  -1.606  1.00  0.00    -0.101 Cl
HETATM   17  C   UNL     1      41.718 -13.785  -2.855  1.00  0.00     0.060 A 
ENDBRANCH  10  13
ENDBRANCH   7   9
ENDBRANCH   1   7
BRANCH   4  18
HETATM   18  O   UNL     1      42.082 -18.030   3.833  1.00  0.00    -0.347 OA
BRANCH  18  19
HETATM   19  C   UNL     1      43.494 -18.129   3.641  1.00  0.00     0.215 C 
BRANCH  19  20
HETATM   20  C   UNL     1      43.861 -19.549   3.305  1.00  0.00    -0.017 A 
HETATM   21  C   UNL     1      44.569 -20.347   4.198  1.00  0.00     0.125 A 
HETATM   22  N   UNL     1      44.894 -21.641   3.970  1.00  0.00    -0.272 NA
HETATM   23  C   UNL     1      44.497 -22.169   2.793  1.00  0.00     0.116 A 
HETATM   24  C   UNL     1      43.780 -21.466   1.839  1.00  0.00     0.020 A 
HETATM   25  C   UNL     1      43.454 -20.139   2.104  1.00  0.00     0.012 A 
ENDBRANCH  19  20
ENDBRANCH  18  19
ENDBRANCH   4  18
TORSDOF 6
ENDMDL
MODEL 9
REMARK VINA RESULT:      -7.0      5.055      7.030
REMARK  6 active torsions:
REMARK  status: ('A' for Active; 'I' for Inactive)
REMARK    1  A    between atoms: C_2  and  N_3 
REMARK    2  A    between atoms: C_2  and  C_11 
REMARK       I    between atoms: N_3  and  C_4 
REMARK    3  A    between atoms: C_4  and  C_5 
REMARK    4  A    between atoms: C_14  and  O_15 
REMARK    5  A    between atoms: O_15  and  C_16 
REMARK    6  A    between atoms: C_16  and  C_17 
ROOT
HETATM    1  C   UNL     1      43.327 -16.635   4.279  1.00  0.00    -0.036 A 
HETATM    2  C   UNL     1      43.763 -17.386   5.383  1.00  0.00     0.012 A 
HETATM    3  C   UNL     1      44.132 -16.767   6.583  1.00  0.00     0.037 A 
HETATM    4  C   UNL     1      44.071 -15.380   6.699  1.00  0.00     0.069 A 
HETATM    5  C   UNL     1      43.598 -14.628   5.624  1.00  0.00     0.037 A 
HETATM    6  C   UNL     1      43.226 -15.246   4.424  1.00  0.00     0.012 A 
ENDROOT
BRANCH   1   7
HETATM    7  C   UNL     1      42.956 -17.368   3.002  1.00  0.00     0.113 C 
HETATM    8  C   UNL     1      44.036 -18.310   2.463  1.00  0.00     0.037 C 
BRANCH   7   9
HETATM    9  N   UNL     1      42.581 -16.399   1.985  1.00  0.00    -0.352 N 
HETATM   10  C   UNL     1      41.598 -16.665   1.068  1.00  0.00     0.225 C 
HETATM   11  O   UNL     1      40.895 -17.664   1.069  1.00  0.00    -0.273 OA
HETATM   12  H   UNL     1      43.156 -15.572   1.890  1.00  0.00     0.163 HD
BRANCH  10  13
HETATM   13  C   UNL     1      41.432 -15.617   0.041  1.00  0.00     0.119 A 
HETATM   14  C   UNL     1      40.288 -14.640   0.134  1.00  0.00     0.126 A 
HETATM   15 CL   UNL     1      39.511 -14.163  -1.376  1.00  0.00    -0.101 Cl
HETATM   16 CL   UNL     1      39.182 -14.678   1.496  1.00  0.00    -0.101 Cl
HETATM   17  C   UNL     1      41.690 -14.164   0.377  1.00  0.00     0.060 A 
ENDBRANCH  10  13
ENDBRANCH   7   9
ENDBRANCH   1   7
BRANCH   4  18
HETATM   18  O   UNL     1      44.432 -14.652   7.799  1.00  0.00    -0.347 OA
BRANCH  18  19
HETATM   19  C   UNL     1      45.244 -13.500   7.565  1.00  0.00     0.215 C 
BRANCH  19  20
HETATM   20  C   UNL     1      44.859 -12.407   8.525  1.00  0.00    -0.017 A 
HETATM   21  C   UNL     1      43.657 -11.720   8.399  1.00  0.00     0.125 A 
HETATM   22  N   UNL     1      43.238 -10.755   9.252  1.00  0.00    -0.272 NA
HETATM   23  C   UNL     1      44.058 -10.458  10.282  1.00  0.00     0.116 A 
HETATM   24  C   UNL     1      45.271 -11.087  10.505  1.00  0.00     0.020 A 
HETATM   25  C   UNL     1      45.672 -12.080   9.616  1.00  0.00     0.012 A 
ENDBRANCH  19  20
ENDBRANCH  18  19
ENDBRANCH   4  18
TORSDOF 6
ENDMDL
MODEL 10
REMARK VINA RESULT:      -6.8      3.845      8.455
REMARK  6 active torsions:
REMARK  status: ('A' for Active; 'I' for Inactive)
REMARK    1  A    between atoms: C_2  and  N_3 
REMARK    2  A    between atoms: C_2  and  C_11 
REMARK       I    between atoms: N_3  and  C_4 
REMARK    3  A    between atoms: C_4  and  C_5 
REMARK    4  A    between atoms: C_14  and  O_15 
REMARK    5  A    between atoms: O_15  and  C_16 
REMARK    6  A    between atoms: C_16  and  C_17 
ROOT
HETATM    1  C   UNL     1      41.807 -15.648   3.024  1.00  0.00    -0.036 A 
HETATM    2  C   UNL     1      42.809 -16.262   2.254  1.00  0.00     0.012 A 
HETATM    3  C   UNL     1      42.667 -16.423   0.872  1.00  0.00     0.037 A 
HETATM    4  C   UNL     1      41.516 -15.970   0.231  1.00  0.00     0.069 A 
HETATM    5  C   UNL     1      40.535 -15.318   0.979  1.00  0.00     0.037 A 
HETATM    6  C   UNL     1      40.676 -15.155   2.362  1.00  0.00     0.012 A 
ENDROOT
BRANCH   1   7
HETATM    7  C   UNL     1      42.017 -15.518   4.521  1.00  0.00     0.113 C 
HETATM    8  C   UNL     1      42.560 -14.162   4.981  1.00  0.00     0.037 C 
BRANCH   7   9
HETATM    9  N   UNL     1      42.888 -16.588   4.978  1.00  0.00    -0.352 N 
HETATM   10  C   UNL     1      42.393 -17.814   5.337  1.00  0.00     0.225 C 
HETATM   11  O   UNL     1      41.224 -18.155   5.223  1.00  0.00    -0.273 OA
HETATM   12  H   UNL     1      43.860 -16.363   5.148  1.00  0.00     0.163 HD
BRANCH  10  13
HETATM   13  C   UNL     1      43.406 -18.738   5.884  1.00  0.00     0.119 A 
HETATM   14  C   UNL     1      44.179 -19.647   4.963  1.00  0.00     0.126 A 
HETATM   15 CL   UNL     1      44.531 -21.274   5.545  1.00  0.00    -0.101 Cl
HETATM   16 CL   UNL     1      43.948 -19.572   3.225  1.00  0.00    -0.101 Cl
HETATM   17  C   UNL     1      44.879 -18.501   5.632  1.00  0.00     0.060 A 
ENDBRANCH  10  13
ENDBRANCH   7   9
ENDBRANCH   1   7
BRANCH   4  18
HETATM   18  O   UNL     1      41.240 -16.093  -1.102  1.00  0.00    -0.347 OA
BRANCH  18  19
HETATM   19  C   UNL     1      41.104 -14.879  -1.842  1.00  0.00     0.215 C 
BRANCH  19  20
HETATM   20  C   UNL     1      39.809 -14.895  -2.608  1.00  0.00    -0.017 A 
HETATM   21  C   UNL     1      39.583 -15.807  -3.633  1.00  0.00     0.125 A 
HETATM   22  N   UNL     1      38.427 -15.896  -4.331  1.00  0.00    -0.272 NA
HETATM   23  C   UNL     1      37.445 -15.034  -3.993  1.00  0.00     0.116 A 
HETATM   24  C   UNL     1      37.562 -14.094  -2.983  1.00  0.00     0.020 A 
HETATM   25  C   UNL     1      38.760 -14.030  -2.278  1.00  0.00     0.012 A 
ENDBRANCH  19  20
ENDBRANCH  18  19
ENDBRANCH   4  18
TORSDOF 6
ENDMDL
