MODEL 1
REMARK VINA RESULT:      -8.8      0.000      0.000
REMARK  8 active torsions:
REMARK  status: ('A' for Active; 'I' for Inactive)
REMARK    1  A    between atoms: C_2  and  N_3 
REMARK    2  A    between atoms: C_2  and  C_26 
REMARK       I    between atoms: N_3  and  C_4 
REMARK    3  A    between atoms: C_4  and  C_5 
REMARK    4  A    between atoms: C_5  and  S_6 
REMARK    5  A    between atoms: S_6  and  C_7 
REMARK    6  A    between atoms: C_10  and  C_11 
REMARK    7  A    between atoms: C_11  and  O_12 
REMARK    8  A    between atoms: O_12  and  C_13 
ROOT
HETATM    1  C   UNL     1      39.732 -14.348   1.547  1.00  0.00     0.191 A 
HETATM    2  N   UNL     1      40.771 -14.774   0.768  1.00  0.00    -0.314 N 
HETATM    3  C   UNL     1      41.501 -14.014  -0.213  1.00  0.00     0.160 C 
HETATM    4  C   UNL     1      40.996 -16.080   1.141  1.00  0.00     0.154 A 
HETATM    5  N   UNL     1      40.090 -16.427   2.035  1.00  0.00    -0.132 NA
HETATM    6  N   UNL     1      39.289 -15.344   2.276  1.00  0.00    -0.123 NA
ENDROOT
BRANCH   1   7
HETATM    7  S   UNL     1      39.164 -12.718   1.617  1.00  0.00    -0.081 SA
BRANCH   7   8
HETATM    8  C   UNL     1      39.265 -12.381   3.401  1.00  0.00     0.185 C 
BRANCH   8   9
HETATM    9  C   UNL     1      40.706 -12.343   3.888  1.00  0.00     0.227 C 
HETATM   10  N   UNL     1      41.229 -13.561   4.245  1.00  0.00    -0.352 N 
HETATM   11  H   UNL     1      40.664 -14.397   4.090  1.00  0.00     0.163 HD
HETATM   12  O   UNL     1      41.333 -11.289   3.979  1.00  0.00    -0.273 OA
BRANCH  10  13
HETATM   13  C   UNL     1      42.568 -13.746   4.777  1.00  0.00     0.113 C 
HETATM   14  C   UNL     1      43.619 -13.891   3.671  1.00  0.00     0.037 C 
BRANCH  13  15
HETATM   15  C   UNL     1      42.572 -14.944   5.713  1.00  0.00    -0.036 A 
HETATM   16  C   UNL     1      41.481 -15.826   5.736  1.00  0.00     0.009 A 
HETATM   17  C   UNL     1      41.493 -16.951   6.564  1.00  0.00     0.001 A 
HETATM   18  C   UNL     1      42.596 -17.213   7.375  1.00  0.00     0.000 A 
HETATM   19  C   UNL     1      43.690 -16.353   7.356  1.00  0.00     0.001 A 
HETATM   20  C   UNL     1      43.681 -15.229   6.529  1.00  0.00     0.009 A 
ENDBRANCH  13  15
ENDBRANCH  10  13
ENDBRANCH   8   9
ENDBRANCH   7   8
ENDBRANCH   1   7
BRANCH   4  21
HETATM   21  C   UNL     1      42.114 -16.933   0.660  1.00  0.00     0.256 C 
BRANCH  21  22
HETATM   22  O   UNL     1      43.207 -16.741   1.557  1.00  0.00    -0.344 OA
BRANCH  22  23
HETATM   23  C   UNL     1      43.579 -17.851   2.266  1.00  0.00     0.069 A 
HETATM   24  C   UNL     1      43.611 -19.154   1.765  1.00  0.00     0.044 A 
HETATM   25  C   UNL     1      44.015 -20.227   2.579  1.00  0.00    -0.049 A 
HETATM   26  C   UNL     1      44.355 -19.989   3.922  1.00  0.00    -0.052 A 
HETATM   27  C   UNL     1      44.008 -21.623   2.003  1.00  0.00     0.039 C 
HETATM   28  C   UNL     1      44.828 -21.103   4.824  1.00  0.00     0.039 C 
HETATM   29  C   UNL     1      44.311 -18.681   4.419  1.00  0.00     0.010 A 
HETATM   30  C   UNL     1      44.461 -22.493   4.308  1.00  0.00     0.005 C 
HETATM   31  C   UNL     1      44.812 -22.623   2.832  1.00  0.00     0.005 C 
HETATM   32  C   UNL     1      43.916 -17.622   3.600  1.00  0.00     0.037 A 
ENDBRANCH  22  23
ENDBRANCH  21  22
ENDBRANCH   4  21
TORSDOF 8
ENDMDL
MODEL 2
REMARK VINA RESULT:      -8.5      4.358      5.337
REMARK  8 active torsions:
REMARK  status: ('A' for Active; 'I' for Inactive)
REMARK    1  A    between atoms: C_2  and  N_3 
REMARK    2  A    between atoms: C_2  and  C_26 
REMARK       I    between atoms: N_3  and  C_4 
REMARK    3  A    between atoms: C_4  and  C_5 
REMARK    4  A    between atoms: C_5  and  S_6 
REMARK    5  A    between atoms: S_6  and  C_7 
REMARK    6  A    between atoms: C_10  and  C_11 
REMARK    7  A    between atoms: C_11  and  O_12 
REMARK    8  A    between atoms: O_12  and  C_13 
ROOT
HETATM    1  C   UNL     1      41.551 -12.723   5.849  1.00  0.00     0.191 A 
HETATM    2  N   UNL     1      41.067 -13.936   5.444  1.00  0.00    -0.314 N 
HETATM    3  C   UNL     1      39.739 -14.239   4.978  1.00  0.00     0.160 C 
HETATM    4  C   UNL     1      42.129 -14.806   5.546  1.00  0.00     0.154 A 
HETATM    5  N   UNL     1      43.160 -14.159   6.056  1.00  0.00    -0.132 NA
HETATM    6  N   UNL     1      42.789 -12.857   6.259  1.00  0.00    -0.123 NA
ENDROOT
BRANCH   1   7
HETATM    7  S   UNL     1      40.680 -11.236   5.742  1.00  0.00    -0.081 SA
BRANCH   7   8
HETATM    8  C   UNL     1      40.383 -10.870   7.499  1.00  0.00     0.185 C 
BRANCH   8   9
HETATM    9  C   UNL     1      41.621 -10.300   8.175  1.00  0.00     0.227 C 
HETATM   10  N   UNL     1      42.204 -11.125   9.105  1.00  0.00    -0.352 N 
HETATM   11  H   UNL     1      41.831 -12.068   9.221  1.00  0.00     0.163 HD
HETATM   12  O   UNL     1      42.038  -9.172   7.921  1.00  0.00    -0.273 OA
BRANCH  10  13
HETATM   13  C   UNL     1      43.366 -10.763   9.897  1.00  0.00     0.113 C 
HETATM   14  C   UNL     1      44.515 -11.764   9.737  1.00  0.00     0.037 C 
BRANCH  13  15
HETATM   15  C   UNL     1      42.952 -10.615  11.352  1.00  0.00    -0.036 A 
HETATM   16  C   UNL     1      43.709  -9.818  12.224  1.00  0.00     0.009 A 
HETATM   17  C   UNL     1      43.314  -9.643  13.553  1.00  0.00     0.001 A 
HETATM   18  C   UNL     1      42.156 -10.257  14.026  1.00  0.00     0.000 A 
HETATM   19  C   UNL     1      41.389 -11.043  13.171  1.00  0.00     0.001 A 
HETATM   20  C   UNL     1      41.781 -11.218  11.843  1.00  0.00     0.009 A 
ENDBRANCH  13  15
ENDBRANCH  10  13
ENDBRANCH   8   9
ENDBRANCH   7   8
ENDBRANCH   1   7
BRANCH   4  21
HETATM   21  C   UNL     1      42.129 -16.223   5.096  1.00  0.00     0.256 C 
BRANCH  21  22
HETATM   22  O   UNL     1      43.430 -16.502   4.581  1.00  0.00    -0.344 OA
BRANCH  22  23
HETATM   23  C   UNL     1      43.564 -17.721   3.971  1.00  0.00     0.069 A 
HETATM   24  C   UNL     1      44.163 -18.845   4.541  1.00  0.00     0.044 A 
HETATM   25  C   UNL     1      44.245 -20.054   3.828  1.00  0.00    -0.049 A 
HETATM   26  C   UNL     1      43.750 -20.120   2.515  1.00  0.00    -0.052 A 
HETATM   27  C   UNL     1      44.927 -21.238   4.473  1.00  0.00     0.039 C 
HETATM   28  C   UNL     1      43.784 -21.405   1.723  1.00  0.00     0.039 C 
HETATM   29  C   UNL     1      43.158 -18.985   1.947  1.00  0.00     0.010 A 
HETATM   30  C   UNL     1      44.778 -22.426   2.273  1.00  0.00     0.005 C 
HETATM   31  C   UNL     1      44.619 -22.564   3.782  1.00  0.00     0.005 C 
HETATM   32  C   UNL     1      43.075 -17.792   2.667  1.00  0.00     0.037 A 
ENDBRANCH  22  23
ENDBRANCH  21  22
ENDBRANCH   4  21
TORSDOF 8
ENDMDL
MODEL 3
REMARK VINA RESULT:      -8.5      4.385      4.986
REMARK  8 active torsions:
REMARK  status: ('A' for Active; 'I' for Inactive)
REMARK    1  A    between atoms: C_2  and  N_3 
REMARK    2  A    between atoms: C_2  and  C_26 
REMARK       I    between atoms: N_3  and  C_4 
REMARK    3  A    between atoms: C_4  and  C_5 
REMARK    4  A    between atoms: C_5  and  S_6 
REMARK    5  A    between atoms: S_6  and  C_7 
REMARK    6  A    between atoms: C_10  and  C_11 
REMARK    7  A    between atoms: C_11  and  O_12 
REMARK    8  A    between atoms: O_12  and  C_13 
ROOT
HETATM    1  C   UNL     1      40.757 -12.904   5.264  1.00  0.00     0.191 A 
HETATM    2  N   UNL     1      41.405 -13.541   4.244  1.00  0.00    -0.314 N 
HETATM    3  C   UNL     1      42.171 -12.943   3.182  1.00  0.00     0.160 C 
HETATM    4  C   UNL     1      41.199 -14.885   4.461  1.00  0.00     0.154 A 
HETATM    5  N   UNL     1      40.408 -15.028   5.508  1.00  0.00    -0.132 NA
HETATM    6  N   UNL     1      40.120 -13.784   6.000  1.00  0.00    -0.123 NA
ENDROOT
BRANCH   1   7
HETATM    7  S   UNL     1      40.850 -11.208   5.576  1.00  0.00    -0.081 SA
BRANCH   7   8
HETATM    8  C   UNL     1      40.616 -11.164   7.379  1.00  0.00     0.185 C 
BRANCH   8   9
HETATM    9  C   UNL     1      41.740 -10.414   8.077  1.00  0.00     0.227 C 
HETATM   10  N   UNL     1      42.313 -11.080   9.133  1.00  0.00    -0.352 N 
HETATM   11  H   UNL     1      42.012 -12.037   9.325  1.00  0.00     0.163 HD
HETATM   12  O   UNL     1      42.080  -9.284   7.732  1.00  0.00    -0.273 OA
BRANCH  10  13
HETATM   13  C   UNL     1      43.370 -10.531   9.964  1.00  0.00     0.113 C 
HETATM   14  C   UNL     1      44.682 -11.310   9.826  1.00  0.00     0.037 C 
BRANCH  13  15
HETATM   15  C   UNL     1      42.896 -10.483  11.407  1.00  0.00    -0.036 A 
HETATM   16  C   UNL     1      43.667  -9.830  12.382  1.00  0.00     0.009 A 
HETATM   17  C   UNL     1      43.221  -9.746  13.703  1.00  0.00     0.001 A 
HETATM   18  C   UNL     1      41.999 -10.307  14.067  1.00  0.00     0.000 A 
HETATM   19  C   UNL     1      41.218 -10.949  13.110  1.00  0.00     0.001 A 
HETATM   20  C   UNL     1      41.661 -11.034  11.790  1.00  0.00     0.009 A 
ENDBRANCH  13  15
ENDBRANCH  10  13
ENDBRANCH   8   9
ENDBRANCH   7   8
ENDBRANCH   1   7
BRANCH   4  21
HETATM   21  C   UNL     1      41.817 -15.990   3.682  1.00  0.00     0.256 C 
BRANCH  21  22
HETATM   22  O   UNL     1      43.107 -16.230   4.242  1.00  0.00    -0.344 OA
BRANCH  22  23
HETATM   23  C   UNL     1      43.539 -17.527   4.171  1.00  0.00     0.069 A 
HETATM   24  C   UNL     1      43.356 -18.379   3.080  1.00  0.00     0.044 A 
HETATM   25  C   UNL     1      43.845 -19.697   3.107  1.00  0.00    -0.049 A 
HETATM   26  C   UNL     1      44.495 -20.172   4.259  1.00  0.00    -0.052 A 
HETATM   27  C   UNL     1      43.599 -20.591   1.915  1.00  0.00     0.039 C 
HETATM   28  C   UNL     1      45.068 -21.567   4.322  1.00  0.00     0.039 C 
HETATM   29  C   UNL     1      44.667 -19.314   5.353  1.00  0.00     0.010 A 
HETATM   30  C   UNL     1      44.486 -22.505   3.266  1.00  0.00     0.005 C 
HETATM   31  C   UNL     1      44.487 -21.834   1.899  1.00  0.00     0.005 C 
HETATM   32  C   UNL     1      44.184 -18.005   5.312  1.00  0.00     0.037 A 
ENDBRANCH  22  23
ENDBRANCH  21  22
ENDBRANCH   4  21
TORSDOF 8
ENDMDL
MODEL 4
REMARK VINA RESULT:      -8.0      3.667      4.380
REMARK  8 active torsions:
REMARK  status: ('A' for Active; 'I' for Inactive)
REMARK    1  A    between atoms: C_2  and  N_3 
REMARK    2  A    between atoms: C_2  and  C_26 
REMARK       I    between atoms: N_3  and  C_4 
REMARK    3  A    between atoms: C_4  and  C_5 
REMARK    4  A    between atoms: C_5  and  S_6 
REMARK    5  A    between atoms: S_6  and  C_7 
REMARK    6  A    between atoms: C_10  and  C_11 
REMARK    7  A    between atoms: C_11  and  O_12 
REMARK    8  A    between atoms: O_12  and  C_13 
ROOT
HETATM    1  C   UNL     1      41.303 -13.758   4.906  1.00  0.00     0.191 A 
HETATM    2  N   UNL     1      41.789 -13.994   3.651  1.00  0.00    -0.314 N 
HETATM    3  C   UNL     1      42.368 -13.040   2.741  1.00  0.00     0.160 C 
HETATM    4  C   UNL     1      41.638 -15.347   3.448  1.00  0.00     0.154 A 
HETATM    5  N   UNL     1      41.026 -15.866   4.496  1.00  0.00    -0.132 NA
HETATM    6  N   UNL     1      40.803 -14.865   5.401  1.00  0.00    -0.123 NA
ENDROOT
BRANCH   1   7
HETATM    7  S   UNL     1      41.421 -12.247   5.734  1.00  0.00    -0.081 SA
BRANCH   7   8
HETATM    8  C   UNL     1      39.745 -12.086   6.424  1.00  0.00     0.185 C 
BRANCH   8   9
HETATM    9  C   UNL     1      39.766 -11.506   7.830  1.00  0.00     0.227 C 
HETATM   10  N   UNL     1      40.962 -10.949   8.209  1.00  0.00    -0.352 N 
HETATM   11  H   UNL     1      41.712 -10.888   7.518  1.00  0.00     0.163 HD
HETATM   12  O   UNL     1      38.788 -11.567   8.572  1.00  0.00    -0.273 OA
BRANCH  10  13
HETATM   13  C   UNL     1      41.214 -10.378   9.521  1.00  0.00     0.113 C 
HETATM   14  C   UNL     1      40.918  -8.876   9.569  1.00  0.00     0.037 C 
BRANCH  13  15
HETATM   15  C   UNL     1      42.647 -10.680   9.930  1.00  0.00    -0.036 A 
HETATM   16  C   UNL     1      43.530 -11.279   9.019  1.00  0.00     0.009 A 
HETATM   17  C   UNL     1      44.859 -11.523   9.372  1.00  0.00     0.001 A 
HETATM   18  C   UNL     1      45.325 -11.169  10.637  1.00  0.00     0.000 A 
HETATM   19  C   UNL     1      44.464 -10.564  11.548  1.00  0.00     0.001 A 
HETATM   20  C   UNL     1      43.136 -10.319  11.197  1.00  0.00     0.009 A 
ENDBRANCH  13  15
ENDBRANCH  10  13
ENDBRANCH   8   9
ENDBRANCH   7   8
ENDBRANCH   1   7
BRANCH   4  21
HETATM   21  C   UNL     1      42.140 -16.104   2.271  1.00  0.00     0.256 C 
BRANCH  21  22
HETATM   22  O   UNL     1      43.507 -16.422   2.526  1.00  0.00    -0.344 OA
BRANCH  22  23
HETATM   23  C   UNL     1      43.748 -17.728   2.859  1.00  0.00     0.069 A 
HETATM   24  C   UNL     1      43.951 -18.205   4.155  1.00  0.00     0.044 A 
HETATM   25  C   UNL     1      44.187 -19.571   4.389  1.00  0.00    -0.049 A 
HETATM   26  C   UNL     1      44.252 -20.460   3.302  1.00  0.00    -0.052 A 
HETATM   27  C   UNL     1      44.429 -20.039   5.805  1.00  0.00     0.039 C 
HETATM   28  C   UNL     1      44.467 -21.940   3.506  1.00  0.00     0.039 C 
HETATM   29  C   UNL     1      44.055 -19.972   2.004  1.00  0.00     0.010 A 
HETATM   30  C   UNL     1      45.049 -22.281   4.877  1.00  0.00     0.005 C 
HETATM   31  C   UNL     1      44.289 -21.549   5.975  1.00  0.00     0.005 C 
HETATM   32  C   UNL     1      43.815 -18.615   1.785  1.00  0.00     0.037 A 
ENDBRANCH  22  23
ENDBRANCH  21  22
ENDBRANCH   4  21
TORSDOF 8
ENDMDL
MODEL 5
REMARK VINA RESULT:      -7.9      2.305      5.283
REMARK  8 active torsions:
REMARK  status: ('A' for Active; 'I' for Inactive)
REMARK    1  A    between atoms: C_2  and  N_3 
REMARK    2  A    between atoms: C_2  and  C_26 
REMARK       I    between atoms: N_3  and  C_4 
REMARK    3  A    between atoms: C_4  and  C_5 
REMARK    4  A    between atoms: C_5  and  S_6 
REMARK    5  A    between atoms: S_6  and  C_7 
REMARK    6  A    between atoms: C_10  and  C_11 
REMARK    7  A    between atoms: C_11  and  O_12 
REMARK    8  A    between atoms: O_12  and  C_13 
ROOT
HETATM    1  C   UNL     1      39.826 -12.915   2.945  1.00  0.00     0.191 A 
HETATM    2  N   UNL     1      39.828 -14.258   2.695  1.00  0.00    -0.314 N 
HETATM    3  C   UNL     1      39.137 -14.955   1.641  1.00  0.00     0.160 C 
HETATM    4  C   UNL     1      40.659 -14.807   3.646  1.00  0.00     0.154 A 
HETATM    5  N   UNL     1      41.062 -13.849   4.459  1.00  0.00    -0.132 NA
HETATM    6  N   UNL     1      40.526 -12.667   4.026  1.00  0.00    -0.123 NA
ENDROOT
BRANCH   1   7
HETATM    7  S   UNL     1      39.087 -11.730   1.930  1.00  0.00    -0.081 SA
BRANCH   7   8
HETATM    8  C   UNL     1      40.541 -10.998   1.119  1.00  0.00     0.185 C 
BRANCH   8   9
HETATM    9  C   UNL     1      41.360 -12.042   0.376  1.00  0.00     0.227 C 
HETATM   10  N   UNL     1      40.744 -12.588  -0.722  1.00  0.00    -0.352 N 
HETATM   11  H   UNL     1      39.839 -12.213  -1.009  1.00  0.00     0.163 HD
HETATM   12  O   UNL     1      42.477 -12.386   0.760  1.00  0.00    -0.273 OA
BRANCH  10  13
HETATM   13  C   UNL     1      41.327 -13.632  -1.547  1.00  0.00     0.113 C 
HETATM   14  C   UNL     1      42.398 -13.090  -2.500  1.00  0.00     0.037 C 
BRANCH  13  15
HETATM   15  C   UNL     1      40.219 -14.351  -2.300  1.00  0.00    -0.036 A 
HETATM   16  C   UNL     1      38.894 -13.902  -2.204  1.00  0.00     0.009 A 
HETATM   17  C   UNL     1      37.875 -14.531  -2.923  1.00  0.00     0.001 A 
HETATM   18  C   UNL     1      38.167 -15.613  -3.752  1.00  0.00     0.000 A 
HETATM   19  C   UNL     1      39.479 -16.064  -3.866  1.00  0.00     0.001 A 
HETATM   20  C   UNL     1      40.498 -15.436  -3.149  1.00  0.00     0.009 A 
ENDBRANCH  13  15
ENDBRANCH  10  13
ENDBRANCH   8   9
ENDBRANCH   7   8
ENDBRANCH   1   7
BRANCH   4  21
HETATM   21  C   UNL     1      41.079 -16.232   3.705  1.00  0.00     0.256 C 
BRANCH  21  22
HETATM   22  O   UNL     1      42.478 -16.271   3.427  1.00  0.00    -0.344 OA
BRANCH  22  23
HETATM   23  C   UNL     1      43.061 -17.503   3.555  1.00  0.00     0.069 A 
HETATM   24  C   UNL     1      42.989 -18.530   2.613  1.00  0.00     0.044 A 
HETATM   25  C   UNL     1      43.631 -19.760   2.840  1.00  0.00    -0.049 A 
HETATM   26  C   UNL     1      44.324 -19.969   4.045  1.00  0.00    -0.052 A 
HETATM   27  C   UNL     1      43.502 -20.854   1.806  1.00  0.00     0.039 C 
HETATM   28  C   UNL     1      45.058 -21.259   4.320  1.00  0.00     0.039 C 
HETATM   29  C   UNL     1      44.384 -18.936   4.989  1.00  0.00     0.010 A 
HETATM   30  C   UNL     1      44.600 -22.413   3.430  1.00  0.00     0.005 C 
HETATM   31  C   UNL     1      44.531 -21.969   1.975  1.00  0.00     0.005 C 
HETATM   32  C   UNL     1      43.749 -17.716   4.749  1.00  0.00     0.037 A 
ENDBRANCH  22  23
ENDBRANCH  21  22
ENDBRANCH   4  21
TORSDOF 8
ENDMDL
MODEL 6
REMARK VINA RESULT:      -7.8      2.341      5.716
REMARK  8 active torsions:
REMARK  status: ('A' for Active; 'I' for Inactive)
REMARK    1  A    between atoms: C_2  and  N_3 
REMARK    2  A    between atoms: C_2  and  C_26 
REMARK       I    between atoms: N_3  and  C_4 
REMARK    3  A    between atoms: C_4  and  C_5 
REMARK    4  A    between atoms: C_5  and  S_6 
REMARK    5  A    between atoms: S_6  and  C_7 
REMARK    6  A    between atoms: C_10  and  C_11 
REMARK    7  A    between atoms: C_11  and  O_12 
REMARK    8  A    between atoms: O_12  and  C_13 
ROOT
HETATM    1  C   UNL     1      41.768 -13.070   3.212  1.00  0.00     0.191 A 
HETATM    2  N   UNL     1      41.920 -13.765   4.378  1.00  0.00    -0.314 N 
HETATM    3  C   UNL     1      40.988 -13.859   5.471  1.00  0.00     0.160 C 
HETATM    4  C   UNL     1      43.144 -14.388   4.277  1.00  0.00     0.154 A 
HETATM    5  N   UNL     1      43.714 -14.017   3.146  1.00  0.00    -0.132 NA
HETATM    6  N   UNL     1      42.856 -13.179   2.488  1.00  0.00    -0.123 NA
ENDROOT
BRANCH   1   7
HETATM    7  S   UNL     1      40.321 -12.255   2.738  1.00  0.00    -0.081 SA
BRANCH   7   8
HETATM    8  C   UNL     1      39.331 -13.635   2.085  1.00  0.00     0.185 C 
BRANCH   8   9
HETATM    9  C   UNL     1      40.070 -14.393   0.992  1.00  0.00     0.227 C 
HETATM   10  N   UNL     1      40.505 -13.620  -0.056  1.00  0.00    -0.352 N 
HETATM   11  H   UNL     1      40.381 -12.608   0.002  1.00  0.00     0.163 HD
HETATM   12  O   UNL     1      40.231 -15.611   1.041  1.00  0.00    -0.273 OA
BRANCH  10  13
HETATM   13  C   UNL     1      41.191 -14.145  -1.223  1.00  0.00     0.113 C 
HETATM   14  C   UNL     1      42.168 -13.131  -1.829  1.00  0.00     0.037 C 
BRANCH  13  15
HETATM   15  C   UNL     1      40.163 -14.608  -2.241  1.00  0.00    -0.036 A 
HETATM   16  C   UNL     1      40.381 -15.778  -2.983  1.00  0.00     0.009 A 
HETATM   17  C   UNL     1      39.423 -16.234  -3.892  1.00  0.00     0.001 A 
HETATM   18  C   UNL     1      38.233 -15.529  -4.069  1.00  0.00     0.000 A 
HETATM   19  C   UNL     1      37.998 -14.371  -3.333  1.00  0.00     0.001 A 
HETATM   20  C   UNL     1      38.953 -13.915  -2.424  1.00  0.00     0.009 A 
ENDBRANCH  13  15
ENDBRANCH  10  13
ENDBRANCH   8   9
ENDBRANCH   7   8
ENDBRANCH   1   7
BRANCH   4  21
HETATM   21  C   UNL     1      43.698 -15.364   5.251  1.00  0.00     0.256 C 
BRANCH  21  22
HETATM   22  O   UNL     1      42.754 -16.427   5.367  1.00  0.00    -0.344 OA
BRANCH  22  23
HETATM   23  C   UNL     1      43.008 -17.518   4.581  1.00  0.00     0.069 A 
HETATM   24  C   UNL     1      43.794 -18.611   4.949  1.00  0.00     0.044 A 
HETATM   25  C   UNL     1      43.988 -19.687   4.065  1.00  0.00    -0.049 A 
HETATM   26  C   UNL     1      43.412 -19.645   2.784  1.00  0.00    -0.052 A 
HETATM   27  C   UNL     1      44.869 -20.836   4.495  1.00  0.00     0.039 C 
HETATM   28  C   UNL     1      43.564 -20.791   1.813  1.00  0.00     0.039 C 
HETATM   29  C   UNL     1      42.632 -18.540   2.419  1.00  0.00     0.010 A 
HETATM   30  C   UNL     1      44.724 -21.722   2.156  1.00  0.00     0.005 C 
HETATM   31  C   UNL     1      44.696 -22.086   3.635  1.00  0.00     0.005 C 
HETATM   32  C   UNL     1      42.440 -17.481   3.307  1.00  0.00     0.037 A 
ENDBRANCH  22  23
ENDBRANCH  21  22
ENDBRANCH   4  21
TORSDOF 8
ENDMDL
MODEL 7
REMARK VINA RESULT:      -7.8      2.144      4.666
REMARK  8 active torsions:
REMARK  status: ('A' for Active; 'I' for Inactive)
REMARK    1  A    between atoms: C_2  and  N_3 
REMARK    2  A    between atoms: C_2  and  C_26 
REMARK       I    between atoms: N_3  and  C_4 
REMARK    3  A    between atoms: C_4  and  C_5 
REMARK    4  A    between atoms: C_5  and  S_6 
REMARK    5  A    between atoms: S_6  and  C_7 
REMARK    6  A    between atoms: C_10  and  C_11 
REMARK    7  A    between atoms: C_11  and  O_12 
REMARK    8  A    between atoms: O_12  and  C_13 
ROOT
HETATM    1  C   UNL     1      41.368 -11.830   1.147  1.00  0.00     0.191 A 
HETATM    2  N   UNL     1      40.865 -11.630   2.402  1.00  0.00    -0.314 N 
HETATM    3  C   UNL     1      39.687 -10.888   2.767  1.00  0.00     0.160 C 
HETATM    4  C   UNL     1      41.707 -12.318   3.247  1.00  0.00     0.154 A 
HETATM    5  N   UNL     1      42.695 -12.829   2.537  1.00  0.00    -0.132 NA
HETATM    6  N   UNL     1      42.488 -12.508   1.223  1.00  0.00    -0.123 NA
ENDROOT
BRANCH   1   7
HETATM    7  S   UNL     1      40.586 -11.336  -0.311  1.00  0.00    -0.081 SA
BRANCH   7   8
HETATM    8  C   UNL     1      40.665 -12.865  -1.294  1.00  0.00     0.185 C 
BRANCH   8   9
HETATM    9  C   UNL     1      40.012 -14.035  -0.573  1.00  0.00     0.227 C 
HETATM   10  N   UNL     1      40.849 -14.749   0.248  1.00  0.00    -0.352 N 
HETATM   11  H   UNL     1      41.804 -14.413   0.381  1.00  0.00     0.163 HD
HETATM   12  O   UNL     1      38.831 -14.326  -0.746  1.00  0.00    -0.273 OA
BRANCH  10  13
HETATM   13  C   UNL     1      40.445 -15.928   0.995  1.00  0.00     0.113 C 
HETATM   14  C   UNL     1      39.611 -15.575   2.232  1.00  0.00     0.037 C 
BRANCH  13  15
HETATM   15  C   UNL     1      41.679 -16.734   1.362  1.00  0.00    -0.036 A 
HETATM   16  C   UNL     1      41.596 -18.128   1.504  1.00  0.00     0.009 A 
HETATM   17  C   UNL     1      42.733 -18.882   1.802  1.00  0.00     0.001 A 
HETATM   18  C   UNL     1      43.968 -18.256   1.958  1.00  0.00     0.000 A 
HETATM   19  C   UNL     1      44.069 -16.876   1.811  1.00  0.00     0.001 A 
HETATM   20  C   UNL     1      42.935 -16.120   1.513  1.00  0.00     0.009 A 
ENDBRANCH  13  15
ENDBRANCH  10  13
ENDBRANCH   8   9
ENDBRANCH   7   8
ENDBRANCH   1   7
BRANCH   4  21
HETATM   21  C   UNL     1      41.500 -12.504   4.708  1.00  0.00     0.256 C 
BRANCH  21  22
HETATM   22  O   UNL     1      40.957 -13.810   4.893  1.00  0.00    -0.344 OA
BRANCH  22  23
HETATM   23  C   UNL     1      41.860 -14.767   5.272  1.00  0.00     0.069 A 
HETATM   24  C   UNL     1      41.702 -16.141   5.089  1.00  0.00     0.044 A 
HETATM   25  C   UNL     1      42.696 -17.041   5.511  1.00  0.00    -0.049 A 
HETATM   26  C   UNL     1      43.846 -16.553   6.156  1.00  0.00    -0.052 A 
HETATM   27  C   UNL     1      42.470 -18.522   5.319  1.00  0.00     0.039 C 
HETATM   28  C   UNL     1      44.956 -17.477   6.596  1.00  0.00     0.039 C 
HETATM   29  C   UNL     1      43.993 -15.172   6.343  1.00  0.00     0.010 A 
HETATM   30  C   UNL     1      44.519 -18.936   6.699  1.00  0.00     0.005 C 
HETATM   31  C   UNL     1      43.746 -19.351   5.455  1.00  0.00     0.005 C 
HETATM   32  C   UNL     1      43.002 -14.288   5.913  1.00  0.00     0.037 A 
ENDBRANCH  22  23
ENDBRANCH  21  22
ENDBRANCH   4  21
TORSDOF 8
ENDMDL
MODEL 8
REMARK VINA RESULT:      -7.7      2.296      5.445
REMARK  8 active torsions:
REMARK  status: ('A' for Active; 'I' for Inactive)
REMARK    1  A    between atoms: C_2  and  N_3 
REMARK    2  A    between atoms: C_2  and  C_26 
REMARK       I    between atoms: N_3  and  C_4 
REMARK    3  A    between atoms: C_4  and  C_5 
REMARK    4  A    between atoms: C_5  and  S_6 
REMARK    5  A    between atoms: S_6  and  C_7 
REMARK    6  A    between atoms: C_10  and  C_11 
REMARK    7  A    between atoms: C_11  and  O_12 
REMARK    8  A    between atoms: O_12  and  C_13 
ROOT
HETATM    1  C   UNL     1      40.694 -13.079   2.463  1.00  0.00     0.191 A 
HETATM    2  N   UNL     1      41.077 -14.151   3.220  1.00  0.00    -0.314 N 
HETATM    3  C   UNL     1      40.235 -15.015   4.005  1.00  0.00     0.160 C 
HETATM    4  C   UNL     1      42.439 -14.253   3.048  1.00  0.00     0.154 A 
HETATM    5  N   UNL     1      42.846 -13.249   2.294  1.00  0.00    -0.132 NA
HETATM    6  N   UNL     1      41.753 -12.507   1.942  1.00  0.00    -0.123 NA
ENDROOT
BRANCH   1   7
HETATM    7  S   UNL     1      39.055 -12.619   2.174  1.00  0.00    -0.081 SA
BRANCH   7   8
HETATM    8  C   UNL     1      38.454 -14.032   1.199  1.00  0.00     0.185 C 
BRANCH   8   9
HETATM    9  C   UNL     1      38.641 -13.808  -0.295  1.00  0.00     0.227 C 
HETATM   10  N   UNL     1      39.655 -14.535  -0.867  1.00  0.00    -0.352 N 
HETATM   11  H   UNL     1      40.151 -15.217  -0.291  1.00  0.00     0.163 HD
HETATM   12  O   UNL     1      37.948 -13.010  -0.923  1.00  0.00    -0.273 OA
BRANCH  10  13
HETATM   13  C   UNL     1      40.033 -14.441  -2.267  1.00  0.00     0.113 C 
HETATM   14  C   UNL     1      40.604 -15.757  -2.805  1.00  0.00     0.037 C 
BRANCH  13  15
HETATM   15  C   UNL     1      41.012 -13.292  -2.444  1.00  0.00    -0.036 A 
HETATM   16  C   UNL     1      40.975 -12.505  -3.604  1.00  0.00     0.009 A 
HETATM   17  C   UNL     1      41.844 -11.422  -3.759  1.00  0.00     0.001 A 
HETATM   18  C   UNL     1      42.758 -11.108  -2.754  1.00  0.00     0.000 A 
HETATM   19  C   UNL     1      42.800 -11.873  -1.592  1.00  0.00     0.001 A 
HETATM   20  C   UNL     1      41.933 -12.955  -1.436  1.00  0.00     0.009 A 
ENDBRANCH  13  15
ENDBRANCH  10  13
ENDBRANCH   8   9
ENDBRANCH   7   8
ENDBRANCH   1   7
BRANCH   4  21
HETATM   21  C   UNL     1      43.295 -15.349   3.574  1.00  0.00     0.256 C 
BRANCH  21  22
HETATM   22  O   UNL     1      43.352 -16.359   2.568  1.00  0.00    -0.344 OA
BRANCH  22  23
HETATM   23  C   UNL     1      43.702 -17.605   3.016  1.00  0.00     0.069 A 
HETATM   24  C   UNL     1      43.707 -18.766   2.242  1.00  0.00     0.044 A 
HETATM   25  C   UNL     1      44.090 -19.999   2.799  1.00  0.00    -0.049 A 
HETATM   26  C   UNL     1      44.438 -20.068   4.159  1.00  0.00    -0.052 A 
HETATM   27  C   UNL     1      44.054 -21.236   1.932  1.00  0.00     0.039 C 
HETATM   28  C   UNL     1      44.889 -21.361   4.794  1.00  0.00     0.039 C 
HETATM   29  C   UNL     1      44.421 -18.899   4.931  1.00  0.00     0.010 A 
HETATM   30  C   UNL     1      44.493 -22.597   3.989  1.00  0.00     0.005 C 
HETATM   31  C   UNL     1      44.839 -22.407   2.518  1.00  0.00     0.005 C 
HETATM   32  C   UNL     1      44.046 -17.679   4.365  1.00  0.00     0.037 A 
ENDBRANCH  22  23
ENDBRANCH  21  22
ENDBRANCH   4  21
TORSDOF 8
ENDMDL
MODEL 9
REMARK VINA RESULT:      -7.7      4.183      4.846
REMARK  8 active torsions:
REMARK  status: ('A' for Active; 'I' for Inactive)
REMARK    1  A    between atoms: C_2  and  N_3 
REMARK    2  A    between atoms: C_2  and  C_26 
REMARK       I    between atoms: N_3  and  C_4 
REMARK    3  A    between atoms: C_4  and  C_5 
REMARK    4  A    between atoms: C_5  and  S_6 
REMARK    5  A    between atoms: S_6  and  C_7 
REMARK    6  A    between atoms: C_10  and  C_11 
REMARK    7  A    between atoms: C_11  and  O_12 
REMARK    8  A    between atoms: O_12  and  C_13 
ROOT
HETATM    1  C   UNL     1      40.672 -12.617   4.077  1.00  0.00     0.191 A 
HETATM    2  N   UNL     1      40.828 -13.940   4.381  1.00  0.00    -0.314 N 
HETATM    3  C   UNL     1      40.270 -14.655   5.499  1.00  0.00     0.160 C 
HETATM    4  C   UNL     1      41.608 -14.458   3.371  1.00  0.00     0.154 A 
HETATM    5  N   UNL     1      41.956 -13.477   2.560  1.00  0.00    -0.132 NA
HETATM    6  N   UNL     1      41.381 -12.322   3.014  1.00  0.00    -0.123 NA
ENDROOT
BRANCH   1   7
HETATM    7  S   UNL     1      39.624 -11.535   4.922  1.00  0.00    -0.081 SA
BRANCH   7   8
HETATM    8  C   UNL     1      40.698 -10.992   6.286  1.00  0.00     0.185 C 
BRANCH   8   9
HETATM    9  C   UNL     1      40.057 -11.242   7.643  1.00  0.00     0.227 C 
HETATM   10  N   UNL     1      40.649 -10.585   8.694  1.00  0.00    -0.352 N 
HETATM   11  H   UNL     1      41.405  -9.929   8.493  1.00  0.00     0.163 HD
HETATM   12  O   UNL     1      39.101 -12.003   7.779  1.00  0.00    -0.273 OA
BRANCH  10  13
HETATM   13  C   UNL     1      40.227 -10.717  10.077  1.00  0.00     0.113 C 
HETATM   14  C   UNL     1      39.085  -9.759  10.430  1.00  0.00     0.037 C 
BRANCH  13  15
HETATM   15  C   UNL     1      41.428 -10.517  10.987  1.00  0.00    -0.036 A 
HETATM   16  C   UNL     1      42.704 -10.324  10.439  1.00  0.00     0.009 A 
HETATM   17  C   UNL     1      43.808 -10.099  11.266  1.00  0.00     0.001 A 
HETATM   18  C   UNL     1      43.649 -10.060  12.650  1.00  0.00     0.000 A 
HETATM   19  C   UNL     1      42.387 -10.239  13.209  1.00  0.00     0.001 A 
HETATM   20  C   UNL     1      41.284 -10.463  12.385  1.00  0.00     0.009 A 
ENDBRANCH  13  15
ENDBRANCH  10  13
ENDBRANCH   8   9
ENDBRANCH   7   8
ENDBRANCH   1   7
BRANCH   4  21
HETATM   21  C   UNL     1      41.946 -15.895   3.193  1.00  0.00     0.256 C 
BRANCH  21  22
HETATM   22  O   UNL     1      43.157 -16.134   3.909  1.00  0.00    -0.344 OA
BRANCH  22  23
HETATM   23  C   UNL     1      43.563 -17.442   3.942  1.00  0.00     0.069 A 
HETATM   24  C   UNL     1      43.415 -18.358   2.899  1.00  0.00     0.044 A 
HETATM   25  C   UNL     1      43.873 -19.680   3.035  1.00  0.00    -0.049 A 
HETATM   26  C   UNL     1      44.455 -20.092   4.246  1.00  0.00    -0.052 A 
HETATM   27  C   UNL     1      43.666 -20.645   1.891  1.00  0.00     0.039 C 
HETATM   28  C   UNL     1      44.993 -21.491   4.426  1.00  0.00     0.039 C 
HETATM   29  C   UNL     1      44.592 -19.169   5.290  1.00  0.00     0.010 A 
HETATM   30  C   UNL     1      44.443 -22.484   3.404  1.00  0.00     0.005 C 
HETATM   31  C   UNL     1      44.526 -21.903   1.999  1.00  0.00     0.005 C 
HETATM   32  C   UNL     1      44.140 -17.856   5.142  1.00  0.00     0.037 A 
ENDBRANCH  22  23
ENDBRANCH  21  22
ENDBRANCH   4  21
TORSDOF 8
ENDMDL
MODEL 10
REMARK VINA RESULT:      -7.5      5.388      9.606
REMARK  8 active torsions:
REMARK  status: ('A' for Active; 'I' for Inactive)
REMARK    1  A    between atoms: C_2  and  N_3 
REMARK    2  A    between atoms: C_2  and  C_26 
REMARK       I    between atoms: N_3  and  C_4 
REMARK    3  A    between atoms: C_4  and  C_5 
REMARK    4  A    between atoms: C_5  and  S_6 
REMARK    5  A    between atoms: S_6  and  C_7 
REMARK    6  A    between atoms: C_10  and  C_11 
REMARK    7  A    between atoms: C_11  and  O_12 
REMARK    8  A    between atoms: O_12  and  C_13 
ROOT
HETATM    1  C   UNL     1      41.026 -12.563   6.038  1.00  0.00     0.191 A 
HETATM    2  N   UNL     1      41.029 -11.518   6.918  1.00  0.00    -0.314 N 
HETATM    3  C   UNL     1      42.168 -10.924   7.570  1.00  0.00     0.160 C 
HETATM    4  C   UNL     1      39.714 -11.128   7.029  1.00  0.00     0.154 A 
HETATM    5  N   UNL     1      38.968 -11.948   6.313  1.00  0.00    -0.132 NA
HETATM    6  N   UNL     1      39.791 -12.856   5.706  1.00  0.00    -0.123 NA
ENDROOT
BRANCH   1   7
HETATM    7  S   UNL     1      42.445 -13.312   5.400  1.00  0.00    -0.081 SA
BRANCH   7   8
HETATM    8  C   UNL     1      41.737 -14.762   4.561  1.00  0.00     0.185 C 
BRANCH   8   9
HETATM    9  C   UNL     1      42.048 -16.053   5.303  1.00  0.00     0.227 C 
HETATM   10  N   UNL     1      43.151 -16.732   4.847  1.00  0.00    -0.352 N 
HETATM   11  H   UNL     1      43.720 -16.302   4.117  1.00  0.00     0.163 HD
HETATM   12  O   UNL     1      41.339 -16.461   6.221  1.00  0.00    -0.273 OA
BRANCH  10  13
HETATM   13  C   UNL     1      43.600 -18.005   5.382  1.00  0.00     0.113 C 
HETATM   14  C   UNL     1      44.889 -17.871   6.200  1.00  0.00     0.037 C 
BRANCH  13  15
HETATM   15  C   UNL     1      43.762 -18.997   4.242  1.00  0.00    -0.036 A 
HETATM   16  C   UNL     1      44.562 -20.138   4.407  1.00  0.00     0.009 A 
HETATM   17  C   UNL     1      44.684 -21.076   3.379  1.00  0.00     0.001 A 
HETATM   18  C   UNL     1      44.006 -20.890   2.176  1.00  0.00     0.000 A 
HETATM   19  C   UNL     1      43.200 -19.768   2.001  1.00  0.00     0.001 A 
HETATM   20  C   UNL     1      43.076 -18.831   3.026  1.00  0.00     0.009 A 
ENDBRANCH  13  15
ENDBRANCH  10  13
ENDBRANCH   8   9
ENDBRANCH   7   8
ENDBRANCH   1   7
BRANCH   4  21
HETATM   21  C   UNL     1      39.226  -9.941   7.780  1.00  0.00     0.256 C 
BRANCH  21  22
HETATM   22  O   UNL     1      38.538 -10.425   8.932  1.00  0.00    -0.344 OA
BRANCH  22  23
HETATM   23  C   UNL     1      39.148 -10.156  10.128  1.00  0.00     0.069 A 
HETATM   24  C   UNL     1      40.254 -10.837  10.639  1.00  0.00     0.044 A 
HETATM   25  C   UNL     1      40.809 -10.478  11.880  1.00  0.00    -0.049 A 
HETATM   26  C   UNL     1      40.222  -9.444  12.629  1.00  0.00    -0.052 A 
HETATM   27  C   UNL     1      41.989 -11.260  12.406  1.00  0.00     0.039 C 
HETATM   28  C   UNL     1      40.802  -8.999  13.950  1.00  0.00     0.039 C 
HETATM   29  C   UNL     1      39.106  -8.772  12.113  1.00  0.00     0.010 A 
HETATM   30  C   UNL     1      41.737 -10.033  14.575  1.00  0.00     0.005 C 
HETATM   31  C   UNL     1      42.726 -10.552  13.541  1.00  0.00     0.005 C 
HETATM   32  C   UNL     1      38.568  -9.133  10.877  1.00  0.00     0.037 A 
ENDBRANCH  22  23
ENDBRANCH  21  22
ENDBRANCH   4  21
TORSDOF 8
ENDMDL
