MODEL 1
REMARK VINA RESULT:      -8.6      0.000      0.000
REMARK  5 active torsions:
REMARK  status: ('A' for Active; 'I' for Inactive)
REMARK    1  A    between atoms: C_2  and  O_3 
REMARK    2  A    between atoms: C_2  and  C_4 
REMARK    3  A    between atoms: C_7  and  N_8 
REMARK    4  A    between atoms: N_12  and  C_13 
REMARK    5  A    between atoms: C_13  and  C_14 
ROOT
HETATM    1  N   UNL     1      42.622 -18.285   2.831  1.00  0.00    -0.367 N 
HETATM    2  C   UNL     1      43.528 -17.182   3.230  1.00  0.00     0.127 C 
HETATM    3  C   UNL     1      43.045 -15.820   2.720  1.00  0.00     0.068 C 
HETATM    4  C   UNL     1      41.509 -15.627   2.795  1.00  0.00     0.206 C 
HETATM    5  N   UNL     1      41.046 -14.303   2.193  1.00  0.00     0.105 N 
HETATM    6  C   UNL     1      41.198 -13.133   3.128  1.00  0.00     0.280 C 
HETATM    7  C   UNL     1      40.376 -13.245   4.426  1.00  0.00     0.089 C 
HETATM    8  C   UNL     1      40.581 -14.587   4.971  1.00  0.00     0.037 A 
HETATM    9  C   UNL     1      41.084 -15.654   4.264  1.00  0.00     0.072 A 
HETATM   10  N   UNL     1      41.049 -16.730   5.141  1.00  0.00    -0.352 N 
HETATM   11  H   UNL     1      41.305 -17.686   4.900  1.00  0.00     0.166 HD
HETATM   12  C   UNL     1      40.551 -16.356   6.326  1.00  0.00     0.181 A 
HETATM   13  N   UNL     1      40.287 -15.050   6.236  1.00  0.00    -0.354 N 
HETATM   14  H   UNL     1      39.882 -14.491   6.986  1.00  0.00     0.166 HD
HETATM   15  C   UNL     1      40.773 -16.824   2.119  1.00  0.00     0.068 C 
HETATM   16  C   UNL     1      41.704 -17.974   1.727  1.00  0.00     0.127 C 
ENDROOT
BRANCH   5  17
HETATM   17  C   UNL     1      41.674 -13.890   0.904  1.00  0.00     0.277 C 
BRANCH  17  18
HETATM   18  C   UNL     1      40.815 -13.969  -0.374  1.00  0.00     0.006 C 
HETATM   19  C   UNL     1      41.126 -15.229  -1.187  1.00  0.00     0.011 C 
HETATM   20  C   UNL     1      39.328 -13.962  -0.001  1.00  0.00     0.011 C 
ENDBRANCH  17  18
ENDBRANCH   5  17
BRANCH   1  21
HETATM   21  C   UNL     1      43.282 -19.530   2.794  1.00  0.00     0.103 A 
HETATM   22  N   UNL     1      43.905 -20.043   3.865  1.00  0.00    -0.344 N 
HETATM   23  C   UNL     1      44.544 -21.230   3.890  1.00  0.00     0.039 A 
HETATM   24  H   UNL     1      43.901 -19.570   4.772  1.00  0.00     0.167 HD
HETATM   25  C   UNL     1      44.595 -22.004   2.737  1.00  0.00     0.028 A 
HETATM   26  C   UNL     1      43.985 -21.526   1.586  1.00  0.00     0.006 A 
HETATM   27  C   UNL     1      43.330 -20.294   1.612  1.00  0.00     0.048 A 
BRANCH  23  28
HETATM   28  C   UNL     1      45.128 -21.615   5.218  1.00  0.00     0.163 C 
HETATM   29  C   UNL     1      44.144 -21.464   6.367  1.00  0.00     0.046 C 
BRANCH  28  30
HETATM   30  O   UNL     1      45.477 -23.007   5.078  1.00  0.00    -0.390 OA
HETATM   31  H   UNL     1      45.384 -23.219   4.124  1.00  0.00     0.210 HD
ENDBRANCH  28  30
ENDBRANCH  23  28
ENDBRANCH   1  21
TORSDOF 5
ENDMDL
MODEL 2
REMARK VINA RESULT:      -8.4      3.064      6.853
REMARK  5 active torsions:
REMARK  status: ('A' for Active; 'I' for Inactive)
REMARK    1  A    between atoms: C_2  and  O_3 
REMARK    2  A    between atoms: C_2  and  C_4 
REMARK    3  A    between atoms: C_7  and  N_8 
REMARK    4  A    between atoms: N_12  and  C_13 
REMARK    5  A    between atoms: C_13  and  C_14 
ROOT
HETATM    1  N   UNL     1      41.545 -15.453   1.723  1.00  0.00    -0.367 N 
HETATM    2  C   UNL     1      40.642 -15.978   2.774  1.00  0.00     0.127 C 
HETATM    3  C   UNL     1      41.338 -16.998   3.682  1.00  0.00     0.068 C 
HETATM    4  C   UNL     1      42.803 -16.635   4.030  1.00  0.00     0.206 C 
HETATM    5  N   UNL     1      43.502 -17.711   4.856  1.00  0.00     0.105 N 
HETATM    6  C   UNL     1      43.180 -17.647   6.324  1.00  0.00     0.280 C 
HETATM    7  C   UNL     1      43.603 -16.335   7.012  1.00  0.00     0.089 C 
HETATM    8  C   UNL     1      43.166 -15.225   6.166  1.00  0.00     0.037 A 
HETATM    9  C   UNL     1      42.805 -15.339   4.844  1.00  0.00     0.072 A 
HETATM   10  N   UNL     1      42.525 -14.046   4.422  1.00  0.00    -0.352 N 
HETATM   11  H   UNL     1      42.281 -13.784   3.469  1.00  0.00     0.166 HD
HETATM   12  C   UNL     1      42.702 -13.175   5.424  1.00  0.00     0.181 A 
HETATM   13  N   UNL     1      43.069 -13.889   6.492  1.00  0.00    -0.354 N 
HETATM   14  H   UNL     1      43.289 -13.489   7.403  1.00  0.00     0.166 HD
HETATM   15  C   UNL     1      43.614 -16.323   2.735  1.00  0.00     0.068 C 
HETATM   16  C   UNL     1      42.750 -16.256   1.474  1.00  0.00     0.127 C 
ENDROOT
BRANCH   5  17
HETATM   17  C   UNL     1      43.282 -19.128   4.443  1.00  0.00     0.277 C 
BRANCH  17  18
HETATM   18  C   UNL     1      44.324 -19.777   3.510  1.00  0.00     0.006 C 
HETATM   19  C   UNL     1      44.862 -21.088   4.090  1.00  0.00     0.011 C 
HETATM   20  C   UNL     1      43.693 -20.052   2.140  1.00  0.00     0.011 C 
ENDBRANCH  17  18
ENDBRANCH   5  17
BRANCH   1  21
HETATM   21  C   UNL     1      40.838 -14.979   0.599  1.00  0.00     0.103 A 
HETATM   22  N   UNL     1      41.022 -15.486  -0.629  1.00  0.00    -0.344 N 
HETATM   23  C   UNL     1      40.369 -15.078  -1.736  1.00  0.00     0.039 A 
HETATM   24  H   UNL     1      41.660 -16.266  -0.803  1.00  0.00     0.167 HD
HETATM   25  C   UNL     1      39.438 -14.050  -1.643  1.00  0.00     0.028 A 
HETATM   26  C   UNL     1      39.211 -13.468  -0.403  1.00  0.00     0.006 A 
HETATM   27  C   UNL     1      39.906 -13.930   0.715  1.00  0.00     0.048 A 
BRANCH  23  28
HETATM   28  C   UNL     1      40.709 -15.826  -2.992  1.00  0.00     0.163 C 
HETATM   29  C   UNL     1      39.559 -15.871  -3.987  1.00  0.00     0.046 C 
BRANCH  28  30
HETATM   30  O   UNL     1      41.805 -15.093  -3.573  1.00  0.00    -0.390 OA
HETATM   31  H   UNL     1      42.332 -14.744  -2.822  1.00  0.00     0.210 HD
ENDBRANCH  28  30
ENDBRANCH  23  28
ENDBRANCH   1  21
TORSDOF 5
ENDMDL
MODEL 3
REMARK VINA RESULT:      -8.3      3.204      7.255
REMARK  5 active torsions:
REMARK  status: ('A' for Active; 'I' for Inactive)
REMARK    1  A    between atoms: C_2  and  O_3 
REMARK    2  A    between atoms: C_2  and  C_4 
REMARK    3  A    between atoms: C_7  and  N_8 
REMARK    4  A    between atoms: N_12  and  C_13 
REMARK    5  A    between atoms: C_13  and  C_14 
ROOT
HETATM    1  N   UNL     1      40.053 -14.431   1.202  1.00  0.00    -0.367 N 
HETATM    2  C   UNL     1      39.220 -15.523   1.760  1.00  0.00     0.127 C 
HETATM    3  C   UNL     1      40.057 -16.571   2.503  1.00  0.00     0.068 C 
HETATM    4  C   UNL     1      41.215 -15.973   3.341  1.00  0.00     0.206 C 
HETATM    5  N   UNL     1      42.090 -17.041   3.992  1.00  0.00     0.105 N 
HETATM    6  C   UNL     1      41.511 -17.598   5.265  1.00  0.00     0.280 C 
HETATM    7  C   UNL     1      41.318 -16.559   6.385  1.00  0.00     0.089 C 
HETATM    8  C   UNL     1      40.675 -15.383   5.798  1.00  0.00     0.037 A 
HETATM    9  C   UNL     1      40.618 -15.108   4.453  1.00  0.00     0.072 A 
HETATM   10  N   UNL     1      39.981 -13.878   4.351  1.00  0.00    -0.352 N 
HETATM   11  H   UNL     1      39.833 -13.369   3.482  1.00  0.00     0.166 HD
HETATM   12  C   UNL     1      39.660 -13.412   5.565  1.00  0.00     0.181 A 
HETATM   13  N   UNL     1      40.059 -14.333   6.447  1.00  0.00    -0.354 N 
HETATM   14  H   UNL     1      39.960 -14.244   7.457  1.00  0.00     0.166 HD
HETATM   15  C   UNL     1      42.080 -15.009   2.473  1.00  0.00     0.068 C 
HETATM   16  C   UNL     1      41.486 -14.731   1.090  1.00  0.00     0.127 C 
ENDROOT
BRANCH   5  17
HETATM   17  C   UNL     1      42.458 -18.217   3.152  1.00  0.00     0.277 C 
BRANCH  17  18
HETATM   18  C   UNL     1      43.916 -18.325   2.662  1.00  0.00     0.006 C 
HETATM   19  C   UNL     1      44.388 -19.781   2.609  1.00  0.00     0.011 C 
HETATM   20  C   UNL     1      44.042 -17.701   1.267  1.00  0.00     0.011 C 
ENDBRANCH  17  18
ENDBRANCH   5  17
BRANCH   1  21
HETATM   21  C   UNL     1      39.435 -13.797   0.105  1.00  0.00     0.103 A 
HETATM   22  N   UNL     1      39.241 -14.420  -1.066  1.00  0.00    -0.344 N 
HETATM   23  C   UNL     1      38.650 -13.866  -2.145  1.00  0.00     0.039 A 
HETATM   24  H   UNL     1      39.501 -15.398  -1.209  1.00  0.00     0.167 HD
HETATM   25  C   UNL     1      38.206 -12.551  -2.083  1.00  0.00     0.028 A 
HETATM   26  C   UNL     1      38.391 -11.840  -0.905  1.00  0.00     0.006 A 
HETATM   27  C   UNL     1      39.002 -12.459   0.187  1.00  0.00     0.048 A 
BRANCH  23  28
HETATM   28  C   UNL     1      38.503 -14.774  -3.330  1.00  0.00     0.163 C 
HETATM   29  C   UNL     1      39.693 -15.701  -3.522  1.00  0.00     0.046 C 
BRANCH  28  30
HETATM   30  O   UNL     1      37.331 -15.565  -3.048  1.00  0.00    -0.390 OA
HETATM   31  H   UNL     1      37.657 -16.452  -2.783  1.00  0.00     0.210 HD
ENDBRANCH  28  30
ENDBRANCH  23  28
ENDBRANCH   1  21
TORSDOF 5
ENDMDL
MODEL 4
REMARK VINA RESULT:      -8.1      1.799      2.101
REMARK  5 active torsions:
REMARK  status: ('A' for Active; 'I' for Inactive)
REMARK    1  A    between atoms: C_2  and  O_3 
REMARK    2  A    between atoms: C_2  and  C_4 
REMARK    3  A    between atoms: C_7  and  N_8 
REMARK    4  A    between atoms: N_12  and  C_13 
REMARK    5  A    between atoms: C_13  and  C_14 
ROOT
HETATM    1  N   UNL     1      42.949 -17.680   3.611  1.00  0.00    -0.367 N 
HETATM    2  C   UNL     1      43.772 -16.593   3.028  1.00  0.00     0.127 C 
HETATM    3  C   UNL     1      42.988 -15.284   2.882  1.00  0.00     0.068 C 
HETATM    4  C   UNL     1      42.034 -14.985   4.067  1.00  0.00     0.206 C 
HETATM    5  N   UNL     1      41.196 -13.728   3.852  1.00  0.00     0.105 N 
HETATM    6  C   UNL     1      41.930 -12.454   4.174  1.00  0.00     0.280 C 
HETATM    7  C   UNL     1      42.387 -12.336   5.640  1.00  0.00     0.089 C 
HETATM    8  C   UNL     1      43.016 -13.602   6.016  1.00  0.00     0.037 A 
HETATM    9  C   UNL     1      42.873 -14.785   5.330  1.00  0.00     0.072 A 
HETATM   10  N   UNL     1      43.581 -15.728   6.064  1.00  0.00    -0.352 N 
HETATM   11  H   UNL     1      43.624 -16.722   5.847  1.00  0.00     0.166 HD
HETATM   12  C   UNL     1      44.133 -15.165   7.147  1.00  0.00     0.181 A 
HETATM   13  N   UNL     1      43.811 -13.869   7.110  1.00  0.00    -0.354 N 
HETATM   14  H   UNL     1      44.082 -13.189   7.820  1.00  0.00     0.166 HD
HETATM   15  C   UNL     1      41.118 -16.213   4.357  1.00  0.00     0.068 C 
HETATM   16  C   UNL     1      41.497 -17.463   3.559  1.00  0.00     0.127 C 
ENDROOT
BRANCH   5  17
HETATM   17  C   UNL     1      40.602 -13.535   2.497  1.00  0.00     0.277 C 
BRANCH  17  18
HETATM   18  C   UNL     1      39.074 -13.680   2.353  1.00  0.00     0.006 C 
HETATM   19  C   UNL     1      38.473 -12.534   1.534  1.00  0.00     0.011 C 
HETATM   20  C   UNL     1      38.741 -15.014   1.674  1.00  0.00     0.011 C 
ENDBRANCH  17  18
ENDBRANCH   5  17
BRANCH   1  21
HETATM   21  C   UNL     1      43.427 -18.958   3.257  1.00  0.00     0.103 A 
HETATM   22  N   UNL     1      44.019 -19.771   4.144  1.00  0.00    -0.344 N 
HETATM   23  C   UNL     1      44.487 -21.005   3.865  1.00  0.00     0.039 A 
HETATM   24  H   UNL     1      44.120 -19.517   5.129  1.00  0.00     0.167 HD
HETATM   25  C   UNL     1      44.379 -21.502   2.572  1.00  0.00     0.028 A 
HETATM   26  C   UNL     1      43.792 -20.705   1.599  1.00  0.00     0.006 A 
HETATM   27  C   UNL     1      43.316 -19.438   1.938  1.00  0.00     0.048 A 
BRANCH  23  28
HETATM   28  C   UNL     1      45.069 -21.748   5.031  1.00  0.00     0.163 C 
HETATM   29  C   UNL     1      44.278 -21.553   6.316  1.00  0.00     0.046 C 
BRANCH  28  30
HETATM   30  O   UNL     1      45.012 -23.137   4.651  1.00  0.00    -0.390 OA
HETATM   31  H   UNL     1      45.531 -23.216   3.821  1.00  0.00     0.210 HD
ENDBRANCH  28  30
ENDBRANCH  23  28
ENDBRANCH   1  21
TORSDOF 5
ENDMDL
MODEL 5
REMARK VINA RESULT:      -7.8      1.558      1.707
REMARK  5 active torsions:
REMARK  status: ('A' for Active; 'I' for Inactive)
REMARK    1  A    between atoms: C_2  and  O_3 
REMARK    2  A    between atoms: C_2  and  C_4 
REMARK    3  A    between atoms: C_7  and  N_8 
REMARK    4  A    between atoms: N_12  and  C_13 
REMARK    5  A    between atoms: C_13  and  C_14 
ROOT
HETATM    1  N   UNL     1      42.080 -17.151   2.621  1.00  0.00    -0.367 N 
HETATM    2  C   UNL     1      42.898 -15.921   2.740  1.00  0.00     0.127 C 
HETATM    3  C   UNL     1      42.279 -14.737   1.989  1.00  0.00     0.068 C 
HETATM    4  C   UNL     1      40.736 -14.656   2.102  1.00  0.00     0.206 C 
HETATM    5  N   UNL     1      40.137 -13.527   1.267  1.00  0.00     0.105 N 
HETATM    6  C   UNL     1      40.216 -12.180   1.935  1.00  0.00     0.280 C 
HETATM    7  C   UNL     1      39.451 -12.086   3.269  1.00  0.00     0.089 C 
HETATM    8  C   UNL     1      39.793 -13.266   4.065  1.00  0.00     0.037 A 
HETATM    9  C   UNL     1      40.365 -14.412   3.566  1.00  0.00     0.072 A 
HETATM   10  N   UNL     1      40.454 -15.283   4.644  1.00  0.00    -0.352 N 
HETATM   11  H   UNL     1      40.786 -16.243   4.590  1.00  0.00     0.166 HD
HETATM   12  C   UNL     1      39.966 -14.712   5.752  1.00  0.00     0.181 A 
HETATM   13  N   UNL     1      39.584 -13.478   5.411  1.00  0.00    -0.354 N 
HETATM   14  H   UNL     1      39.156 -12.810   6.051  1.00  0.00     0.166 HD
HETATM   15  C   UNL     1      40.086 -16.022   1.722  1.00  0.00     0.068 C 
HETATM   16  C   UNL     1      41.101 -17.150   1.526  1.00  0.00     0.127 C 
ENDROOT
BRANCH   5  17
HETATM   17  C   UNL     1      40.682 -13.341  -0.109  1.00  0.00     0.277 C 
BRANCH  17  18
HETATM   18  C   UNL     1      39.742 -13.618  -1.299  1.00  0.00     0.006 C 
HETATM   19  C   UNL     1      40.196 -14.839  -2.105  1.00  0.00     0.011 C 
HETATM   20  C   UNL     1      38.315 -13.850  -0.791  1.00  0.00     0.011 C 
ENDBRANCH  17  18
ENDBRANCH   5  17
BRANCH   1  21
HETATM   21  C   UNL     1      42.847 -18.321   2.804  1.00  0.00     0.103 A 
HETATM   22  N   UNL     1      43.530 -18.559   3.933  1.00  0.00    -0.344 N 
HETATM   23  C   UNL     1      44.271 -19.661   4.166  1.00  0.00     0.039 A 
HETATM   24  H   UNL     1      43.499 -17.920   4.730  1.00  0.00     0.167 HD
HETATM   25  C   UNL     1      44.371 -20.640   3.185  1.00  0.00     0.028 A 
HETATM   26  C   UNL     1      43.702 -20.449   1.983  1.00  0.00     0.006 A 
HETATM   27  C   UNL     1      42.942 -19.295   1.792  1.00  0.00     0.048 A 
BRANCH  23  28
HETATM   28  C   UNL     1      44.908 -19.729   5.523  1.00  0.00     0.163 C 
HETATM   29  C   UNL     1      45.099 -18.361   6.160  1.00  0.00     0.046 C 
BRANCH  28  30
HETATM   30  O   UNL     1      43.990 -20.497   6.326  1.00  0.00    -0.390 OA
HETATM   31  H   UNL     1      43.608 -21.178   5.730  1.00  0.00     0.210 HD
ENDBRANCH  28  30
ENDBRANCH  23  28
ENDBRANCH   1  21
TORSDOF 5
ENDMDL
MODEL 6
REMARK VINA RESULT:      -7.8      3.289      6.979
REMARK  5 active torsions:
REMARK  status: ('A' for Active; 'I' for Inactive)
REMARK    1  A    between atoms: C_2  and  O_3 
REMARK    2  A    between atoms: C_2  and  C_4 
REMARK    3  A    between atoms: C_7  and  N_8 
REMARK    4  A    between atoms: N_12  and  C_13 
REMARK    5  A    between atoms: C_13  and  C_14 
ROOT
HETATM    1  N   UNL     1      41.532 -15.600   1.410  1.00  0.00    -0.367 N 
HETATM    2  C   UNL     1      40.588 -16.107   2.434  1.00  0.00     0.127 C 
HETATM    3  C   UNL     1      41.272 -17.034   3.445  1.00  0.00     0.068 C 
HETATM    4  C   UNL     1      42.693 -16.575   3.860  1.00  0.00     0.206 C 
HETATM    5  N   UNL     1      43.388 -17.563   4.792  1.00  0.00     0.105 N 
HETATM    6  C   UNL     1      42.969 -17.428   6.231  1.00  0.00     0.280 C 
HETATM    7  C   UNL     1      43.284 -16.058   6.860  1.00  0.00     0.089 C 
HETATM    8  C   UNL     1      42.849 -15.024   5.920  1.00  0.00     0.037 A 
HETATM    9  C   UNL     1      42.581 -15.235   4.589  1.00  0.00     0.072 A 
HETATM   10  N   UNL     1      42.267 -13.985   4.071  1.00  0.00    -0.352 N 
HETATM   11  H   UNL     1      42.072 -13.794   3.090  1.00  0.00     0.166 HD
HETATM   12  C   UNL     1      42.337 -13.048   5.025  1.00  0.00     0.181 A 
HETATM   13  N   UNL     1      42.668 -13.677   6.155  1.00  0.00    -0.354 N 
HETATM   14  H   UNL     1      42.810 -13.213   7.052  1.00  0.00     0.166 HD
HETATM   15  C   UNL     1      43.570 -16.299   2.600  1.00  0.00     0.068 C 
HETATM   16  C   UNL     1      42.787 -16.352   1.286  1.00  0.00     0.127 C 
ENDROOT
BRANCH   5  17
HETATM   17  C   UNL     1      43.263 -19.012   4.457  1.00  0.00     0.277 C 
BRANCH  17  18
HETATM   18  C   UNL     1      44.415 -19.672   3.674  1.00  0.00     0.006 C 
HETATM   19  C   UNL     1      45.038 -20.832   4.457  1.00  0.00     0.011 C 
HETATM   20  C   UNL     1      43.898 -20.192   2.328  1.00  0.00     0.011 C 
ENDBRANCH  17  18
ENDBRANCH   5  17
BRANCH   1  21
HETATM   21  C   UNL     1      40.876 -15.231   0.217  1.00  0.00     0.103 A 
HETATM   22  N   UNL     1      39.769 -14.475   0.213  1.00  0.00    -0.344 N 
HETATM   23  C   UNL     1      39.107 -14.085  -0.895  1.00  0.00     0.039 A 
HETATM   24  H   UNL     1      39.367 -14.099   1.074  1.00  0.00     0.167 HD
HETATM   25  C   UNL     1      39.565 -14.487  -2.144  1.00  0.00     0.028 A 
HETATM   26  C   UNL     1      40.697 -15.287  -2.212  1.00  0.00     0.006 A 
HETATM   27  C   UNL     1      41.353 -15.658  -1.038  1.00  0.00     0.048 A 
BRANCH  23  28
HETATM   28  C   UNL     1      37.918 -13.202  -0.654  1.00  0.00     0.163 C 
HETATM   29  C   UNL     1      37.325 -13.369   0.737  1.00  0.00     0.046 C 
BRANCH  28  30
HETATM   30  O   UNL     1      38.421 -11.858  -0.792  1.00  0.00    -0.390 OA
HETATM   31  H   UNL     1      39.107 -11.750  -0.098  1.00  0.00     0.210 HD
ENDBRANCH  28  30
ENDBRANCH  23  28
ENDBRANCH   1  21
TORSDOF 5
ENDMDL
MODEL 7
REMARK VINA RESULT:      -7.7      3.578      7.295
REMARK  5 active torsions:
REMARK  status: ('A' for Active; 'I' for Inactive)
REMARK    1  A    between atoms: C_2  and  O_3 
REMARK    2  A    between atoms: C_2  and  C_4 
REMARK    3  A    between atoms: C_7  and  N_8 
REMARK    4  A    between atoms: N_12  and  C_13 
REMARK    5  A    between atoms: C_13  and  C_14 
ROOT
HETATM    1  N   UNL     1      42.140 -14.014   5.499  1.00  0.00    -0.367 N 
HETATM    2  C   UNL     1      42.922 -13.824   4.255  1.00  0.00     0.127 C 
HETATM    3  C   UNL     1      43.303 -15.156   3.599  1.00  0.00     0.068 C 
HETATM    4  C   UNL     1      42.185 -16.228   3.656  1.00  0.00     0.206 C 
HETATM    5  N   UNL     1      42.623 -17.573   3.082  1.00  0.00     0.105 N 
HETATM    6  C   UNL     1      42.551 -17.637   1.580  1.00  0.00     0.280 C 
HETATM    7  C   UNL     1      41.137 -17.442   1.002  1.00  0.00     0.089 C 
HETATM    8  C   UNL     1      40.537 -16.285   1.667  1.00  0.00     0.037 A 
HETATM    9  C   UNL     1      40.989 -15.732   2.841  1.00  0.00     0.072 A 
HETATM   10  N   UNL     1      40.099 -14.708   3.137  1.00  0.00    -0.352 N 
HETATM   11  H   UNL     1      40.128 -14.137   3.979  1.00  0.00     0.166 HD
HETATM   12  C   UNL     1      39.146 -14.627   2.199  1.00  0.00     0.181 A 
HETATM   13  N   UNL     1      39.420 -15.568   1.292  1.00  0.00    -0.354 N 
HETATM   14  H   UNL     1      38.853 -15.754   0.466  1.00  0.00     0.166 HD
HETATM   15  C   UNL     1      41.662 -16.398   5.115  1.00  0.00     0.068 C 
HETATM   16  C   UNL     1      42.217 -15.357   6.090  1.00  0.00     0.127 C 
ENDROOT
BRANCH   5  17
HETATM   17  C   UNL     1      43.984 -18.057   3.455  1.00  0.00     0.277 C 
BRANCH  17  18
HETATM   18  C   UNL     1      44.096 -19.078   4.604  1.00  0.00     0.006 C 
HETATM   19  C   UNL     1      44.845 -20.340   4.166  1.00  0.00     0.011 C 
HETATM   20  C   UNL     1      44.827 -18.444   5.793  1.00  0.00     0.011 C 
ENDBRANCH  17  18
ENDBRANCH   5  17
BRANCH   1  21
HETATM   21  C   UNL     1      42.253 -12.914   6.374  1.00  0.00     0.103 A 
HETATM   22  N   UNL     1      43.231 -12.822   7.287  1.00  0.00    -0.344 N 
HETATM   23  C   UNL     1      43.392 -11.791   8.141  1.00  0.00     0.039 A 
HETATM   24  H   UNL     1      43.963 -13.530   7.368  1.00  0.00     0.167 HD
HETATM   25  C   UNL     1      42.492 -10.733   8.115  1.00  0.00     0.028 A 
HETATM   26  C   UNL     1      41.444 -10.771   7.206  1.00  0.00     0.006 A 
HETATM   27  C   UNL     1      41.323 -11.856   6.337  1.00  0.00     0.048 A 
BRANCH  23  28
HETATM   28  C   UNL     1      44.588 -11.888   9.042  1.00  0.00     0.163 C 
HETATM   29  C   UNL     1      44.256 -11.622  10.502  1.00  0.00     0.046 C 
BRANCH  28  30
HETATM   30  O   UNL     1      45.046 -13.248   8.905  1.00  0.00    -0.390 OA
HETATM   31  H   UNL     1      44.253 -13.816   9.007  1.00  0.00     0.210 HD
ENDBRANCH  28  30
ENDBRANCH  23  28
ENDBRANCH   1  21
TORSDOF 5
ENDMDL
MODEL 8
REMARK VINA RESULT:      -7.6      2.068      4.089
REMARK  5 active torsions:
REMARK  status: ('A' for Active; 'I' for Inactive)
REMARK    1  A    between atoms: C_2  and  O_3 
REMARK    2  A    between atoms: C_2  and  C_4 
REMARK    3  A    between atoms: C_7  and  N_8 
REMARK    4  A    between atoms: N_12  and  C_13 
REMARK    5  A    between atoms: C_13  and  C_14 
ROOT
HETATM    1  N   UNL     1      42.334 -16.889   2.275  1.00  0.00    -0.367 N 
HETATM    2  C   UNL     1      40.868 -17.109   2.301  1.00  0.00     0.127 C 
HETATM    3  C   UNL     1      40.087 -15.798   2.451  1.00  0.00     0.068 C 
HETATM    4  C   UNL     1      40.679 -14.616   1.643  1.00  0.00     0.206 C 
HETATM    5  N   UNL     1      39.941 -13.302   1.884  1.00  0.00     0.105 N 
HETATM    6  C   UNL     1      38.677 -13.167   1.078  1.00  0.00     0.280 C 
HETATM    7  C   UNL     1      38.891 -13.185  -0.447  1.00  0.00     0.089 C 
HETATM    8  C   UNL     1      39.786 -14.299  -0.761  1.00  0.00     0.037 A 
HETATM    9  C   UNL     1      40.584 -14.946   0.152  1.00  0.00     0.072 A 
HETATM   10  N   UNL     1      41.304 -15.881  -0.580  1.00  0.00    -0.352 N 
HETATM   11  H   UNL     1      42.028 -16.487  -0.199  1.00  0.00     0.166 HD
HETATM   12  C   UNL     1      40.974 -15.819  -1.876  1.00  0.00     0.181 A 
HETATM   13  N   UNL     1      40.036 -14.875  -1.988  1.00  0.00    -0.354 N 
HETATM   14  H   UNL     1      39.604 -14.594  -2.868  1.00  0.00     0.166 HD
HETATM   15  C   UNL     1      42.201 -14.454   1.945  1.00  0.00     0.068 C 
HETATM   16  C   UNL     1      42.782 -15.589   2.790  1.00  0.00     0.127 C 
ENDROOT
BRANCH   5  17
HETATM   17  C   UNL     1      39.571 -12.984   3.294  1.00  0.00     0.277 C 
BRANCH  17  18
HETATM   18  C   UNL     1      40.292 -11.807   3.980  1.00  0.00     0.006 C 
HETATM   19  C   UNL     1      41.463 -12.287   4.843  1.00  0.00     0.011 C 
HETATM   20  C   UNL     1      40.814 -10.829   2.921  1.00  0.00     0.011 C 
ENDBRANCH  17  18
ENDBRANCH   5  17
BRANCH   1  21
HETATM   21  C   UNL     1      43.051 -18.032   2.684  1.00  0.00     0.103 A 
HETATM   22  N   UNL     1      43.576 -18.146   3.913  1.00  0.00    -0.344 N 
HETATM   23  C   UNL     1      44.263 -19.216   4.361  1.00  0.00     0.039 A 
HETATM   24  H   UNL     1      43.449 -17.423   4.625  1.00  0.00     0.167 HD
HETATM   25  C   UNL     1      44.477 -20.296   3.513  1.00  0.00     0.028 A 
HETATM   26  C   UNL     1      43.977 -20.237   2.220  1.00  0.00     0.006 A 
HETATM   27  C   UNL     1      43.265 -19.111   1.805  1.00  0.00     0.048 A 
BRANCH  23  28
HETATM   28  C   UNL     1      44.714 -19.135   5.790  1.00  0.00     0.163 C 
HETATM   29  C   UNL     1      44.825 -17.706   6.299  1.00  0.00     0.046 C 
BRANCH  28  30
HETATM   30  O   UNL     1      43.694 -19.824   6.540  1.00  0.00    -0.390 OA
HETATM   31  H   UNL     1      43.586 -20.702   6.114  1.00  0.00     0.210 HD
ENDBRANCH  28  30
ENDBRANCH  23  28
ENDBRANCH   1  21
TORSDOF 5
ENDMDL
MODEL 9
REMARK VINA RESULT:      -7.5      3.257      7.350
REMARK  5 active torsions:
REMARK  status: ('A' for Active; 'I' for Inactive)
REMARK    1  A    between atoms: C_2  and  O_3 
REMARK    2  A    between atoms: C_2  and  C_4 
REMARK    3  A    between atoms: C_7  and  N_8 
REMARK    4  A    between atoms: N_12  and  C_13 
REMARK    5  A    between atoms: C_13  and  C_14 
ROOT
HETATM    1  N   UNL     1      41.064 -14.377   3.307  1.00  0.00    -0.367 N 
HETATM    2  C   UNL     1      40.560 -15.289   4.362  1.00  0.00     0.127 C 
HETATM    3  C   UNL     1      41.404 -16.562   4.482  1.00  0.00     0.068 C 
HETATM    4  C   UNL     1      42.928 -16.325   4.326  1.00  0.00     0.206 C 
HETATM    5  N   UNL     1      43.736 -17.619   4.354  1.00  0.00     0.105 N 
HETATM    6  C   UNL     1      44.000 -18.132   5.745  1.00  0.00     0.280 C 
HETATM    7  C   UNL     1      44.820 -17.176   6.631  1.00  0.00     0.089 C 
HETATM    8  C   UNL     1      44.247 -15.837   6.494  1.00  0.00     0.037 A 
HETATM    9  C   UNL     1      43.405 -15.442   5.481  1.00  0.00     0.072 A 
HETATM   10  N   UNL     1      43.161 -14.094   5.705  1.00  0.00    -0.352 N 
HETATM   11  H   UNL     1      42.614 -13.492   5.093  1.00  0.00     0.166 HD
HETATM   12  C   UNL     1      43.814 -13.672   6.795  1.00  0.00     0.181 A 
HETATM   13  N   UNL     1      44.457 -14.732   7.291  1.00  0.00    -0.354 N 
HETATM   14  H   UNL     1      45.054 -14.709   8.117  1.00  0.00     0.166 HD
HETATM   15  C   UNL     1      43.227 -15.519   3.025  1.00  0.00     0.068 C 
HETATM   16  C   UNL     1      41.970 -14.992   2.328  1.00  0.00     0.127 C 
ENDROOT
BRANCH   5  17
HETATM   17  C   UNL     1      43.193 -18.772   3.580  1.00  0.00     0.277 C 
BRANCH  17  18
HETATM   18  C   UNL     1      43.969 -19.230   2.329  1.00  0.00     0.006 C 
HETATM   19  C   UNL     1      43.597 -20.660   1.927  1.00  0.00     0.011 C 
HETATM   20  C   UNL     1      43.673 -18.284   1.160  1.00  0.00     0.011 C 
ENDBRANCH  17  18
ENDBRANCH   5  17
BRANCH   1  21
HETATM   21  C   UNL     1      40.056 -13.525   2.812  1.00  0.00     0.103 A 
HETATM   22  N   UNL     1      39.421 -13.764   1.655  1.00  0.00    -0.344 N 
HETATM   23  C   UNL     1      38.446 -12.989   1.138  1.00  0.00     0.039 A 
HETATM   24  H   UNL     1      39.613 -14.596   1.094  1.00  0.00     0.167 HD
HETATM   25  C   UNL     1      38.049 -11.843   1.816  1.00  0.00     0.028 A 
HETATM   26  C   UNL     1      38.678 -11.526   3.013  1.00  0.00     0.006 A 
HETATM   27  C   UNL     1      39.677 -12.363   3.511  1.00  0.00     0.048 A 
BRANCH  23  28
HETATM   28  C   UNL     1      37.850 -13.483  -0.148  1.00  0.00     0.163 C 
HETATM   29  C   UNL     1      37.688 -12.386  -1.188  1.00  0.00     0.046 C 
BRANCH  28  30
HETATM   30  O   UNL     1      38.788 -14.462  -0.638  1.00  0.00    -0.390 OA
HETATM   31  H   UNL     1      38.549 -14.625  -1.576  1.00  0.00     0.210 HD
ENDBRANCH  28  30
ENDBRANCH  23  28
ENDBRANCH   1  21
TORSDOF 5
ENDMDL
MODEL 10
REMARK VINA RESULT:      -7.5      1.868      4.121
REMARK  5 active torsions:
REMARK  status: ('A' for Active; 'I' for Inactive)
REMARK    1  A    between atoms: C_2  and  O_3 
REMARK    2  A    between atoms: C_2  and  C_4 
REMARK    3  A    between atoms: C_7  and  N_8 
REMARK    4  A    between atoms: N_12  and  C_13 
REMARK    5  A    between atoms: C_13  and  C_14 
ROOT
HETATM    1  N   UNL     1      42.688 -16.712   3.478  1.00  0.00    -0.367 N 
HETATM    2  C   UNL     1      41.234 -16.995   3.511  1.00  0.00     0.127 C 
HETATM    3  C   UNL     1      40.395 -15.715   3.594  1.00  0.00     0.068 C 
HETATM    4  C   UNL     1      40.938 -14.548   2.731  1.00  0.00     0.206 C 
HETATM    5  N   UNL     1      40.141 -13.259   2.906  1.00  0.00     0.105 N 
HETATM    6  C   UNL     1      38.877 -13.219   2.090  1.00  0.00     0.280 C 
HETATM    7  C   UNL     1      39.099 -13.301   0.568  1.00  0.00     0.089 C 
HETATM    8  C   UNL     1      40.044 -14.388   0.312  1.00  0.00     0.037 A 
HETATM    9  C   UNL     1      40.865 -14.954   1.258  1.00  0.00     0.072 A 
HETATM   10  N   UNL     1      41.630 -15.891   0.574  1.00  0.00    -0.352 N 
HETATM   11  H   UNL     1      42.377 -16.445   0.986  1.00  0.00     0.166 HD
HETATM   12  C   UNL     1      41.304 -15.907  -0.725  1.00  0.00     0.181 A 
HETATM   13  N   UNL     1      40.325 -15.012  -0.885  1.00  0.00    -0.354 N 
HETATM   14  H   UNL     1      39.885 -14.793  -1.778  1.00  0.00     0.166 HD
HETATM   15  C   UNL     1      42.449 -14.304   3.029  1.00  0.00     0.068 C 
HETATM   16  C   UNL     1      43.076 -15.370   3.930  1.00  0.00     0.127 C 
ENDROOT
BRANCH   5  17
HETATM   17  C   UNL     1      39.750 -12.889   4.297  1.00  0.00     0.277 C 
BRANCH  17  18
HETATM   18  C   UNL     1      40.467 -11.691   4.953  1.00  0.00     0.006 C 
HETATM   19  C   UNL     1      41.600 -12.148   5.877  1.00  0.00     0.011 C 
HETATM   20  C   UNL     1      41.040 -10.772   3.868  1.00  0.00     0.011 C 
ENDBRANCH  17  18
ENDBRANCH   5  17
BRANCH   1  21
HETATM   21  C   UNL     1      43.454 -17.801   3.945  1.00  0.00     0.103 A 
HETATM   22  N   UNL     1      43.666 -18.897   3.203  1.00  0.00    -0.344 N 
HETATM   23  C   UNL     1      44.395 -19.962   3.594  1.00  0.00     0.039 A 
HETATM   24  H   UNL     1      43.313 -18.981   2.247  1.00  0.00     0.167 HD
HETATM   25  C   UNL     1      44.974 -19.969   4.857  1.00  0.00     0.028 A 
HETATM   26  C   UNL     1      44.780 -18.872   5.685  1.00  0.00     0.006 A 
HETATM   27  C   UNL     1      44.023 -17.791   5.233  1.00  0.00     0.048 A 
BRANCH  23  28
HETATM   28  C   UNL     1      44.532 -21.054   2.573  1.00  0.00     0.163 C 
HETATM   29  C   UNL     1      44.542 -22.445   3.188  1.00  0.00     0.046 C 
BRANCH  28  30
HETATM   30  O   UNL     1      43.370 -20.921   1.730  1.00  0.00    -0.390 OA
HETATM   31  H   UNL     1      43.430 -21.640   1.066  1.00  0.00     0.210 HD
ENDBRANCH  28  30
ENDBRANCH  23  28
ENDBRANCH   1  21
TORSDOF 5
ENDMDL
