MODEL 1
REMARK VINA RESULT:      -7.7      0.000      0.000
REMARK  7 active torsions:
REMARK  status: ('A' for Active; 'I' for Inactive)
REMARK    1  A    between atoms: C_2  and  C_3 
REMARK    2  A    between atoms: C_6  and  O_7 
REMARK    3  A    between atoms: O_7  and  C_8 
REMARK    4  A    between atoms: C_8  and  C_9 
REMARK       I    between atoms: C_9  and  N_10 
REMARK    5  A    between atoms: N_10  and  N_11 
REMARK       I    between atoms: N_11  and  C_12 
REMARK    6  A    between atoms: C_12  and  C_13 
REMARK    7  A    between atoms: C_16  and  N_17 
ROOT
HETATM    1  N   UNL     1      39.769 -14.010   5.568  1.00  0.00    -0.263 N 
HETATM    2  C   UNL     1      41.137 -14.024   5.776  1.00  0.00     0.270 C 
HETATM    3  O   UNL     1      41.780 -13.035   6.110  1.00  0.00    -0.266 OA
HETATM    4  H   UNL     1      39.316 -14.746   5.036  1.00  0.00     0.190 HD
ENDROOT
BRANCH   1   5
HETATM    5  N   UNL     1      39.108 -12.779   5.651  1.00  0.00    -0.265 N 
HETATM    6  C   UNL     1      38.912 -11.978   4.547  1.00  0.00     0.260 C 
HETATM    7  O   UNL     1      38.155 -11.007   4.612  1.00  0.00    -0.269 OA
HETATM    8  H   UNL     1      38.408 -12.690   6.386  1.00  0.00     0.190 HD
BRANCH   6   9
HETATM    9  C   UNL     1      39.719 -12.289   3.293  1.00  0.00     0.280 C 
BRANCH   9  10
HETATM   10  O   UNL     1      39.109 -13.375   2.609  1.00  0.00    -0.342 OA
BRANCH  10  11
HETATM   11  C   UNL     1      39.902 -14.426   2.254  1.00  0.00     0.069 A 
HETATM   12  C   UNL     1      41.230 -14.083   1.995  1.00  0.00     0.037 A 
HETATM   13  C   UNL     1      42.158 -15.056   1.619  1.00  0.00     0.010 A 
HETATM   14  C   UNL     1      41.763 -16.391   1.486  1.00  0.00    -0.058 A 
HETATM   15  C   UNL     1      40.430 -16.733   1.753  1.00  0.00     0.010 A 
HETATM   16  C   UNL     1      39.504 -15.755   2.134  1.00  0.00     0.037 A 
BRANCH  14  17
HETATM   17  C   UNL     1      42.765 -17.449   1.104  1.00  0.00     0.034 C 
HETATM   18  C   UNL     1      44.186 -17.036   1.457  1.00  0.00     0.010 C 
ENDBRANCH  14  17
ENDBRANCH  10  11
ENDBRANCH   9  10
ENDBRANCH   6   9
ENDBRANCH   1   5
BRANCH   2  19
HETATM   19  C   UNL     1      41.819 -15.310   5.469  1.00  0.00     0.033 A 
HETATM   20  C   UNL     1      41.053 -16.476   5.448  1.00  0.00     0.019 A 
HETATM   21  C   UNL     1      41.668 -17.714   5.242  1.00  0.00     0.032 A 
HETATM   22  C   UNL     1      43.060 -17.812   5.052  1.00  0.00     0.058 A 
HETATM   23  C   UNL     1      43.810 -16.631   5.012  1.00  0.00     0.032 A 
HETATM   24  C   UNL     1      43.194 -15.386   5.220  1.00  0.00     0.019 A 
BRANCH  22  25
HETATM   25  N   UNL     1      43.636 -19.116   4.897  1.00  0.00    -0.238 N 
HETATM   26  N   UNL     1      43.827 -19.592   3.633  1.00  0.00    -0.172 NA
HETATM   27  C   UNL     1      44.411 -20.780   3.771  1.00  0.00     0.053 A 
HETATM   28  C   UNL     1      44.778 -21.583   2.581  1.00  0.00     0.072 C 
HETATM   29  C   UNL     1      44.568 -21.120   5.123  1.00  0.00     0.055 A 
HETATM   30  C   UNL     1      44.035 -20.065   5.839  1.00  0.00     0.035 A 
HETATM   31  C   UNL     1      43.862 -19.988   7.309  1.00  0.00     0.070 C 
ENDBRANCH  22  25
ENDBRANCH   2  19
TORSDOF 7
ENDMDL
MODEL 2
REMARK VINA RESULT:      -7.7      0.984      1.333
REMARK  7 active torsions:
REMARK  status: ('A' for Active; 'I' for Inactive)
REMARK    1  A    between atoms: C_2  and  C_3 
REMARK    2  A    between atoms: C_6  and  O_7 
REMARK    3  A    between atoms: O_7  and  C_8 
REMARK    4  A    between atoms: C_8  and  C_9 
REMARK       I    between atoms: C_9  and  N_10 
REMARK    5  A    between atoms: N_10  and  N_11 
REMARK       I    between atoms: N_11  and  C_12 
REMARK    6  A    between atoms: C_12  and  C_13 
REMARK    7  A    between atoms: C_16  and  N_17 
ROOT
HETATM    1  N   UNL     1      40.844 -14.268   6.322  1.00  0.00    -0.263 N 
HETATM    2  C   UNL     1      42.196 -14.512   6.155  1.00  0.00     0.270 C 
HETATM    3  O   UNL     1      43.050 -13.631   6.176  1.00  0.00    -0.266 OA
HETATM    4  H   UNL     1      40.153 -14.949   6.030  1.00  0.00     0.190 HD
ENDROOT
BRANCH   1   5
HETATM    5  N   UNL     1      40.429 -12.934   6.422  1.00  0.00    -0.265 N 
HETATM    6  C   UNL     1      39.473 -12.400   5.586  1.00  0.00     0.260 C 
HETATM    7  O   UNL     1      38.985 -11.296   5.829  1.00  0.00    -0.269 OA
HETATM    8  H   UNL     1      40.486 -12.512   7.348  1.00  0.00     0.190 HD
BRANCH   6   9
HETATM    9  C   UNL     1      39.115 -13.183   4.328  1.00  0.00     0.280 C 
BRANCH   9  10
HETATM   10  O   UNL     1      40.155 -13.024   3.373  1.00  0.00    -0.342 OA
BRANCH  10  11
HETATM   11  C   UNL     1      40.685 -14.151   2.820  1.00  0.00     0.069 A 
HETATM   12  C   UNL     1      42.071 -14.116   2.657  1.00  0.00     0.037 A 
HETATM   13  C   UNL     1      42.752 -15.200   2.100  1.00  0.00     0.010 A 
HETATM   14  C   UNL     1      42.048 -16.337   1.688  1.00  0.00    -0.058 A 
HETATM   15  C   UNL     1      40.658 -16.372   1.859  1.00  0.00     0.010 A 
HETATM   16  C   UNL     1      39.979 -15.284   2.421  1.00  0.00     0.037 A 
BRANCH  14  17
HETATM   17  C   UNL     1      42.781 -17.519   1.110  1.00  0.00     0.034 C 
HETATM   18  C   UNL     1      44.280 -17.430   1.352  1.00  0.00     0.010 C 
ENDBRANCH  14  17
ENDBRANCH  10  11
ENDBRANCH   9  10
ENDBRANCH   6   9
ENDBRANCH   1   5
BRANCH   2  19
HETATM   19  C   UNL     1      42.561 -15.919   5.843  1.00  0.00     0.033 A 
HETATM   20  C   UNL     1      43.887 -16.314   6.025  1.00  0.00     0.019 A 
HETATM   21  C   UNL     1      44.289 -17.605   5.670  1.00  0.00     0.032 A 
HETATM   22  C   UNL     1      43.374 -18.527   5.126  1.00  0.00     0.058 A 
HETATM   23  C   UNL     1      42.034 -18.142   5.007  1.00  0.00     0.032 A 
HETATM   24  C   UNL     1      41.628 -16.845   5.362  1.00  0.00     0.019 A 
BRANCH  22  25
HETATM   25  N   UNL     1      43.859 -19.818   4.734  1.00  0.00    -0.238 N 
HETATM   26  N   UNL     1      44.024 -20.069   3.403  1.00  0.00    -0.172 NA
HETATM   27  C   UNL     1      44.522 -21.301   3.319  1.00  0.00     0.053 A 
HETATM   28  C   UNL     1      44.840 -21.898   2.001  1.00  0.00     0.072 C 
HETATM   29  C   UNL     1      44.648 -21.889   4.586  1.00  0.00     0.055 A 
HETATM   30  C   UNL     1      44.186 -20.947   5.485  1.00  0.00     0.035 A 
HETATM   31  C   UNL     1      44.011 -21.126   6.947  1.00  0.00     0.070 C 
ENDBRANCH  22  25
ENDBRANCH   2  19
TORSDOF 7
ENDMDL
MODEL 3
REMARK VINA RESULT:      -7.6      3.235      6.882
REMARK  7 active torsions:
REMARK  status: ('A' for Active; 'I' for Inactive)
REMARK    1  A    between atoms: C_2  and  C_3 
REMARK    2  A    between atoms: C_6  and  O_7 
REMARK    3  A    between atoms: O_7  and  C_8 
REMARK    4  A    between atoms: C_8  and  C_9 
REMARK       I    between atoms: C_9  and  N_10 
REMARK    5  A    between atoms: N_10  and  N_11 
REMARK       I    between atoms: N_11  and  C_12 
REMARK    6  A    between atoms: C_12  and  C_13 
REMARK    7  A    between atoms: C_16  and  N_17 
ROOT
HETATM    1  N   UNL     1      41.746 -15.981   5.954  1.00  0.00    -0.263 N 
HETATM    2  C   UNL     1      41.175 -16.784   4.983  1.00  0.00     0.270 C 
HETATM    3  O   UNL     1      40.821 -17.941   5.185  1.00  0.00    -0.266 OA
HETATM    4  H   UNL     1      42.273 -15.152   5.701  1.00  0.00     0.190 HD
ENDROOT
BRANCH   1   5
HETATM    5  N   UNL     1      42.020 -16.558   7.200  1.00  0.00    -0.265 N 
HETATM    6  C   UNL     1      43.308 -16.758   7.648  1.00  0.00     0.260 C 
HETATM    7  O   UNL     1      43.514 -17.073   8.821  1.00  0.00    -0.269 OA
HETATM    8  H   UNL     1      41.321 -16.413   7.928  1.00  0.00     0.190 HD
BRANCH   6   9
HETATM    9  C   UNL     1      44.436 -16.654   6.629  1.00  0.00     0.280 C 
BRANCH   9  10
HETATM   10  O   UNL     1      45.065 -17.923   6.507  1.00  0.00    -0.342 OA
BRANCH  10  11
HETATM   11  C   UNL     1      44.742 -18.688   5.426  1.00  0.00     0.069 A 
HETATM   12  C   UNL     1      44.267 -17.966   4.330  1.00  0.00     0.037 A 
HETATM   13  C   UNL     1      43.894 -18.618   3.154  1.00  0.00     0.010 A 
HETATM   14  C   UNL     1      43.985 -20.011   3.061  1.00  0.00    -0.058 A 
HETATM   15  C   UNL     1      44.469 -20.732   4.160  1.00  0.00     0.010 A 
HETATM   16  C   UNL     1      44.845 -20.075   5.337  1.00  0.00     0.037 A 
BRANCH  14  17
HETATM   17  C   UNL     1      43.608 -20.717   1.784  1.00  0.00     0.034 C 
HETATM   18  C   UNL     1      44.336 -22.044   1.636  1.00  0.00     0.010 C 
ENDBRANCH  14  17
ENDBRANCH  10  11
ENDBRANCH   9  10
ENDBRANCH   6   9
ENDBRANCH   1   5
BRANCH   2  19
HETATM   19  C   UNL     1      41.100 -16.191   3.622  1.00  0.00     0.033 A 
HETATM   20  C   UNL     1      41.498 -14.863   3.457  1.00  0.00     0.019 A 
HETATM   21  C   UNL     1      41.371 -14.243   2.211  1.00  0.00     0.032 A 
HETATM   22  C   UNL     1      40.844 -14.937   1.104  1.00  0.00     0.058 A 
HETATM   23  C   UNL     1      40.508 -16.285   1.264  1.00  0.00     0.032 A 
HETATM   24  C   UNL     1      40.634 -16.910   2.516  1.00  0.00     0.019 A 
BRANCH  22  25
HETATM   25  N   UNL     1      40.691 -14.229  -0.133  1.00  0.00    -0.238 N 
HETATM   26  N   UNL     1      41.816 -13.879  -0.821  1.00  0.00    -0.172 NA
HETATM   27  C   UNL     1      41.396 -13.287  -1.937  1.00  0.00     0.053 A 
HETATM   28  C   UNL     1      42.369 -12.786  -2.936  1.00  0.00     0.072 C 
HETATM   29  C   UNL     1      39.997 -13.198  -1.975  1.00  0.00     0.055 A 
HETATM   30  C   UNL     1      39.553 -13.770  -0.798  1.00  0.00     0.035 A 
HETATM   31  C   UNL     1      38.154 -13.826  -0.311  1.00  0.00     0.070 C 
ENDBRANCH  22  25
ENDBRANCH   2  19
TORSDOF 7
ENDMDL
MODEL 4
REMARK VINA RESULT:      -7.5      4.130      6.470
REMARK  7 active torsions:
REMARK  status: ('A' for Active; 'I' for Inactive)
REMARK    1  A    between atoms: C_2  and  C_3 
REMARK    2  A    between atoms: C_6  and  O_7 
REMARK    3  A    between atoms: O_7  and  C_8 
REMARK    4  A    between atoms: C_8  and  C_9 
REMARK       I    between atoms: C_9  and  N_10 
REMARK    5  A    between atoms: N_10  and  N_11 
REMARK       I    between atoms: N_11  and  C_12 
REMARK    6  A    between atoms: C_12  and  C_13 
REMARK    7  A    between atoms: C_16  and  N_17 
ROOT
HETATM    1  N   UNL     1      40.240 -13.887   6.579  1.00  0.00    -0.263 N 
HETATM    2  C   UNL     1      40.262 -14.123   5.216  1.00  0.00     0.270 C 
HETATM    3  O   UNL     1      39.618 -13.466   4.405  1.00  0.00    -0.266 OA
HETATM    4  H   UNL     1      40.548 -14.597   7.236  1.00  0.00     0.190 HD
ENDROOT
BRANCH   1   5
HETATM    5  N   UNL     1      39.359 -12.910   7.058  1.00  0.00    -0.265 N 
HETATM    6  C   UNL     1      39.761 -11.613   7.293  1.00  0.00     0.260 C 
HETATM    7  O   UNL     1      38.925 -10.735   7.515  1.00  0.00    -0.269 OA
HETATM    8  H   UNL     1      38.377 -13.025   6.808  1.00  0.00     0.190 HD
BRANCH   6   9
HETATM    9  C   UNL     1      41.258 -11.335   7.348  1.00  0.00     0.280 C 
BRANCH   9  10
HETATM   10  O   UNL     1      41.469 -10.061   7.942  1.00  0.00    -0.342 OA
BRANCH  10  11
HETATM   11  C   UNL     1      42.039 -10.025   9.180  1.00  0.00     0.069 A 
HETATM   12  C   UNL     1      41.325  -9.282  10.121  1.00  0.00     0.037 A 
HETATM   13  C   UNL     1      41.790  -9.155  11.431  1.00  0.00     0.010 A 
HETATM   14  C   UNL     1      42.988  -9.766  11.815  1.00  0.00    -0.058 A 
HETATM   15  C   UNL     1      43.699 -10.517  10.870  1.00  0.00     0.010 A 
HETATM   16  C   UNL     1      43.227 -10.645   9.558  1.00  0.00     0.037 A 
BRANCH  14  17
HETATM   17  C   UNL     1      43.481  -9.653  13.235  1.00  0.00     0.034 C 
HETATM   18  C   UNL     1      42.429 -10.104  14.237  1.00  0.00     0.010 C 
ENDBRANCH  14  17
ENDBRANCH  10  11
ENDBRANCH   9  10
ENDBRANCH   6   9
ENDBRANCH   1   5
BRANCH   2  19
HETATM   19  C   UNL     1      41.051 -15.307   4.782  1.00  0.00     0.033 A 
HETATM   20  C   UNL     1      40.888 -16.503   5.484  1.00  0.00     0.019 A 
HETATM   21  C   UNL     1      41.666 -17.617   5.160  1.00  0.00     0.032 A 
HETATM   22  C   UNL     1      42.622 -17.560   4.127  1.00  0.00     0.058 A 
HETATM   23  C   UNL     1      42.733 -16.377   3.389  1.00  0.00     0.032 A 
HETATM   24  C   UNL     1      41.953 -15.255   3.714  1.00  0.00     0.019 A 
BRANCH  22  25
HETATM   25  N   UNL     1      43.426 -18.721   3.878  1.00  0.00    -0.238 N 
HETATM   26  N   UNL     1      43.108 -19.509   2.810  1.00  0.00    -0.172 NA
HETATM   27  C   UNL     1      44.024 -20.474   2.779  1.00  0.00     0.053 A 
HETATM   28  C   UNL     1      43.990 -21.513   1.723  1.00  0.00     0.072 C 
HETATM   29  C   UNL     1      44.925 -20.361   3.848  1.00  0.00     0.055 A 
HETATM   30  C   UNL     1      44.512 -19.257   4.570  1.00  0.00     0.035 A 
HETATM   31  C   UNL     1      45.072 -18.778   5.857  1.00  0.00     0.070 C 
ENDBRANCH  22  25
ENDBRANCH   2  19
TORSDOF 7
ENDMDL
MODEL 5
REMARK VINA RESULT:      -7.5      3.235      7.598
REMARK  7 active torsions:
REMARK  status: ('A' for Active; 'I' for Inactive)
REMARK    1  A    between atoms: C_2  and  C_3 
REMARK    2  A    between atoms: C_6  and  O_7 
REMARK    3  A    between atoms: O_7  and  C_8 
REMARK    4  A    between atoms: C_8  and  C_9 
REMARK       I    between atoms: C_9  and  N_10 
REMARK    5  A    between atoms: N_10  and  N_11 
REMARK       I    between atoms: N_11  and  C_12 
REMARK    6  A    between atoms: C_12  and  C_13 
REMARK    7  A    between atoms: C_16  and  N_17 
ROOT
HETATM    1  N   UNL     1      42.799 -19.286   2.420  1.00  0.00    -0.263 N 
HETATM    2  C   UNL     1      43.163 -18.082   1.842  1.00  0.00     0.270 C 
HETATM    3  O   UNL     1      43.853 -17.999   0.831  1.00  0.00    -0.266 OA
HETATM    4  H   UNL     1      42.477 -19.325   3.381  1.00  0.00     0.190 HD
ENDROOT
BRANCH   1   5
HETATM    5  N   UNL     1      43.329 -20.460   1.872  1.00  0.00    -0.265 N 
HETATM    6  C   UNL     1      44.293 -21.200   2.522  1.00  0.00     0.260 C 
HETATM    7  O   UNL     1      44.588 -22.326   2.116  1.00  0.00    -0.269 OA
HETATM    8  H   UNL     1      42.715 -20.987   1.254  1.00  0.00     0.190 HD
BRANCH   6   9
HETATM    9  C   UNL     1      45.021 -20.547   3.690  1.00  0.00     0.280 C 
BRANCH   9  10
HETATM   10  O   UNL     1      44.152 -20.509   4.813  1.00  0.00    -0.342 OA
BRANCH  10  11
HETATM   11  C   UNL     1      43.978 -19.310   5.439  1.00  0.00     0.069 A 
HETATM   12  C   UNL     1      45.162 -18.620   5.701  1.00  0.00     0.037 A 
HETATM   13  C   UNL     1      45.138 -17.379   6.339  1.00  0.00     0.010 A 
HETATM   14  C   UNL     1      43.921 -16.813   6.735  1.00  0.00    -0.058 A 
HETATM   15  C   UNL     1      42.734 -17.506   6.464  1.00  0.00     0.010 A 
HETATM   16  C   UNL     1      42.761 -18.748   5.821  1.00  0.00     0.037 A 
BRANCH  14  17
HETATM   17  C   UNL     1      43.889 -15.463   7.402  1.00  0.00     0.034 C 
HETATM   18  C   UNL     1      44.861 -14.489   6.755  1.00  0.00     0.010 C 
ENDBRANCH  14  17
ENDBRANCH  10  11
ENDBRANCH   9  10
ENDBRANCH   6   9
ENDBRANCH   1   5
BRANCH   2  19
HETATM   19  C   UNL     1      42.748 -16.862   2.584  1.00  0.00     0.033 A 
HETATM   20  C   UNL     1      41.440 -16.794   3.065  1.00  0.00     0.019 A 
HETATM   21  C   UNL     1      40.986 -15.635   3.699  1.00  0.00     0.032 A 
HETATM   22  C   UNL     1      41.830 -14.519   3.866  1.00  0.00     0.058 A 
HETATM   23  C   UNL     1      43.158 -14.621   3.437  1.00  0.00     0.032 A 
HETATM   24  C   UNL     1      43.616 -15.785   2.799  1.00  0.00     0.019 A 
BRANCH  22  25
HETATM   25  N   UNL     1      41.288 -13.341   4.478  1.00  0.00    -0.238 N 
HETATM   26  N   UNL     1      41.812 -12.933   5.670  1.00  0.00    -0.172 NA
HETATM   27  C   UNL     1      41.175 -11.809   5.987  1.00  0.00     0.053 A 
HETATM   28  C   UNL     1      41.508 -11.079   7.233  1.00  0.00     0.072 C 
HETATM   29  C   UNL     1      40.196 -11.489   5.036  1.00  0.00     0.055 A 
HETATM   30  C   UNL     1      40.248 -12.496   4.091  1.00  0.00     0.035 A 
HETATM   31  C   UNL     1      39.339 -12.675   2.933  1.00  0.00     0.070 C 
ENDBRANCH  22  25
ENDBRANCH   2  19
TORSDOF 7
ENDMDL
MODEL 6
REMARK VINA RESULT:      -7.4      1.923      3.817
REMARK  7 active torsions:
REMARK  status: ('A' for Active; 'I' for Inactive)
REMARK    1  A    between atoms: C_2  and  C_3 
REMARK    2  A    between atoms: C_6  and  O_7 
REMARK    3  A    between atoms: O_7  and  C_8 
REMARK    4  A    between atoms: C_8  and  C_9 
REMARK       I    between atoms: C_9  and  N_10 
REMARK    5  A    between atoms: N_10  and  N_11 
REMARK       I    between atoms: N_11  and  C_12 
REMARK    6  A    between atoms: C_12  and  C_13 
REMARK    7  A    between atoms: C_16  and  N_17 
ROOT
HETATM    1  N   UNL     1      42.034 -12.513   2.310  1.00  0.00    -0.263 N 
HETATM    2  C   UNL     1      41.294 -13.586   1.843  1.00  0.00     0.270 C 
HETATM    3  O   UNL     1      40.226 -13.465   1.252  1.00  0.00    -0.266 OA
HETATM    4  H   UNL     1      42.747 -12.643   3.019  1.00  0.00     0.190 HD
ENDROOT
BRANCH   1   5
HETATM    5  N   UNL     1      41.479 -11.234   2.184  1.00  0.00    -0.265 N 
HETATM    6  C   UNL     1      40.905 -10.576   3.250  1.00  0.00     0.260 C 
HETATM    7  O   UNL     1      40.614  -9.383   3.159  1.00  0.00    -0.269 OA
HETATM    8  H   UNL     1      41.886 -10.634   1.468  1.00  0.00     0.190 HD
BRANCH   6   9
HETATM    9  C   UNL     1      40.576 -11.394   4.493  1.00  0.00     0.280 C 
BRANCH   9  10
HETATM   10  O   UNL     1      41.788 -11.781   5.125  1.00  0.00    -0.342 OA
BRANCH  10  11
HETATM   11  C   UNL     1      41.918 -13.085   5.503  1.00  0.00     0.069 A 
HETATM   12  C   UNL     1      40.710 -13.775   5.612  1.00  0.00     0.037 A 
HETATM   13  C   UNL     1      40.687 -15.118   5.993  1.00  0.00     0.010 A 
HETATM   14  C   UNL     1      41.881 -15.789   6.280  1.00  0.00    -0.058 A 
HETATM   15  C   UNL     1      43.092 -15.095   6.162  1.00  0.00     0.010 A 
HETATM   16  C   UNL     1      43.111 -13.750   5.777  1.00  0.00     0.037 A 
BRANCH  14  17
HETATM   17  C   UNL     1      41.864 -17.245   6.666  1.00  0.00     0.034 C 
HETATM   18  C   UNL     1      42.839 -17.542   7.794  1.00  0.00     0.010 C 
ENDBRANCH  14  17
ENDBRANCH  10  11
ENDBRANCH   9  10
ENDBRANCH   6   9
ENDBRANCH   1   5
BRANCH   2  19
HETATM   19  C   UNL     1      41.825 -14.931   2.189  1.00  0.00     0.033 A 
HETATM   20  C   UNL     1      43.210 -15.098   2.255  1.00  0.00     0.019 A 
HETATM   21  C   UNL     1      43.752 -16.362   2.500  1.00  0.00     0.032 A 
HETATM   22  C   UNL     1      42.923 -17.485   2.684  1.00  0.00     0.058 A 
HETATM   23  C   UNL     1      41.536 -17.296   2.679  1.00  0.00     0.032 A 
HETATM   24  C   UNL     1      40.989 -16.026   2.432  1.00  0.00     0.019 A 
BRANCH  22  25
HETATM   25  N   UNL     1      43.541 -18.764   2.880  1.00  0.00    -0.238 N 
HETATM   26  N   UNL     1      43.322 -19.737   1.950  1.00  0.00    -0.172 NA
HETATM   27  C   UNL     1      44.038 -20.789   2.340  1.00  0.00     0.053 A 
HETATM   28  C   UNL     1      44.043 -22.037   1.541  1.00  0.00     0.072 C 
HETATM   29  C   UNL     1      44.698 -20.538   3.551  1.00  0.00     0.055 A 
HETATM   30  C   UNL     1      44.345 -19.252   3.911  1.00  0.00     0.035 A 
HETATM   31  C   UNL     1      44.697 -18.554   5.171  1.00  0.00     0.070 C 
ENDBRANCH  22  25
ENDBRANCH   2  19
TORSDOF 7
ENDMDL
MODEL 7
REMARK VINA RESULT:      -7.3      3.411      6.956
REMARK  7 active torsions:
REMARK  status: ('A' for Active; 'I' for Inactive)
REMARK    1  A    between atoms: C_2  and  C_3 
REMARK    2  A    between atoms: C_6  and  O_7 
REMARK    3  A    between atoms: O_7  and  C_8 
REMARK    4  A    between atoms: C_8  and  C_9 
REMARK       I    between atoms: C_9  and  N_10 
REMARK    5  A    between atoms: N_10  and  N_11 
REMARK       I    between atoms: N_11  and  C_12 
REMARK    6  A    between atoms: C_12  and  C_13 
REMARK    7  A    between atoms: C_16  and  N_17 
ROOT
HETATM    1  N   UNL     1      42.447 -14.810   5.002  1.00  0.00    -0.263 N 
HETATM    2  C   UNL     1      43.227 -14.187   4.044  1.00  0.00     0.270 C 
HETATM    3  O   UNL     1      44.279 -13.611   4.300  1.00  0.00    -0.266 OA
HETATM    4  H   UNL     1      41.473 -15.029   4.818  1.00  0.00     0.190 HD
ENDROOT
BRANCH   1   5
HETATM    5  N   UNL     1      42.835 -14.687   6.341  1.00  0.00    -0.265 N 
HETATM    6  C   UNL     1      43.380 -15.737   7.046  1.00  0.00     0.260 C 
HETATM    7  O   UNL     1      43.897 -15.544   8.147  1.00  0.00    -0.269 OA
HETATM    8  H   UNL     1      43.129 -13.758   6.642  1.00  0.00     0.190 HD
BRANCH   6   9
HETATM    9  C   UNL     1      43.246 -17.135   6.452  1.00  0.00     0.280 C 
BRANCH   9  10
HETATM   10  O   UNL     1      44.074 -17.229   5.301  1.00  0.00    -0.342 OA
BRANCH  10  11
HETATM   11  C   UNL     1      44.236 -18.459   4.736  1.00  0.00     0.069 A 
HETATM   12  C   UNL     1      43.836 -18.537   3.402  1.00  0.00     0.037 A 
HETATM   13  C   UNL     1      43.941 -19.736   2.694  1.00  0.00     0.010 A 
HETATM   14  C   UNL     1      44.443 -20.881   3.321  1.00  0.00    -0.058 A 
HETATM   15  C   UNL     1      44.851 -20.798   4.659  1.00  0.00     0.010 A 
HETATM   16  C   UNL     1      44.747 -19.593   5.364  1.00  0.00     0.037 A 
BRANCH  14  17
HETATM   17  C   UNL     1      44.583 -22.171   2.554  1.00  0.00     0.034 C 
HETATM   18  C   UNL     1      43.996 -22.065   1.156  1.00  0.00     0.010 C 
ENDBRANCH  14  17
ENDBRANCH  10  11
ENDBRANCH   9  10
ENDBRANCH   6   9
ENDBRANCH   1   5
BRANCH   2  19
HETATM   19  C   UNL     1      42.662 -14.167   2.669  1.00  0.00     0.033 A 
HETATM   20  C   UNL     1      42.618 -15.366   1.955  1.00  0.00     0.019 A 
HETATM   21  C   UNL     1      42.167 -15.378   0.633  1.00  0.00     0.032 A 
HETATM   22  C   UNL     1      41.751 -14.192  -0.004  1.00  0.00     0.058 A 
HETATM   23  C   UNL     1      41.739 -13.007   0.740  1.00  0.00     0.032 A 
HETATM   24  C   UNL     1      42.193 -12.993   2.069  1.00  0.00     0.019 A 
BRANCH  22  25
HETATM   25  N   UNL     1      41.349 -14.262  -1.379  1.00  0.00    -0.238 N 
HETATM   26  N   UNL     1      40.450 -15.223  -1.741  1.00  0.00    -0.172 NA
HETATM   27  C   UNL     1      40.216 -15.039  -3.038  1.00  0.00     0.053 A 
HETATM   28  C   UNL     1      39.264 -15.911  -3.764  1.00  0.00     0.072 C 
HETATM   29  C   UNL     1      40.990 -13.989  -3.554  1.00  0.00     0.055 A 
HETATM   30  C   UNL     1      41.741 -13.521  -2.493  1.00  0.00     0.035 A 
HETATM   31  C   UNL     1      42.799 -12.483  -2.544  1.00  0.00     0.070 C 
ENDBRANCH  22  25
ENDBRANCH   2  19
TORSDOF 7
ENDMDL
MODEL 8
REMARK VINA RESULT:      -7.3      1.955      3.156
REMARK  7 active torsions:
REMARK  status: ('A' for Active; 'I' for Inactive)
REMARK    1  A    between atoms: C_2  and  C_3 
REMARK    2  A    between atoms: C_6  and  O_7 
REMARK    3  A    between atoms: O_7  and  C_8 
REMARK    4  A    between atoms: C_8  and  C_9 
REMARK       I    between atoms: C_9  and  N_10 
REMARK    5  A    between atoms: N_10  and  N_11 
REMARK       I    between atoms: N_11  and  C_12 
REMARK    6  A    between atoms: C_12  and  C_13 
REMARK    7  A    between atoms: C_16  and  N_17 
ROOT
HETATM    1  N   UNL     1      42.877 -13.536   6.669  1.00  0.00    -0.263 N 
HETATM    2  C   UNL     1      43.857 -14.466   6.969  1.00  0.00     0.270 C 
HETATM    3  O   UNL     1      44.753 -14.265   7.783  1.00  0.00    -0.266 OA
HETATM    4  H   UNL     1      42.331 -13.612   5.818  1.00  0.00     0.190 HD
ENDROOT
BRANCH   1   5
HETATM    5  N   UNL     1      42.977 -12.269   7.257  1.00  0.00    -0.265 N 
HETATM    6  C   UNL     1      42.020 -11.297   7.069  1.00  0.00     0.260 C 
HETATM    7  O   UNL     1      42.030 -10.275   7.757  1.00  0.00    -0.269 OA
HETATM    8  H   UNL     1      43.484 -12.220   8.140  1.00  0.00     0.190 HD
BRANCH   6   9
HETATM    9  C   UNL     1      41.017 -11.499   5.940  1.00  0.00     0.280 C 
BRANCH   9  10
HETATM   10  O   UNL     1      41.701 -11.426   4.696  1.00  0.00    -0.342 OA
BRANCH  10  11
HETATM   11  C   UNL     1      41.525 -12.452   3.815  1.00  0.00     0.069 A 
HETATM   12  C   UNL     1      40.342 -13.170   3.996  1.00  0.00     0.037 A 
HETATM   13  C   UNL     1      40.030 -14.250   3.169  1.00  0.00     0.010 A 
HETATM   14  C   UNL     1      40.908 -14.633   2.150  1.00  0.00    -0.058 A 
HETATM   15  C   UNL     1      42.092 -13.907   1.967  1.00  0.00     0.010 A 
HETATM   16  C   UNL     1      42.400 -12.822   2.796  1.00  0.00     0.037 A 
BRANCH  14  17
HETATM   17  C   UNL     1      40.564 -15.783   1.238  1.00  0.00     0.034 C 
HETATM   18  C   UNL     1      40.256 -17.051   2.018  1.00  0.00     0.010 C 
ENDBRANCH  14  17
ENDBRANCH  10  11
ENDBRANCH   9  10
ENDBRANCH   6   9
ENDBRANCH   1   5
BRANCH   2  19
HETATM   19  C   UNL     1      43.826 -15.715   6.162  1.00  0.00     0.033 A 
HETATM   20  C   UNL     1      44.563 -16.811   6.613  1.00  0.00     0.019 A 
HETATM   21  C   UNL     1      44.624 -17.977   5.846  1.00  0.00     0.032 A 
HETATM   22  C   UNL     1      43.950 -18.072   4.612  1.00  0.00     0.058 A 
HETATM   23  C   UNL     1      43.163 -16.991   4.200  1.00  0.00     0.032 A 
HETATM   24  C   UNL     1      43.101 -15.817   4.970  1.00  0.00     0.019 A 
BRANCH  22  25
HETATM   25  N   UNL     1      44.094 -19.277   3.848  1.00  0.00    -0.238 N 
HETATM   26  N   UNL     1      44.463 -20.416   4.501  1.00  0.00    -0.172 NA
HETATM   27  C   UNL     1      44.477 -21.379   3.583  1.00  0.00     0.053 A 
HETATM   28  C   UNL     1      44.827 -22.770   3.954  1.00  0.00     0.072 C 
HETATM   29  C   UNL     1      44.163 -20.879   2.311  1.00  0.00     0.055 A 
HETATM   30  C   UNL     1      43.957 -19.524   2.482  1.00  0.00     0.035 A 
HETATM   31  C   UNL     1      43.704 -18.523   1.417  1.00  0.00     0.070 C 
ENDBRANCH  22  25
ENDBRANCH   2  19
TORSDOF 7
ENDMDL
MODEL 9
REMARK VINA RESULT:      -7.2      2.464      4.245
REMARK  7 active torsions:
REMARK  status: ('A' for Active; 'I' for Inactive)
REMARK    1  A    between atoms: C_2  and  C_3 
REMARK    2  A    between atoms: C_6  and  O_7 
REMARK    3  A    between atoms: O_7  and  C_8 
REMARK    4  A    between atoms: C_8  and  C_9 
REMARK       I    between atoms: C_9  and  N_10 
REMARK    5  A    between atoms: N_10  and  N_11 
REMARK       I    between atoms: N_11  and  C_12 
REMARK    6  A    between atoms: C_12  and  C_13 
REMARK    7  A    between atoms: C_16  and  N_17 
ROOT
HETATM    1  N   UNL     1      39.822 -15.069   0.301  1.00  0.00    -0.263 N 
HETATM    2  C   UNL     1      40.951 -15.701  -0.190  1.00  0.00     0.270 C 
HETATM    3  O   UNL     1      41.287 -15.664  -1.369  1.00  0.00    -0.266 OA
HETATM    4  H   UNL     1      39.422 -15.338   1.194  1.00  0.00     0.190 HD
ENDROOT
BRANCH   1   5
HETATM    5  N   UNL     1      38.973 -14.442  -0.618  1.00  0.00    -0.265 N 
HETATM    6  C   UNL     1      38.567 -13.134  -0.466  1.00  0.00     0.260 C 
HETATM    7  O   UNL     1      37.993 -12.551  -1.387  1.00  0.00    -0.269 OA
HETATM    8  H   UNL     1      39.024 -14.774  -1.580  1.00  0.00     0.190 HD
BRANCH   6   9
HETATM    9  C   UNL     1      38.778 -12.481   0.895  1.00  0.00     0.280 C 
BRANCH   9  10
HETATM   10  O   UNL     1      40.150 -12.138   1.034  1.00  0.00    -0.342 OA
BRANCH  10  11
HETATM   11  C   UNL     1      40.856 -12.743   2.032  1.00  0.00     0.069 A 
HETATM   12  C   UNL     1      40.087 -13.119   3.134  1.00  0.00     0.037 A 
HETATM   13  C   UNL     1      40.675 -13.746   4.234  1.00  0.00     0.010 A 
HETATM   14  C   UNL     1      42.052 -13.998   4.248  1.00  0.00    -0.058 A 
HETATM   15  C   UNL     1      42.819 -13.625   3.136  1.00  0.00     0.010 A 
HETATM   16  C   UNL     1      42.225 -13.000   2.034  1.00  0.00     0.037 A 
BRANCH  14  17
HETATM   17  C   UNL     1      42.687 -14.698   5.421  1.00  0.00     0.034 C 
HETATM   18  C   UNL     1      44.015 -14.063   5.806  1.00  0.00     0.010 C 
ENDBRANCH  14  17
ENDBRANCH  10  11
ENDBRANCH   9  10
ENDBRANCH   6   9
ENDBRANCH   1   5
BRANCH   2  19
HETATM   19  C   UNL     1      41.702 -16.528   0.791  1.00  0.00     0.033 A 
HETATM   20  C   UNL     1      41.093 -16.820   2.013  1.00  0.00     0.019 A 
HETATM   21  C   UNL     1      41.793 -17.528   2.993  1.00  0.00     0.032 A 
HETATM   22  C   UNL     1      43.115 -17.960   2.773  1.00  0.00     0.058 A 
HETATM   23  C   UNL     1      43.694 -17.717   1.522  1.00  0.00     0.032 A 
HETATM   24  C   UNL     1      42.992 -17.005   0.536  1.00  0.00     0.019 A 
BRANCH  22  25
HETATM   25  N   UNL     1      43.797 -18.636   3.838  1.00  0.00    -0.238 N 
HETATM   26  N   UNL     1      44.003 -17.961   5.005  1.00  0.00    -0.172 NA
HETATM   27  C   UNL     1      44.602 -18.819   5.827  1.00  0.00     0.053 A 
HETATM   28  C   UNL     1      44.964 -18.416   7.206  1.00  0.00     0.072 C 
HETATM   29  C   UNL     1      44.840 -20.050   5.198  1.00  0.00     0.055 A 
HETATM   30  C   UNL     1      44.355 -19.913   3.911  1.00  0.00     0.035 A 
HETATM   31  C   UNL     1      44.465 -20.901   2.811  1.00  0.00     0.070 C 
ENDBRANCH  22  25
ENDBRANCH   2  19
TORSDOF 7
ENDMDL
MODEL 10
REMARK VINA RESULT:      -7.1      1.598      2.141
REMARK  7 active torsions:
REMARK  status: ('A' for Active; 'I' for Inactive)
REMARK    1  A    between atoms: C_2  and  C_3 
REMARK    2  A    between atoms: C_6  and  O_7 
REMARK    3  A    between atoms: O_7  and  C_8 
REMARK    4  A    between atoms: C_8  and  C_9 
REMARK       I    between atoms: C_9  and  N_10 
REMARK    5  A    between atoms: N_10  and  N_11 
REMARK       I    between atoms: N_11  and  C_12 
REMARK    6  A    between atoms: C_12  and  C_13 
REMARK    7  A    between atoms: C_16  and  N_17 
ROOT
HETATM    1  N   UNL     1      39.553 -12.940   3.842  1.00  0.00    -0.263 N 
HETATM    2  C   UNL     1      40.933 -12.920   3.950  1.00  0.00     0.270 C 
HETATM    3  O   UNL     1      41.622 -11.956   3.634  1.00  0.00    -0.266 OA
HETATM    4  H   UNL     1      39.044 -13.817   3.842  1.00  0.00     0.190 HD
ENDROOT
BRANCH   1   5
HETATM    5  N   UNL     1      38.929 -11.836   3.250  1.00  0.00    -0.265 N 
HETATM    6  C   UNL     1      38.102 -11.962   2.155  1.00  0.00     0.260 C 
HETATM    7  O   UNL     1      37.411 -11.010   1.787  1.00  0.00    -0.269 OA
HETATM    8  H   UNL     1      38.723 -11.050   3.866  1.00  0.00     0.190 HD
BRANCH   6   9
HETATM    9  C   UNL     1      38.142 -13.276   1.385  1.00  0.00     0.280 C 
BRANCH   9  10
HETATM   10  O   UNL     1      39.375 -13.362   0.682  1.00  0.00    -0.342 OA
BRANCH  10  11
HETATM   11  C   UNL     1      40.148 -14.465   0.893  1.00  0.00     0.069 A 
HETATM   12  C   UNL     1      39.527 -15.470   1.637  1.00  0.00     0.037 A 
HETATM   13  C   UNL     1      40.199 -16.657   1.933  1.00  0.00     0.010 A 
HETATM   14  C   UNL     1      41.513 -16.850   1.494  1.00  0.00    -0.058 A 
HETATM   15  C   UNL     1      42.131 -15.843   0.741  1.00  0.00     0.010 A 
HETATM   16  C   UNL     1      41.453 -14.655   0.443  1.00  0.00     0.037 A 
BRANCH  14  17
HETATM   17  C   UNL     1      42.235 -18.140   1.789  1.00  0.00     0.034 C 
HETATM   18  C   UNL     1      43.706 -18.064   1.413  1.00  0.00     0.010 C 
ENDBRANCH  14  17
ENDBRANCH  10  11
ENDBRANCH   9  10
ENDBRANCH   6   9
ENDBRANCH   1   5
BRANCH   2  19
HETATM   19  C   UNL     1      41.561 -14.195   4.387  1.00  0.00     0.033 A 
HETATM   20  C   UNL     1      40.807 -15.068   5.173  1.00  0.00     0.019 A 
HETATM   21  C   UNL     1      41.384 -16.239   5.670  1.00  0.00     0.032 A 
HETATM   22  C   UNL     1      42.726 -16.563   5.390  1.00  0.00     0.058 A 
HETATM   23  C   UNL     1      43.454 -15.714   4.549  1.00  0.00     0.032 A 
HETATM   24  C   UNL     1      42.876 -14.536   4.050  1.00  0.00     0.019 A 
BRANCH  22  25
HETATM   25  N   UNL     1      43.275 -17.754   5.973  1.00  0.00    -0.238 N 
HETATM   26  N   UNL     1      43.516 -18.820   5.157  1.00  0.00    -0.172 NA
HETATM   27  C   UNL     1      44.059 -19.759   5.928  1.00  0.00     0.053 A 
HETATM   28  C   UNL     1      44.464 -21.064   5.355  1.00  0.00     0.072 C 
HETATM   29  C   UNL     1      44.141 -19.341   7.264  1.00  0.00     0.055 A 
HETATM   30  C   UNL     1      43.601 -18.069   7.292  1.00  0.00     0.035 A 
HETATM   31  C   UNL     1      43.358 -17.234   8.493  1.00  0.00     0.070 C 
ENDBRANCH  22  25
ENDBRANCH   2  19
TORSDOF 7
ENDMDL
