MODEL 1
REMARK VINA RESULT:      -9.9      0.000      0.000
REMARK  2 active torsions:
REMARK  status: ('A' for Active; 'I' for Inactive)
REMARK    1  A    between atoms: O_1  and  C_2 
REMARK    2  A    between atoms: C_24  and  C_25 
ROOT
HETATM    1  C   UNL     1      41.765 -12.635   1.725  1.00  0.00     0.066 A 
HETATM    2  C   UNL     1      41.524 -13.022   0.413  1.00  0.00     0.039 A 
HETATM    3  C   UNL     1      41.755 -14.341   0.014  1.00  0.00     0.033 A 
HETATM    4  C   UNL     1      42.233 -15.245   0.974  1.00  0.00     0.044 A 
HETATM    5  N   UNL     1      42.536 -16.596   0.829  1.00  0.00    -0.353 N 
HETATM    6  H   UNL     1      42.443 -17.109  -0.035  1.00  0.00     0.166 HD
HETATM    7  C   UNL     1      42.971 -17.097   2.017  1.00  0.00     0.073 A 
HETATM    8  C   UNL     1      43.386 -18.353   2.393  1.00  0.00     0.072 A 
HETATM    9  N   UNL     1      43.510 -19.533   1.721  1.00  0.00    -0.353 N 
HETATM   10  H   UNL     1      43.298 -19.688   0.746  1.00  0.00     0.166 HD
HETATM   11  C   UNL     1      43.983 -20.517   2.589  1.00  0.00     0.043 A 
HETATM   12  C   UNL     1      44.259 -21.867   2.332  1.00  0.00     0.030 A 
HETATM   13  C   UNL     1      44.730 -22.648   3.390  1.00  0.00     0.002 A 
HETATM   14  C   UNL     1      44.920 -22.104   4.657  1.00  0.00     0.001 A 
HETATM   15  C   UNL     1      44.643 -20.754   4.908  1.00  0.00     0.014 A 
HETATM   16  C   UNL     1      44.167 -19.940   3.863  1.00  0.00     0.004 A 
HETATM   17  C   UNL     1      43.782 -18.619   3.663  1.00  0.00     0.014 A 
HETATM   18  C   UNL     1      43.766 -17.579   4.617  1.00  0.00    -0.010 A 
HETATM   19  C   UNL     1      44.145 -17.629   6.034  1.00  0.00     0.163 A 
HETATM   20  N   UNL     1      43.893 -16.254   6.404  1.00  0.00    -0.353 N 
HETATM   21  C   UNL     1      43.421 -15.420   5.395  1.00  0.00     0.253 A 
HETATM   22  O   UNL     1      43.179 -14.240   5.613  1.00  0.00    -0.268 OA
HETATM   23  C   UNL     1      43.337 -16.272   4.240  1.00  0.00     0.054 A 
HETATM   24  C   UNL     1      42.934 -16.056   2.894  1.00  0.00     0.022 A 
HETATM   25  C   UNL     1      42.484 -14.871   2.313  1.00  0.00     0.007 A 
HETATM   26  C   UNL     1      42.241 -13.534   2.682  1.00  0.00     0.051 A 
HETATM   27  H   UNL     1      44.036 -15.874   7.327  1.00  0.00     0.163 HD
ENDROOT
BRANCH   1  28
HETATM   28  O   UNL     1      41.544 -11.348   2.127  1.00  0.00    -0.361 OA
HETATM   29  H   UNL     1      40.637 -11.279   2.468  1.00  0.00     0.217 HD
ENDBRANCH   1  28
TORSDOF 2
ENDMDL
MODEL 2
REMARK VINA RESULT:      -9.8      2.084      6.546
REMARK  2 active torsions:
REMARK  status: ('A' for Active; 'I' for Inactive)
REMARK    1  A    between atoms: O_1  and  C_2 
REMARK    2  A    between atoms: C_24  and  C_25 
ROOT
HETATM    1  C   UNL     1      44.970 -22.190   4.411  1.00  0.00     0.066 A 
HETATM    2  C   UNL     1      44.721 -22.651   3.125  1.00  0.00     0.039 A 
HETATM    3  C   UNL     1      44.216 -21.786   2.151  1.00  0.00     0.033 A 
HETATM    4  C   UNL     1      43.973 -20.454   2.516  1.00  0.00     0.044 A 
HETATM    5  N   UNL     1      43.479 -19.410   1.739  1.00  0.00    -0.353 N 
HETATM    6  H   UNL     1      43.223 -19.498   0.768  1.00  0.00     0.166 HD
HETATM    7  C   UNL     1      43.398 -18.278   2.491  1.00  0.00     0.073 A 
HETATM    8  C   UNL     1      42.982 -17.002   2.197  1.00  0.00     0.072 A 
HETATM    9  N   UNL     1      42.504 -16.416   1.061  1.00  0.00    -0.353 N 
HETATM   10  H   UNL     1      42.366 -16.870   0.171  1.00  0.00     0.166 HD
HETATM   11  C   UNL     1      42.225 -15.073   1.310  1.00  0.00     0.043 A 
HETATM   12  C   UNL     1      41.721 -14.096   0.441  1.00  0.00     0.030 A 
HETATM   13  C   UNL     1      41.531 -12.808   0.948  1.00  0.00     0.002 A 
HETATM   14  C   UNL     1      41.832 -12.505   2.273  1.00  0.00     0.001 A 
HETATM   15  C   UNL     1      42.335 -13.485   3.138  1.00  0.00     0.014 A 
HETATM   16  C   UNL     1      42.538 -14.793   2.657  1.00  0.00     0.004 A 
HETATM   17  C   UNL     1      42.993 -16.018   3.131  1.00  0.00     0.014 A 
HETATM   18  C   UNL     1      43.444 -16.318   4.434  1.00  0.00    -0.010 A 
HETATM   19  C   UNL     1      43.545 -15.426   5.597  1.00  0.00     0.163 A 
HETATM   20  N   UNL     1      44.068 -16.357   6.573  1.00  0.00    -0.353 N 
HETATM   21  C   UNL     1      44.281 -17.659   6.133  1.00  0.00     0.253 A 
HETATM   22  O   UNL     1      44.721 -18.516   6.888  1.00  0.00    -0.268 OA
HETATM   23  C   UNL     1      43.880 -17.638   4.753  1.00  0.00     0.054 A 
HETATM   24  C   UNL     1      43.845 -18.625   3.730  1.00  0.00     0.022 A 
HETATM   25  C   UNL     1      44.219 -19.965   3.819  1.00  0.00     0.007 A 
HETATM   26  C   UNL     1      44.728 -20.863   4.776  1.00  0.00     0.051 A 
HETATM   27  H   UNL     1      44.280 -16.121   7.531  1.00  0.00     0.163 HD
ENDROOT
BRANCH   1  28
HETATM   28  O   UNL     1      45.463 -23.026   5.372  1.00  0.00    -0.361 OA
HETATM   29  H   UNL     1      44.921 -22.936   6.172  1.00  0.00     0.217 HD
ENDBRANCH   1  28
TORSDOF 2
ENDMDL
MODEL 3
REMARK VINA RESULT:      -9.7      2.572      4.243
REMARK  2 active torsions:
REMARK  status: ('A' for Active; 'I' for Inactive)
REMARK    1  A    between atoms: O_1  and  C_2 
REMARK    2  A    between atoms: C_24  and  C_25 
ROOT
HETATM    1  C   UNL     1      38.907 -11.930   4.754  1.00  0.00     0.066 A 
HETATM    2  C   UNL     1      39.378 -11.790   6.052  1.00  0.00     0.039 A 
HETATM    3  C   UNL     1      40.296 -12.706   6.572  1.00  0.00     0.033 A 
HETATM    4  C   UNL     1      40.717 -13.757   5.744  1.00  0.00     0.044 A 
HETATM    5  N   UNL     1      41.613 -14.784   6.023  1.00  0.00    -0.353 N 
HETATM    6  H   UNL     1      42.090 -14.898   6.904  1.00  0.00     0.166 HD
HETATM    7  C   UNL     1      41.736 -15.592   4.934  1.00  0.00     0.073 A 
HETATM    8  C   UNL     1      42.483 -16.723   4.703  1.00  0.00     0.072 A 
HETATM    9  N   UNL     1      43.358 -17.434   5.470  1.00  0.00    -0.353 N 
HETATM   10  H   UNL     1      43.622 -17.224   6.421  1.00  0.00     0.166 HD
HETATM   11  C   UNL     1      43.847 -18.517   4.739  1.00  0.00     0.043 A 
HETATM   12  C   UNL     1      44.761 -19.506   5.125  1.00  0.00     0.030 A 
HETATM   13  C   UNL     1      45.087 -20.492   4.190  1.00  0.00     0.002 A 
HETATM   14  C   UNL     1      44.522 -20.492   2.917  1.00  0.00     0.001 A 
HETATM   15  C   UNL     1      43.609 -19.500   2.537  1.00  0.00     0.014 A 
HETATM   16  C   UNL     1      43.260 -18.492   3.456  1.00  0.00     0.004 A 
HETATM   17  C   UNL     1      42.441 -17.370   3.512  1.00  0.00     0.014 A 
HETATM   18  C   UNL     1      41.608 -16.867   2.489  1.00  0.00    -0.010 A 
HETATM   19  C   UNL     1      41.402 -17.393   1.134  1.00  0.00     0.163 A 
HETATM   20  N   UNL     1      40.452 -16.422   0.637  1.00  0.00    -0.353 N 
HETATM   21  C   UNL     1      40.084 -15.411   1.519  1.00  0.00     0.253 A 
HETATM   22  O   UNL     1      39.286 -14.544   1.188  1.00  0.00    -0.268 OA
HETATM   23  C   UNL     1      40.829 -15.694   2.715  1.00  0.00     0.054 A 
HETATM   24  C   UNL     1      40.917 -15.061   3.985  1.00  0.00     0.022 A 
HETATM   25  C   UNL     1      40.250 -13.916   4.420  1.00  0.00     0.007 A 
HETATM   26  C   UNL     1      39.325 -12.976   3.928  1.00  0.00     0.051 A 
HETATM   27  H   UNL     1      40.051 -16.435  -0.289  1.00  0.00     0.163 HD
ENDROOT
BRANCH   1  28
HETATM   28  O   UNL     1      38.008 -11.040   4.234  1.00  0.00    -0.361 OA
HETATM   29  H   UNL     1      38.092 -11.041   3.267  1.00  0.00     0.217 HD
ENDBRANCH   1  28
TORSDOF 2
ENDMDL
MODEL 4
REMARK VINA RESULT:      -9.6      2.496      6.581
REMARK  2 active torsions:
REMARK  status: ('A' for Active; 'I' for Inactive)
REMARK    1  A    between atoms: O_1  and  C_2 
REMARK    2  A    between atoms: C_24  and  C_25 
ROOT
HETATM    1  C   UNL     1      44.659 -20.625   3.930  1.00  0.00     0.066 A 
HETATM    2  C   UNL     1      44.347 -21.149   2.683  1.00  0.00     0.039 A 
HETATM    3  C   UNL     1      43.474 -20.468   1.830  1.00  0.00     0.033 A 
HETATM    4  C   UNL     1      42.933 -19.254   2.276  1.00  0.00     0.044 A 
HETATM    5  N   UNL     1      42.052 -18.397   1.623  1.00  0.00    -0.353 N 
HETATM    6  H   UNL     1      41.679 -18.562   0.701  1.00  0.00     0.166 HD
HETATM    7  C   UNL     1      41.782 -17.325   2.418  1.00  0.00     0.073 A 
HETATM    8  C   UNL     1      40.987 -16.219   2.238  1.00  0.00     0.072 A 
HETATM    9  N   UNL     1      40.191 -15.800   1.211  1.00  0.00    -0.353 N 
HETATM   10  H   UNL     1      40.045 -16.283   0.337  1.00  0.00     0.166 HD
HETATM   11  C   UNL     1      39.595 -14.586   1.548  1.00  0.00     0.043 A 
HETATM   12  C   UNL     1      38.709 -13.797   0.802  1.00  0.00     0.030 A 
HETATM   13  C   UNL     1      38.252 -12.608   1.378  1.00  0.00     0.002 A 
HETATM   14  C   UNL     1      38.664 -12.220   2.650  1.00  0.00     0.001 A 
HETATM   15  C   UNL     1      39.551 -13.013   3.392  1.00  0.00     0.014 A 
HETATM   16  C   UNL     1      40.029 -14.217   2.839  1.00  0.00     0.004 A 
HETATM   17  C   UNL     1      40.874 -15.262   3.192  1.00  0.00     0.014 A 
HETATM   18  C   UNL     1      41.592 -15.412   4.399  1.00  0.00    -0.010 A 
HETATM   19  C   UNL     1      41.626 -14.517   5.562  1.00  0.00     0.163 A 
HETATM   20  N   UNL     1      42.534 -15.255   6.412  1.00  0.00    -0.353 N 
HETATM   21  C   UNL     1      43.026 -16.450   5.898  1.00  0.00     0.253 A 
HETATM   22  O   UNL     1      43.801 -17.143   6.545  1.00  0.00    -0.268 OA
HETATM   23  C   UNL     1      42.422 -16.555   4.598  1.00  0.00     0.054 A 
HETATM   24  C   UNL     1      42.498 -17.522   3.560  1.00  0.00     0.022 A 
HETATM   25  C   UNL     1      43.238 -18.704   3.541  1.00  0.00     0.007 A 
HETATM   26  C   UNL     1      44.121 -19.415   4.376  1.00  0.00     0.051 A 
HETATM   27  H   UNL     1      42.823 -14.960   7.333  1.00  0.00     0.163 HD
ENDROOT
BRANCH   1  28
HETATM   28  O   UNL     1      45.512 -21.281   4.773  1.00  0.00    -0.361 OA
HETATM   29  H   UNL     1      45.245 -21.102   5.689  1.00  0.00     0.217 HD
ENDBRANCH   1  28
TORSDOF 2
ENDMDL
MODEL 5
REMARK VINA RESULT:      -9.5      2.030      2.475
REMARK  2 active torsions:
REMARK  status: ('A' for Active; 'I' for Inactive)
REMARK    1  A    between atoms: O_1  and  C_2 
REMARK    2  A    between atoms: C_24  and  C_25 
ROOT
HETATM    1  C   UNL     1      39.522 -13.445  -0.587  1.00  0.00     0.066 A 
HETATM    2  C   UNL     1      40.093 -13.954  -1.746  1.00  0.00     0.039 A 
HETATM    3  C   UNL     1      40.979 -15.032  -1.682  1.00  0.00     0.033 A 
HETATM    4  C   UNL     1      41.267 -15.573  -0.420  1.00  0.00     0.044 A 
HETATM    5  N   UNL     1      42.105 -16.635  -0.094  1.00  0.00    -0.353 N 
HETATM    6  H   UNL     1      42.634 -17.168  -0.768  1.00  0.00     0.166 HD
HETATM    7  C   UNL     1      42.094 -16.829   1.253  1.00  0.00     0.073 A 
HETATM    8  C   UNL     1      42.741 -17.735   2.061  1.00  0.00     0.072 A 
HETATM    9  N   UNL     1      43.616 -18.751   1.807  1.00  0.00    -0.353 N 
HETATM   10  H   UNL     1      43.961 -19.026   0.900  1.00  0.00     0.166 HD
HETATM   11  C   UNL     1      43.974 -19.368   3.005  1.00  0.00     0.043 A 
HETATM   12  C   UNL     1      44.841 -20.447   3.221  1.00  0.00     0.030 A 
HETATM   13  C   UNL     1      45.030 -20.879   4.537  1.00  0.00     0.002 A 
HETATM   14  C   UNL     1      44.377 -20.257   5.598  1.00  0.00     0.001 A 
HETATM   15  C   UNL     1      43.511 -19.178   5.377  1.00  0.00     0.014 A 
HETATM   16  C   UNL     1      43.300 -18.720   4.062  1.00  0.00     0.004 A 
HETATM   17  C   UNL     1      42.569 -17.736   3.406  1.00  0.00     0.014 A 
HETATM   18  C   UNL     1      41.705 -16.783   3.986  1.00  0.00    -0.010 A 
HETATM   19  C   UNL     1      41.366 -16.594   5.402  1.00  0.00     0.163 A 
HETATM   20  N   UNL     1      40.455 -15.477   5.288  1.00  0.00    -0.353 N 
HETATM   21  C   UNL     1      40.222 -14.998   4.004  1.00  0.00     0.253 A 
HETATM   22  O   UNL     1      39.466 -14.055   3.808  1.00  0.00    -0.268 OA
HETATM   23  C   UNL     1      41.027 -15.838   3.159  1.00  0.00     0.054 A 
HETATM   24  C   UNL     1      41.248 -15.888   1.756  1.00  0.00     0.022 A 
HETATM   25  C   UNL     1      40.697 -15.070   0.771  1.00  0.00     0.007 A 
HETATM   26  C   UNL     1      39.808 -13.983   0.671  1.00  0.00     0.051 A 
HETATM   27  H   UNL     1      39.990 -15.036   6.068  1.00  0.00     0.163 HD
ENDROOT
BRANCH   1  28
HETATM   28  O   UNL     1      38.655 -12.391  -0.637  1.00  0.00    -0.361 OA
HETATM   29  H   UNL     1      38.465 -12.100   0.270  1.00  0.00     0.217 HD
ENDBRANCH   1  28
TORSDOF 2
ENDMDL
MODEL 6
REMARK VINA RESULT:      -9.4      2.324      6.607
REMARK  2 active torsions:
REMARK  status: ('A' for Active; 'I' for Inactive)
REMARK    1  A    between atoms: O_1  and  C_2 
REMARK    2  A    between atoms: C_24  and  C_25 
ROOT
HETATM    1  C   UNL     1      44.170 -19.813   5.065  1.00  0.00     0.066 A 
HETATM    2  C   UNL     1      44.850 -20.411   4.013  1.00  0.00     0.039 A 
HETATM    3  C   UNL     1      44.655 -19.966   2.703  1.00  0.00     0.033 A 
HETATM    4  C   UNL     1      43.759 -18.908   2.495  1.00  0.00     0.044 A 
HETATM    5  N   UNL     1      43.397 -18.291   1.301  1.00  0.00    -0.353 N 
HETATM    6  H   UNL     1      43.759 -18.550   0.396  1.00  0.00     0.166 HD
HETATM    7  C   UNL     1      42.494 -17.304   1.552  1.00  0.00     0.073 A 
HETATM    8  C   UNL     1      41.841 -16.418   0.728  1.00  0.00     0.072 A 
HETATM    9  N   UNL     1      41.862 -16.211  -0.621  1.00  0.00    -0.353 N 
HETATM   10  H   UNL     1      42.412 -16.725  -1.293  1.00  0.00     0.166 HD
HETATM   11  C   UNL     1      40.996 -15.168  -0.947  1.00  0.00     0.043 A 
HETATM   12  C   UNL     1      40.703 -14.619  -2.203  1.00  0.00     0.030 A 
HETATM   13  C   UNL     1      39.787 -13.565  -2.255  1.00  0.00     0.002 A 
HETATM   14  C   UNL     1      39.186 -13.075  -1.098  1.00  0.00     0.001 A 
HETATM   15  C   UNL     1      39.483 -13.628   0.155  1.00  0.00     0.014 A 
HETATM   16  C   UNL     1      40.402 -14.691   0.241  1.00  0.00     0.004 A 
HETATM   17  C   UNL     1      40.967 -15.503   1.217  1.00  0.00     0.014 A 
HETATM   18  C   UNL     1      40.725 -15.465   2.608  1.00  0.00    -0.010 A 
HETATM   19  C   UNL     1      39.832 -14.574   3.358  1.00  0.00     0.163 A 
HETATM   20  N   UNL     1      40.065 -15.067   4.698  1.00  0.00    -0.353 N 
HETATM   21  C   UNL     1      40.967 -16.118   4.821  1.00  0.00     0.253 A 
HETATM   22  O   UNL     1      41.227 -16.602   5.915  1.00  0.00    -0.268 OA
HETATM   23  C   UNL     1      41.397 -16.378   3.474  1.00  0.00     0.054 A 
HETATM   24  C   UNL     1      42.301 -17.312   2.900  1.00  0.00     0.022 A 
HETATM   25  C   UNL     1      43.057 -18.286   3.551  1.00  0.00     0.007 A 
HETATM   26  C   UNL     1      43.276 -18.759   4.859  1.00  0.00     0.051 A 
HETATM   27  H   UNL     1      39.620 -14.702   5.527  1.00  0.00     0.163 HD
ENDROOT
BRANCH   1  28
HETATM   28  O   UNL     1      44.352 -20.240   6.350  1.00  0.00    -0.361 OA
HETATM   29  H   UNL     1      45.280 -20.502   6.464  1.00  0.00     0.217 HD
ENDBRANCH   1  28
TORSDOF 2
ENDMDL
MODEL 7
REMARK VINA RESULT:      -9.4      1.548      3.493
REMARK  2 active torsions:
REMARK  status: ('A' for Active; 'I' for Inactive)
REMARK    1  A    between atoms: O_1  and  C_2 
REMARK    2  A    between atoms: C_24  and  C_25 
ROOT
HETATM    1  C   UNL     1      41.796 -12.133   4.224  1.00  0.00     0.066 A 
HETATM    2  C   UNL     1      41.929 -12.124   5.606  1.00  0.00     0.039 A 
HETATM    3  C   UNL     1      42.342 -13.275   6.282  1.00  0.00     0.033 A 
HETATM    4  C   UNL     1      42.612 -14.423   5.522  1.00  0.00     0.044 A 
HETATM    5  N   UNL     1      43.034 -15.677   5.953  1.00  0.00    -0.353 N 
HETATM    6  H   UNL     1      43.201 -15.919   6.918  1.00  0.00     0.166 HD
HETATM    7  C   UNL     1      43.177 -16.505   4.882  1.00  0.00     0.073 A 
HETATM    8  C   UNL     1      43.563 -17.820   4.775  1.00  0.00     0.072 A 
HETATM    9  N   UNL     1      43.936 -18.758   5.693  1.00  0.00    -0.353 N 
HETATM   10  H   UNL     1      43.994 -18.624   6.691  1.00  0.00     0.166 HD
HETATM   11  C   UNL     1      44.233 -19.955   5.042  1.00  0.00     0.043 A 
HETATM   12  C   UNL     1      44.654 -21.177   5.583  1.00  0.00     0.030 A 
HETATM   13  C   UNL     1      44.886 -22.235   4.700  1.00  0.00     0.002 A 
HETATM   14  C   UNL     1      44.705 -22.081   3.328  1.00  0.00     0.001 A 
HETATM   15  C   UNL     1      44.283 -20.857   2.793  1.00  0.00     0.014 A 
HETATM   16  C   UNL     1      44.041 -19.771   3.656  1.00  0.00     0.004 A 
HETATM   17  C   UNL     1      43.633 -18.445   3.574  1.00  0.00     0.014 A 
HETATM   18  C   UNL     1      43.300 -17.723   2.407  1.00  0.00    -0.010 A 
HETATM   19  C   UNL     1      43.301 -18.183   1.013  1.00  0.00     0.163 A 
HETATM   20  N   UNL     1      42.870 -16.969   0.355  1.00  0.00    -0.353 N 
HETATM   21  C   UNL     1      42.622 -15.876   1.177  1.00  0.00     0.253 A 
HETATM   22  O   UNL     1      42.253 -14.806   0.711  1.00  0.00    -0.268 OA
HETATM   23  C   UNL     1      42.898 -16.357   2.503  1.00  0.00     0.054 A 
HETATM   24  C   UNL     1      42.845 -15.759   3.792  1.00  0.00     0.022 A 
HETATM   25  C   UNL     1      42.483 -14.452   4.116  1.00  0.00     0.007 A 
HETATM   26  C   UNL     1      42.064 -13.276   3.466  1.00  0.00     0.051 A 
HETATM   27  H   UNL     1      42.743 -16.873  -0.641  1.00  0.00     0.163 HD
ENDROOT
BRANCH   1  28
HETATM   28  O   UNL     1      41.392 -11.014   3.552  1.00  0.00    -0.361 OA
HETATM   29  H   UNL     1      41.026 -11.281   2.693  1.00  0.00     0.217 HD
ENDBRANCH   1  28
TORSDOF 2
ENDMDL
MODEL 8
REMARK VINA RESULT:      -9.3      1.916      3.735
REMARK  2 active torsions:
REMARK  status: ('A' for Active; 'I' for Inactive)
REMARK    1  A    between atoms: O_1  and  C_2 
REMARK    2  A    between atoms: C_24  and  C_25 
ROOT
HETATM    1  C   UNL     1      41.276 -12.045   5.077  1.00  0.00     0.066 A 
HETATM    2  C   UNL     1      42.119 -12.091   6.180  1.00  0.00     0.039 A 
HETATM    3  C   UNL     1      42.893 -13.227   6.430  1.00  0.00     0.033 A 
HETATM    4  C   UNL     1      42.787 -14.304   5.538  1.00  0.00     0.044 A 
HETATM    5  N   UNL     1      43.444 -15.531   5.567  1.00  0.00    -0.353 N 
HETATM    6  H   UNL     1      44.109 -15.801   6.274  1.00  0.00     0.166 HD
HETATM    7  C   UNL     1      43.047 -16.287   4.507  1.00  0.00     0.073 A 
HETATM    8  C   UNL     1      43.394 -17.551   4.093  1.00  0.00     0.072 A 
HETATM    9  N   UNL     1      44.250 -18.492   4.588  1.00  0.00    -0.353 N 
HETATM   10  H   UNL     1      44.818 -18.401   5.417  1.00  0.00     0.166 HD
HETATM   11  C   UNL     1      44.227 -19.620   3.770  1.00  0.00     0.043 A 
HETATM   12  C   UNL     1      44.941 -20.820   3.895  1.00  0.00     0.030 A 
HETATM   13  C   UNL     1      44.732 -21.806   2.927  1.00  0.00     0.002 A 
HETATM   14  C   UNL     1      43.845 -21.604   1.873  1.00  0.00     0.001 A 
HETATM   15  C   UNL     1      43.134 -20.402   1.753  1.00  0.00     0.014 A 
HETATM   16  C   UNL     1      43.322 -19.389   2.713  1.00  0.00     0.004 A 
HETATM   17  C   UNL     1      42.855 -18.107   2.979  1.00  0.00     0.014 A 
HETATM   18  C   UNL     1      41.915 -17.365   2.231  1.00  0.00    -0.010 A 
HETATM   19  C   UNL     1      41.207 -17.755   1.006  1.00  0.00     0.163 A 
HETATM   20  N   UNL     1      40.424 -16.559   0.786  1.00  0.00    -0.353 N 
HETATM   21  C   UNL     1      40.584 -15.536   1.714  1.00  0.00     0.253 A 
HETATM   22  O   UNL     1      39.964 -14.486   1.611  1.00  0.00    -0.268 OA
HETATM   23  C   UNL     1      41.547 -16.052   2.649  1.00  0.00     0.054 A 
HETATM   24  C   UNL     1      42.147 -15.526   3.825  1.00  0.00     0.022 A 
HETATM   25  C   UNL     1      41.936 -14.278   4.411  1.00  0.00     0.007 A 
HETATM   26  C   UNL     1      41.170 -13.118   4.188  1.00  0.00     0.051 A 
HETATM   27  H   UNL     1      39.784 -16.428   0.017  1.00  0.00     0.163 HD
ENDROOT
BRANCH   1  28
HETATM   28  O   UNL     1      40.515 -10.940   4.822  1.00  0.00    -0.361 OA
HETATM   29  H   UNL     1      39.632 -11.228   4.539  1.00  0.00     0.217 HD
ENDBRANCH   1  28
TORSDOF 2
ENDMDL
MODEL 9
REMARK VINA RESULT:      -9.1      3.139      7.431
REMARK  2 active torsions:
REMARK  status: ('A' for Active; 'I' for Inactive)
REMARK    1  A    between atoms: O_1  and  C_2 
REMARK    2  A    between atoms: C_24  and  C_25 
ROOT
HETATM    1  C   UNL     1      44.315 -20.101   3.528  1.00  0.00     0.066 A 
HETATM    2  C   UNL     1      45.047 -19.947   4.699  1.00  0.00     0.039 A 
HETATM    3  C   UNL     1      44.845 -18.831   5.515  1.00  0.00     0.033 A 
HETATM    4  C   UNL     1      43.890 -17.886   5.112  1.00  0.00     0.044 A 
HETATM    5  N   UNL     1      43.509 -16.705   5.743  1.00  0.00    -0.353 N 
HETATM    6  H   UNL     1      43.899 -16.374   6.612  1.00  0.00     0.166 HD
HETATM    7  C   UNL     1      42.545 -16.085   5.008  1.00  0.00     0.073 A 
HETATM    8  C   UNL     1      41.852 -14.913   5.196  1.00  0.00     0.072 A 
HETATM    9  N   UNL     1      41.880 -13.960   6.172  1.00  0.00    -0.353 N 
HETATM   10  H   UNL     1      42.471 -13.964   6.990  1.00  0.00     0.166 HD
HETATM   11  C   UNL     1      40.958 -12.958   5.873  1.00  0.00     0.043 A 
HETATM   12  C   UNL     1      40.651 -11.793   6.590  1.00  0.00     0.030 A 
HETATM   13  C   UNL     1      39.674 -10.944   6.064  1.00  0.00     0.002 A 
HETATM   14  C   UNL     1      39.027 -11.243   4.868  1.00  0.00     0.001 A 
HETATM   15  C   UNL     1      39.338 -12.409   4.156  1.00  0.00     0.014 A 
HETATM   16  C   UNL     1      40.318 -13.286   4.659  1.00  0.00     0.004 A 
HETATM   17  C   UNL     1      40.917 -14.490   4.309  1.00  0.00     0.014 A 
HETATM   18  C   UNL     1      40.653 -15.277   3.167  1.00  0.00    -0.010 A 
HETATM   19  C   UNL     1      39.697 -15.026   2.082  1.00  0.00     0.163 A 
HETATM   20  N   UNL     1      39.938 -16.196   1.267  1.00  0.00    -0.353 N 
HETATM   21  C   UNL     1      40.901 -17.085   1.734  1.00  0.00     0.253 A 
HETATM   22  O   UNL     1      41.174 -18.104   1.112  1.00  0.00    -0.268 OA
HETATM   23  C   UNL     1      41.365 -16.496   2.960  1.00  0.00     0.054 A 
HETATM   24  C   UNL     1      42.332 -16.885   3.927  1.00  0.00     0.022 A 
HETATM   25  C   UNL     1      43.136 -18.024   3.926  1.00  0.00     0.007 A 
HETATM   26  C   UNL     1      43.364 -19.160   3.126  1.00  0.00     0.051 A 
HETATM   27  H   UNL     1      39.461 -16.399   0.401  1.00  0.00     0.163 HD
ENDROOT
BRANCH   1  28
HETATM   28  O   UNL     1      44.503 -21.188   2.722  1.00  0.00    -0.361 OA
HETATM   29  H   UNL     1      45.110 -20.943   2.004  1.00  0.00     0.217 HD
ENDBRANCH   1  28
TORSDOF 2
ENDMDL
MODEL 10
REMARK VINA RESULT:      -9.1      2.149      6.541
REMARK  2 active torsions:
REMARK  status: ('A' for Active; 'I' for Inactive)
REMARK    1  A    between atoms: O_1  and  C_2 
REMARK    2  A    between atoms: C_24  and  C_25 
ROOT
HETATM    1  C   UNL     1      44.858 -21.342   4.360  1.00  0.00     0.066 A 
HETATM    2  C   UNL     1      44.621 -21.701   3.039  1.00  0.00     0.039 A 
HETATM    3  C   UNL     1      44.077 -20.777   2.144  1.00  0.00     0.033 A 
HETATM    4  C   UNL     1      43.782 -19.492   2.623  1.00  0.00     0.044 A 
HETATM    5  N   UNL     1      43.242 -18.407   1.939  1.00  0.00    -0.353 N 
HETATM    6  H   UNL     1      42.985 -18.422   0.964  1.00  0.00     0.166 HD
HETATM    7  C   UNL     1      43.120 -17.348   2.786  1.00  0.00     0.073 A 
HETATM    8  C   UNL     1      42.651 -16.069   2.603  1.00  0.00     0.072 A 
HETATM    9  N   UNL     1      42.144 -15.408   1.522  1.00  0.00    -0.353 N 
HETATM   10  H   UNL     1      42.020 -15.790   0.596  1.00  0.00     0.166 HD
HETATM   11  C   UNL     1      41.813 -14.103   1.886  1.00  0.00     0.043 A 
HETATM   12  C   UNL     1      41.265 -13.077   1.104  1.00  0.00     0.030 A 
HETATM   13  C   UNL     1      41.026 -11.846   1.720  1.00  0.00     0.002 A 
HETATM   14  C   UNL     1      41.321 -11.645   3.066  1.00  0.00     0.001 A 
HETATM   15  C   UNL     1      41.869 -12.674   3.843  1.00  0.00     0.014 A 
HETATM   16  C   UNL     1      42.122 -13.927   3.251  1.00  0.00     0.004 A 
HETATM   17  C   UNL     1      42.628 -15.169   3.617  1.00  0.00     0.014 A 
HETATM   18  C   UNL     1      43.098 -15.561   4.890  1.00  0.00    -0.010 A 
HETATM   19  C   UNL     1      43.169 -14.769   6.124  1.00  0.00     0.163 A 
HETATM   20  N   UNL     1      43.734 -15.757   7.016  1.00  0.00    -0.353 N 
HETATM   21  C   UNL     1      43.997 -17.007   6.466  1.00  0.00     0.253 A 
HETATM   22  O   UNL     1      44.475 -17.907   7.143  1.00  0.00    -0.268 OA
HETATM   23  C   UNL     1      43.588 -16.884   5.093  1.00  0.00     0.054 A 
HETATM   24  C   UNL     1      43.587 -17.781   3.990  1.00  0.00     0.022 A 
HETATM   25  C   UNL     1      44.015 -19.107   3.962  1.00  0.00     0.007 A 
HETATM   26  C   UNL     1      44.565 -20.063   4.838  1.00  0.00     0.051 A 
HETATM   27  H   UNL     1      43.942 -15.596   7.990  1.00  0.00     0.163 HD
ENDROOT
BRANCH   1  28
HETATM   28  O   UNL     1      45.390 -22.237   5.245  1.00  0.00    -0.361 OA
HETATM   29  H   UNL     1      44.847 -22.241   6.049  1.00  0.00     0.217 HD
ENDBRANCH   1  28
TORSDOF 2
ENDMDL
