MODEL 1
REMARK VINA RESULT:      -8.4      0.000      0.000
REMARK  6 active torsions:
REMARK  status: ('A' for Active; 'I' for Inactive)
REMARK    1  A    between atoms: C_2  and  C_3 
REMARK    2  A    between atoms: C_8  and  C_9 
REMARK    3  A    between atoms: C_9  and  N_10 
REMARK    4  A    between atoms: C_12  and  C_13 
REMARK    5  A    between atoms: C_13  and  N_14 
REMARK       I    between atoms: N_14  and  C_15 
REMARK    6  A    between atoms: C_15  and  C_16 
ROOT
HETATM    1  N   UNL     1      41.235 -14.882   3.572  1.00  0.00    -0.061 N 
HETATM    2  H   UNL     1      41.681 -13.958   3.595  1.00  0.00     0.280 HD
HETATM    3  C   UNL     1      41.909 -15.668   2.430  1.00  0.00     0.206 C 
HETATM    4  C   UNL     1      41.735 -14.852   1.133  1.00  0.00     0.035 C 
HETATM    5  C   UNL     1      40.276 -14.538   0.831  1.00  0.00     0.004 C 
HETATM    6  C   UNL     1      39.614 -13.838   2.006  1.00  0.00     0.028 C 
HETATM    7  C   UNL     1      39.764 -14.648   3.283  1.00  0.00     0.236 C 
ENDROOT
BRANCH   1   8
HETATM    8  C   UNL     1      41.419 -15.446   4.980  1.00  0.00     0.277 C 
BRANCH   8   9
HETATM    9  C   UNL     1      42.634 -15.015   5.723  1.00  0.00     0.012 A 
HETATM   10  C   UNL     1      43.582 -15.756   6.514  1.00  0.00     0.071 A 
HETATM   11  N   UNL     1      44.553 -14.941   6.958  1.00  0.00    -0.178 NA
HETATM   12  N   UNL     1      44.216 -13.719   6.560  1.00  0.00    -0.288 N 
HETATM   13  H   UNL     1      44.811 -12.939   6.824  1.00  0.00     0.188 HD
HETATM   14  C   UNL     1      43.071 -13.705   5.829  1.00  0.00     0.120 A 
BRANCH  10  15
HETATM   15  C   UNL     1      43.712 -17.230   6.925  1.00  0.00    -0.004 C 
HETATM   16  C   UNL     1      43.469 -17.368   8.450  1.00  0.00     0.021 C 
HETATM   17  C   UNL     1      45.138 -17.733   6.608  1.00  0.00     0.021 C 
HETATM   18  C   UNL     1      42.721 -18.181   6.239  1.00  0.00     0.021 C 
ENDBRANCH  10  15
ENDBRANCH   8   9
ENDBRANCH   1   8
BRANCH   3  19
HETATM   19  C   UNL     1      43.427 -15.901   2.699  1.00  0.00     0.156 C 
BRANCH  19  20
HETATM   20  N   UNL     1      43.785 -17.273   3.021  1.00  0.00    -0.355 N 
HETATM   21  C   UNL     1      43.898 -18.218   2.017  1.00  0.00     0.251 C 
HETATM   22  O   UNL     1      43.816 -17.911   0.832  1.00  0.00    -0.268 OA
HETATM   23  H   UNL     1      43.586 -17.613   3.957  1.00  0.00     0.162 HD
BRANCH  21  24
HETATM   24  C   UNL     1      44.095 -19.634   2.429  1.00  0.00     0.032 A 
HETATM   25  C   UNL     1      44.636 -19.884   3.698  1.00  0.00     0.017 A 
HETATM   26  C   UNL     1      44.832 -21.195   4.130  1.00  0.00     0.001 A 
HETATM   27  C   UNL     1      44.481 -22.261   3.303  1.00  0.00     0.000 A 
HETATM   28  C   UNL     1      43.928 -22.018   2.046  1.00  0.00     0.001 A 
HETATM   29  C   UNL     1      43.730 -20.707   1.607  1.00  0.00     0.017 A 
ENDBRANCH  21  24
ENDBRANCH  19  20
ENDBRANCH   3  19
TORSDOF 6
ENDMDL
MODEL 2
REMARK VINA RESULT:      -8.1      1.770      4.482
REMARK  6 active torsions:
REMARK  status: ('A' for Active; 'I' for Inactive)
REMARK    1  A    between atoms: C_2  and  C_3 
REMARK    2  A    between atoms: C_8  and  C_9 
REMARK    3  A    between atoms: C_9  and  N_10 
REMARK    4  A    between atoms: C_12  and  C_13 
REMARK    5  A    between atoms: C_13  and  N_14 
REMARK       I    between atoms: N_14  and  C_15 
REMARK    6  A    between atoms: C_15  and  C_16 
ROOT
HETATM    1  N   UNL     1      42.100 -15.092   6.234  1.00  0.00    -0.061 N 
HETATM    2  H   UNL     1      41.838 -15.030   7.225  1.00  0.00     0.280 HD
HETATM    3  C   UNL     1      43.222 -16.145   6.141  1.00  0.00     0.206 C 
HETATM    4  C   UNL     1      44.367 -15.693   7.071  1.00  0.00     0.035 C 
HETATM    5  C   UNL     1      44.867 -14.292   6.744  1.00  0.00     0.004 C 
HETATM    6  C   UNL     1      43.725 -13.288   6.762  1.00  0.00     0.028 C 
HETATM    7  C   UNL     1      42.603 -13.717   5.831  1.00  0.00     0.236 C 
ENDROOT
BRANCH   1   8
HETATM    8  C   UNL     1      40.802 -15.421   5.500  1.00  0.00     0.277 C 
BRANCH   8   9
HETATM    9  C   UNL     1      40.519 -14.651   4.259  1.00  0.00     0.012 A 
HETATM   10  C   UNL     1      40.937 -14.852   2.895  1.00  0.00     0.071 A 
HETATM   11  N   UNL     1      40.391 -13.917   2.100  1.00  0.00    -0.178 NA
HETATM   12  N   UNL     1      39.726 -13.095   2.906  1.00  0.00    -0.288 N 
HETATM   13  H   UNL     1      39.259 -12.288   2.501  1.00  0.00     0.188 HD
HETATM   14  C   UNL     1      39.781 -13.481   4.207  1.00  0.00     0.120 A 
BRANCH  10  15
HETATM   15  C   UNL     1      41.831 -15.882   2.191  1.00  0.00    -0.004 C 
HETATM   16  C   UNL     1      41.912 -15.554   0.678  1.00  0.00     0.021 C 
HETATM   17  C   UNL     1      41.224 -17.294   2.355  1.00  0.00     0.021 C 
HETATM   18  C   UNL     1      43.278 -15.937   2.701  1.00  0.00     0.021 C 
ENDBRANCH  10  15
ENDBRANCH   8   9
ENDBRANCH   1   8
BRANCH   3  19
HETATM   19  C   UNL     1      42.731 -17.560   6.572  1.00  0.00     0.156 C 
BRANCH  19  20
HETATM   20  N   UNL     1      42.837 -18.582   5.542  1.00  0.00    -0.355 N 
HETATM   21  C   UNL     1      44.063 -19.155   5.254  1.00  0.00     0.251 C 
HETATM   22  O   UNL     1      45.061 -18.910   5.924  1.00  0.00    -0.268 OA
HETATM   23  H   UNL     1      42.134 -18.599   4.810  1.00  0.00     0.162 HD
BRANCH  21  24
HETATM   24  C   UNL     1      44.134 -20.062   4.077  1.00  0.00     0.032 A 
HETATM   25  C   UNL     1      44.592 -21.371   4.279  1.00  0.00     0.017 A 
HETATM   26  C   UNL     1      44.668 -22.260   3.206  1.00  0.00     0.001 A 
HETATM   27  C   UNL     1      44.280 -21.849   1.932  1.00  0.00     0.000 A 
HETATM   28  C   UNL     1      43.809 -20.553   1.729  1.00  0.00     0.001 A 
HETATM   29  C   UNL     1      43.731 -19.658   2.798  1.00  0.00     0.017 A 
ENDBRANCH  21  24
ENDBRANCH  19  20
ENDBRANCH   3  19
TORSDOF 6
ENDMDL
MODEL 3
REMARK VINA RESULT:      -7.9      3.400      7.782
REMARK  6 active torsions:
REMARK  status: ('A' for Active; 'I' for Inactive)
REMARK    1  A    between atoms: C_2  and  C_3 
REMARK    2  A    between atoms: C_8  and  C_9 
REMARK    3  A    between atoms: C_9  and  N_10 
REMARK    4  A    between atoms: C_12  and  C_13 
REMARK    5  A    between atoms: C_13  and  N_14 
REMARK       I    between atoms: N_14  and  C_15 
REMARK    6  A    between atoms: C_15  and  C_16 
ROOT
HETATM    1  N   UNL     1      42.923 -16.386   5.580  1.00  0.00    -0.061 N 
HETATM    2  H   UNL     1      43.517 -16.423   4.743  1.00  0.00     0.280 HD
HETATM    3  C   UNL     1      43.867 -16.198   6.784  1.00  0.00     0.206 C 
HETATM    4  C   UNL     1      44.875 -17.366   6.776  1.00  0.00     0.035 C 
HETATM    5  C   UNL     1      44.192 -18.728   6.789  1.00  0.00     0.004 C 
HETATM    6  C   UNL     1      43.205 -18.854   5.640  1.00  0.00     0.028 C 
HETATM    7  C   UNL     1      42.196 -17.717   5.655  1.00  0.00     0.236 C 
ENDROOT
BRANCH   1   8
HETATM    8  C   UNL     1      41.933 -15.253   5.314  1.00  0.00     0.277 C 
BRANCH   8   9
HETATM    9  C   UNL     1      42.141 -14.457   4.074  1.00  0.00     0.012 A 
HETATM   10  C   UNL     1      42.137 -14.836   2.685  1.00  0.00     0.071 A 
HETATM   11  N   UNL     1      42.330 -13.757   1.909  1.00  0.00    -0.178 NA
HETATM   12  N   UNL     1      42.540 -12.741   2.741  1.00  0.00    -0.288 N 
HETATM   13  H   UNL     1      42.740 -11.825   2.350  1.00  0.00     0.188 HD
HETATM   14  C   UNL     1      42.451 -13.108   4.045  1.00  0.00     0.120 A 
BRANCH  10  15
HETATM   15  C   UNL     1      41.950 -16.165   1.939  1.00  0.00    -0.004 C 
HETATM   16  C   UNL     1      41.821 -15.895   0.418  1.00  0.00     0.021 C 
HETATM   17  C   UNL     1      40.657 -16.856   2.426  1.00  0.00     0.021 C 
HETATM   18  C   UNL     1      43.102 -17.166   2.105  1.00  0.00     0.021 C 
ENDBRANCH  10  15
ENDBRANCH   8   9
ENDBRANCH   1   8
BRANCH   3  19
HETATM   19  C   UNL     1      44.638 -14.845   6.714  1.00  0.00     0.156 C 
BRANCH  19  20
HETATM   20  N   UNL     1      44.130 -13.808   7.598  1.00  0.00    -0.355 N 
HETATM   21  C   UNL     1      44.990 -12.864   8.131  1.00  0.00     0.251 C 
HETATM   22  O   UNL     1      46.167 -12.801   7.789  1.00  0.00    -0.268 OA
HETATM   23  H   UNL     1      43.270 -13.990   8.106  1.00  0.00     0.162 HD
BRANCH  21  24
HETATM   24  C   UNL     1      44.441 -11.941   9.159  1.00  0.00     0.032 A 
HETATM   25  C   UNL     1      45.152 -11.787  10.357  1.00  0.00     0.017 A 
HETATM   26  C   UNL     1      44.678 -10.926  11.347  1.00  0.00     0.001 A 
HETATM   27  C   UNL     1      43.499 -10.211  11.143  1.00  0.00     0.000 A 
HETATM   28  C   UNL     1      42.796 -10.348   9.947  1.00  0.00     0.001 A 
HETATM   29  C   UNL     1      43.265 -11.209   8.952  1.00  0.00     0.017 A 
ENDBRANCH  21  24
ENDBRANCH  19  20
ENDBRANCH   3  19
TORSDOF 6
ENDMDL
MODEL 4
REMARK VINA RESULT:      -7.9      3.079      6.962
REMARK  6 active torsions:
REMARK  status: ('A' for Active; 'I' for Inactive)
REMARK    1  A    between atoms: C_2  and  C_3 
REMARK    2  A    between atoms: C_8  and  C_9 
REMARK    3  A    between atoms: C_9  and  N_10 
REMARK    4  A    between atoms: C_12  and  C_13 
REMARK    5  A    between atoms: C_13  and  N_14 
REMARK       I    between atoms: N_14  and  C_15 
REMARK    6  A    between atoms: C_15  and  C_16 
ROOT
HETATM    1  N   UNL     1      42.315 -15.543   3.748  1.00  0.00    -0.061 N 
HETATM    2  H   UNL     1      41.894 -16.330   4.256  1.00  0.00     0.280 HD
HETATM    3  C   UNL     1      42.357 -14.356   4.731  1.00  0.00     0.206 C 
HETATM    4  C   UNL     1      40.916 -14.096   5.214  1.00  0.00     0.035 C 
HETATM    5  C   UNL     1      39.948 -13.854   4.063  1.00  0.00     0.004 C 
HETATM    6  C   UNL     1      39.989 -15.000   3.066  1.00  0.00     0.028 C 
HETATM    7  C   UNL     1      41.405 -15.247   2.570  1.00  0.00     0.236 C 
ENDROOT
BRANCH   1   8
HETATM    8  C   UNL     1      43.666 -16.064   3.260  1.00  0.00     0.277 C 
BRANCH   8   9
HETATM    9  C   UNL     1      43.774 -17.528   3.021  1.00  0.00     0.012 A 
HETATM   10  C   UNL     1      43.903 -18.637   3.932  1.00  0.00     0.071 A 
HETATM   11  N   UNL     1      43.921 -19.795   3.253  1.00  0.00    -0.178 NA
HETATM   12  N   UNL     1      43.897 -19.465   1.966  1.00  0.00    -0.288 N 
HETATM   13  H   UNL     1      43.936 -20.207   1.272  1.00  0.00     0.188 HD
HETATM   14  C   UNL     1      43.822 -18.123   1.772  1.00  0.00     0.120 A 
BRANCH  10  15
HETATM   15  C   UNL     1      44.007 -18.760   5.460  1.00  0.00    -0.004 C 
HETATM   16  C   UNL     1      44.203 -20.248   5.849  1.00  0.00     0.021 C 
HETATM   17  C   UNL     1      42.702 -18.251   6.110  1.00  0.00     0.021 C 
HETATM   18  C   UNL     1      45.173 -17.987   6.092  1.00  0.00     0.021 C 
ENDBRANCH  10  15
ENDBRANCH   8   9
ENDBRANCH   1   8
BRANCH   3  19
HETATM   19  C   UNL     1      43.272 -14.649   5.960  1.00  0.00     0.156 C 
BRANCH  19  20
HETATM   20  N   UNL     1      43.301 -13.596   6.962  1.00  0.00    -0.355 N 
HETATM   21  C   UNL     1      44.504 -13.196   7.518  1.00  0.00     0.251 C 
HETATM   22  O   UNL     1      45.577 -13.626   7.106  1.00  0.00    -0.268 OA
HETATM   23  H   UNL     1      42.461 -13.430   7.508  1.00  0.00     0.162 HD
BRANCH  21  24
HETATM   24  C   UNL     1      44.447 -12.242   8.657  1.00  0.00     0.032 A 
HETATM   25  C   UNL     1      45.546 -12.181   9.524  1.00  0.00     0.017 A 
HETATM   26  C   UNL     1      45.541 -11.295  10.602  1.00  0.00     0.001 A 
HETATM   27  C   UNL     1      44.444 -10.462  10.813  1.00  0.00     0.000 A 
HETATM   28  C   UNL     1      43.354 -10.507   9.944  1.00  0.00     0.001 A 
HETATM   29  C   UNL     1      43.353 -11.392   8.864  1.00  0.00     0.017 A 
ENDBRANCH  21  24
ENDBRANCH  19  20
ENDBRANCH   3  19
TORSDOF 6
ENDMDL
MODEL 5
REMARK VINA RESULT:      -7.7      3.019      6.604
REMARK  6 active torsions:
REMARK  status: ('A' for Active; 'I' for Inactive)
REMARK    1  A    between atoms: C_2  and  C_3 
REMARK    2  A    between atoms: C_8  and  C_9 
REMARK    3  A    between atoms: C_9  and  N_10 
REMARK    4  A    between atoms: C_12  and  C_13 
REMARK    5  A    between atoms: C_13  and  N_14 
REMARK       I    between atoms: N_14  and  C_15 
REMARK    6  A    between atoms: C_15  and  C_16 
ROOT
HETATM    1  N   UNL     1      40.727 -14.689   0.738  1.00  0.00    -0.061 N 
HETATM    2  H   UNL     1      39.805 -15.084   0.519  1.00  0.00     0.280 HD
HETATM    3  C   UNL     1      41.462 -15.736   1.598  1.00  0.00     0.206 C 
HETATM    4  C   UNL     1      40.588 -16.024   2.835  1.00  0.00     0.035 C 
HETATM    5  C   UNL     1      40.258 -14.764   3.624  1.00  0.00     0.004 C 
HETATM    6  C   UNL     1      39.610 -13.717   2.733  1.00  0.00     0.028 C 
HETATM    7  C   UNL     1      40.477 -13.413   1.522  1.00  0.00     0.236 C 
ENDROOT
BRANCH   1   8
HETATM    8  C   UNL     1      41.353 -14.367  -0.618  1.00  0.00     0.277 C 
BRANCH   8   9
HETATM    9  C   UNL     1      40.552 -14.705  -1.824  1.00  0.00     0.012 A 
HETATM   10  C   UNL     1      39.349 -14.125  -2.364  1.00  0.00     0.071 A 
HETATM   11  N   UNL     1      39.011 -14.740  -3.509  1.00  0.00    -0.178 NA
HETATM   12  N   UNL     1      39.888 -15.726  -3.668  1.00  0.00    -0.288 N 
HETATM   13  H   UNL     1      39.788 -16.342  -4.470  1.00  0.00     0.188 HD
HETATM   14  C   UNL     1      40.822 -15.758  -2.682  1.00  0.00     0.120 A 
BRANCH  10  15
HETATM   15  C   UNL     1      38.419 -12.985  -1.923  1.00  0.00    -0.004 C 
HETATM   16  C   UNL     1      39.256 -11.710  -1.643  1.00  0.00     0.021 C 
HETATM   17  C   UNL     1      37.688 -13.387  -0.623  1.00  0.00     0.021 C 
HETATM   18  C   UNL     1      37.352 -12.587  -2.952  1.00  0.00     0.021 C 
ENDBRANCH  10  15
ENDBRANCH   8   9
ENDBRANCH   1   8
BRANCH   3  19
HETATM   19  C   UNL     1      41.710 -17.062   0.816  1.00  0.00     0.156 C 
BRANCH  19  20
HETATM   20  N   UNL     1      42.180 -18.171   1.631  1.00  0.00    -0.355 N 
HETATM   21  C   UNL     1      43.536 -18.415   1.761  1.00  0.00     0.251 C 
HETATM   22  O   UNL     1      44.374 -17.648   1.298  1.00  0.00    -0.268 OA
HETATM   23  H   UNL     1      41.552 -18.955   1.781  1.00  0.00     0.162 HD
BRANCH  21  24
HETATM   24  C   UNL     1      43.942 -19.662   2.463  1.00  0.00     0.032 A 
HETATM   25  C   UNL     1      44.321 -19.569   3.809  1.00  0.00     0.017 A 
HETATM   26  C   UNL     1      44.703 -20.714   4.509  1.00  0.00     0.001 A 
HETATM   27  C   UNL     1      44.699 -21.954   3.873  1.00  0.00     0.000 A 
HETATM   28  C   UNL     1      44.307 -22.054   2.539  1.00  0.00     0.001 A 
HETATM   29  C   UNL     1      43.925 -20.912   1.831  1.00  0.00     0.017 A 
ENDBRANCH  21  24
ENDBRANCH  19  20
ENDBRANCH   3  19
TORSDOF 6
ENDMDL
MODEL 6
REMARK VINA RESULT:      -7.7      1.753      4.917
REMARK  6 active torsions:
REMARK  status: ('A' for Active; 'I' for Inactive)
REMARK    1  A    between atoms: C_2  and  C_3 
REMARK    2  A    between atoms: C_8  and  C_9 
REMARK    3  A    between atoms: C_9  and  N_10 
REMARK    4  A    between atoms: C_12  and  C_13 
REMARK    5  A    between atoms: C_13  and  N_14 
REMARK       I    between atoms: N_14  and  C_15 
REMARK    6  A    between atoms: C_15  and  C_16 
ROOT
HETATM    1  N   UNL     1      42.180 -15.440   5.159  1.00  0.00    -0.061 N 
HETATM    2  H   UNL     1      41.545 -15.227   5.937  1.00  0.00     0.280 HD
HETATM    3  C   UNL     1      43.332 -16.278   5.747  1.00  0.00     0.206 C 
HETATM    4  C   UNL     1      43.978 -15.456   6.881  1.00  0.00     0.035 C 
HETATM    5  C   UNL     1      44.446 -14.084   6.415  1.00  0.00     0.004 C 
HETATM    6  C   UNL     1      43.310 -13.312   5.764  1.00  0.00     0.028 C 
HETATM    7  C   UNL     1      42.683 -14.109   4.631  1.00  0.00     0.236 C 
ENDROOT
BRANCH   1   8
HETATM    8  C   UNL     1      41.307 -16.132   4.113  1.00  0.00     0.277 C 
BRANCH   8   9
HETATM    9  C   UNL     1      41.801 -16.118   2.710  1.00  0.00     0.012 A 
HETATM   10  C   UNL     1      41.322 -15.434   1.536  1.00  0.00     0.071 A 
HETATM   11  N   UNL     1      42.124 -15.691   0.490  1.00  0.00    -0.178 NA
HETATM   12  N   UNL     1      43.027 -16.565   0.926  1.00  0.00    -0.288 N 
HETATM   13  H   UNL     1      43.719 -16.918   0.272  1.00  0.00     0.188 HD
HETATM   14  C   UNL     1      42.871 -16.863   2.242  1.00  0.00     0.120 A 
BRANCH  10  15
HETATM   15  C   UNL     1      40.138 -14.500   1.251  1.00  0.00    -0.004 C 
HETATM   16  C   UNL     1      40.383 -13.127   1.929  1.00  0.00     0.021 C 
HETATM   17  C   UNL     1      38.844 -15.110   1.834  1.00  0.00     0.021 C 
HETATM   18  C   UNL     1      39.886 -14.211  -0.236  1.00  0.00     0.021 C 
ENDBRANCH  10  15
ENDBRANCH   8   9
ENDBRANCH   1   8
BRANCH   3  19
HETATM   19  C   UNL     1      42.832 -17.642   6.313  1.00  0.00     0.156 C 
BRANCH  19  20
HETATM   20  N   UNL     1      42.958 -18.765   5.397  1.00  0.00    -0.355 N 
HETATM   21  C   UNL     1      44.209 -19.241   5.047  1.00  0.00     0.251 C 
HETATM   22  O   UNL     1      45.231 -18.815   5.577  1.00  0.00    -0.268 OA
HETATM   23  H   UNL     1      42.197 -18.943   4.750  1.00  0.00     0.162 HD
BRANCH  21  24
HETATM   24  C   UNL     1      44.274 -20.273   3.978  1.00  0.00     0.032 A 
HETATM   25  C   UNL     1      44.768 -21.541   4.312  1.00  0.00     0.017 A 
HETATM   26  C   UNL     1      44.840 -22.542   3.343  1.00  0.00     0.001 A 
HETATM   27  C   UNL     1      44.411 -22.285   2.042  1.00  0.00     0.000 A 
HETATM   28  C   UNL     1      43.904 -21.030   1.708  1.00  0.00     0.001 A 
HETATM   29  C   UNL     1      43.830 -20.023   2.673  1.00  0.00     0.017 A 
ENDBRANCH  21  24
ENDBRANCH  19  20
ENDBRANCH   3  19
TORSDOF 6
ENDMDL
MODEL 7
REMARK VINA RESULT:      -7.7      2.323      6.058
REMARK  6 active torsions:
REMARK  status: ('A' for Active; 'I' for Inactive)
REMARK    1  A    between atoms: C_2  and  C_3 
REMARK    2  A    between atoms: C_8  and  C_9 
REMARK    3  A    between atoms: C_9  and  N_10 
REMARK    4  A    between atoms: C_12  and  C_13 
REMARK    5  A    between atoms: C_13  and  N_14 
REMARK       I    between atoms: N_14  and  C_15 
REMARK    6  A    between atoms: C_15  and  C_16 
ROOT
HETATM    1  N   UNL     1      43.325 -18.247   3.671  1.00  0.00    -0.061 N 
HETATM    2  H   UNL     1      42.547 -18.708   4.157  1.00  0.00     0.280 HD
HETATM    3  C   UNL     1      43.143 -18.542   2.169  1.00  0.00     0.206 C 
HETATM    4  C   UNL     1      43.108 -20.074   1.993  1.00  0.00     0.035 C 
HETATM    5  C   UNL     1      44.343 -20.757   2.567  1.00  0.00     0.004 C 
HETATM    6  C   UNL     1      44.544 -20.382   4.026  1.00  0.00     0.028 C 
HETATM    7  C   UNL     1      44.602 -18.873   4.203  1.00  0.00     0.236 C 
ENDROOT
BRANCH   1   8
HETATM    8  C   UNL     1      43.238 -16.779   4.087  1.00  0.00     0.277 C 
BRANCH   8   9
HETATM    9  C   UNL     1      42.058 -16.380   4.899  1.00  0.00     0.012 A 
HETATM   10  C   UNL     1      41.655 -15.105   5.435  1.00  0.00     0.071 A 
HETATM   11  N   UNL     1      40.479 -15.222   6.073  1.00  0.00    -0.178 NA
HETATM   12  N   UNL     1      40.170 -16.514   6.039  1.00  0.00    -0.288 N 
HETATM   13  H   UNL     1      39.319 -16.824   6.501  1.00  0.00     0.188 HD
HETATM   14  C   UNL     1      41.086 -17.252   5.361  1.00  0.00     0.120 A 
BRANCH  10  15
HETATM   15  C   UNL     1      42.263 -13.696   5.414  1.00  0.00    -0.004 C 
HETATM   16  C   UNL     1      42.557 -13.278   3.950  1.00  0.00     0.021 C 
HETATM   17  C   UNL     1      43.593 -13.693   6.201  1.00  0.00     0.021 C 
HETATM   18  C   UNL     1      41.369 -12.598   6.008  1.00  0.00     0.021 C 
ENDBRANCH  10  15
ENDBRANCH   8   9
ENDBRANCH   1   8
BRANCH   3  19
HETATM   19  C   UNL     1      41.826 -17.924   1.608  1.00  0.00     0.156 C 
BRANCH  19  20
HETATM   20  N   UNL     1      42.010 -16.997   0.503  1.00  0.00    -0.355 N 
HETATM   21  C   UNL     1      41.266 -15.832   0.439  1.00  0.00     0.251 C 
HETATM   22  O   UNL     1      40.526 -15.491   1.356  1.00  0.00    -0.268 OA
HETATM   23  H   UNL     1      42.377 -17.361  -0.371  1.00  0.00     0.162 HD
BRANCH  21  24
HETATM   24  C   UNL     1      41.377 -15.017  -0.800  1.00  0.00     0.032 A 
HETATM   25  C   UNL     1      41.029 -15.616  -2.018  1.00  0.00     0.017 A 
HETATM   26  C   UNL     1      41.109 -14.888  -3.206  1.00  0.00     0.001 A 
HETATM   27  C   UNL     1      41.528 -13.559  -3.181  1.00  0.00     0.000 A 
HETATM   28  C   UNL     1      41.860 -12.953  -1.969  1.00  0.00     0.001 A 
HETATM   29  C   UNL     1      41.782 -13.677  -0.777  1.00  0.00     0.017 A 
ENDBRANCH  21  24
ENDBRANCH  19  20
ENDBRANCH   3  19
TORSDOF 6
ENDMDL
MODEL 8
REMARK VINA RESULT:      -7.7      2.120      5.157
REMARK  6 active torsions:
REMARK  status: ('A' for Active; 'I' for Inactive)
REMARK    1  A    between atoms: C_2  and  C_3 
REMARK    2  A    between atoms: C_8  and  C_9 
REMARK    3  A    between atoms: C_9  and  N_10 
REMARK    4  A    between atoms: C_12  and  C_13 
REMARK    5  A    between atoms: C_13  and  N_14 
REMARK       I    between atoms: N_14  and  C_15 
REMARK    6  A    between atoms: C_15  and  C_16 
ROOT
HETATM    1  N   UNL     1      42.175 -13.703   2.809  1.00  0.00    -0.061 N 
HETATM    2  H   UNL     1      41.251 -14.149   2.783  1.00  0.00     0.280 HD
HETATM    3  C   UNL     1      43.204 -14.831   3.017  1.00  0.00     0.206 C 
HETATM    4  C   UNL     1      42.827 -15.576   4.314  1.00  0.00     0.035 C 
HETATM    5  C   UNL     1      42.742 -14.647   5.518  1.00  0.00     0.004 C 
HETATM    6  C   UNL     1      41.783 -13.498   5.253  1.00  0.00     0.028 C 
HETATM    7  C   UNL     1      42.163 -12.747   3.988  1.00  0.00     0.236 C 
ENDROOT
BRANCH   1   8
HETATM    8  C   UNL     1      42.278 -12.928   1.496  1.00  0.00     0.277 C 
BRANCH   8   9
HETATM    9  C   UNL     1      41.414 -13.388   0.376  1.00  0.00     0.012 A 
HETATM   10  C   UNL     1      40.026 -13.772   0.336  1.00  0.00     0.071 A 
HETATM   11  N   UNL     1      39.664 -14.076  -0.921  1.00  0.00    -0.178 NA
HETATM   12  N   UNL     1      40.771 -13.986  -1.652  1.00  0.00    -0.288 N 
HETATM   13  H   UNL     1      40.720 -14.210  -2.642  1.00  0.00     0.188 HD
HETATM   14  C   UNL     1      41.847 -13.592  -0.923  1.00  0.00     0.120 A 
BRANCH  10  15
HETATM   15  C   UNL     1      38.917 -13.886   1.393  1.00  0.00    -0.004 C 
HETATM   16  C   UNL     1      39.189 -15.112   2.301  1.00  0.00     0.021 C 
HETATM   17  C   UNL     1      37.554 -14.085   0.694  1.00  0.00     0.021 C 
HETATM   18  C   UNL     1      38.788 -12.674   2.327  1.00  0.00     0.021 C 
ENDBRANCH  10  15
ENDBRANCH   8   9
ENDBRANCH   1   8
BRANCH   3  19
HETATM   19  C   UNL     1      43.218 -15.836   1.825  1.00  0.00     0.156 C 
BRANCH  19  20
HETATM   20  N   UNL     1      43.791 -17.137   2.131  1.00  0.00    -0.355 N 
HETATM   21  C   UNL     1      43.020 -18.281   2.021  1.00  0.00     0.251 C 
HETATM   22  O   UNL     1      41.884 -18.249   1.558  1.00  0.00    -0.268 OA
HETATM   23  H   UNL     1      44.587 -17.174   2.760  1.00  0.00     0.162 HD
BRANCH  21  24
HETATM   24  C   UNL     1      43.611 -19.554   2.514  1.00  0.00     0.032 A 
HETATM   25  C   UNL     1      44.230 -19.553   3.771  1.00  0.00     0.017 A 
HETATM   26  C   UNL     1      44.792 -20.725   4.277  1.00  0.00     0.001 A 
HETATM   27  C   UNL     1      44.730 -21.903   3.535  1.00  0.00     0.000 A 
HETATM   28  C   UNL     1      44.101 -21.914   2.290  1.00  0.00     0.001 A 
HETATM   29  C   UNL     1      43.538 -20.743   1.778  1.00  0.00     0.017 A 
ENDBRANCH  21  24
ENDBRANCH  19  20
ENDBRANCH   3  19
TORSDOF 6
ENDMDL
MODEL 9
REMARK VINA RESULT:      -7.5      2.383      5.786
REMARK  6 active torsions:
REMARK  status: ('A' for Active; 'I' for Inactive)
REMARK    1  A    between atoms: C_2  and  C_3 
REMARK    2  A    between atoms: C_8  and  C_9 
REMARK    3  A    between atoms: C_9  and  N_10 
REMARK    4  A    between atoms: C_12  and  C_13 
REMARK    5  A    between atoms: C_13  and  N_14 
REMARK       I    between atoms: N_14  and  C_15 
REMARK    6  A    between atoms: C_15  and  C_16 
ROOT
HETATM    1  N   UNL     1      40.529 -14.441   3.051  1.00  0.00    -0.061 N 
HETATM    2  H   UNL     1      39.630 -14.927   2.952  1.00  0.00     0.280 HD
HETATM    3  C   UNL     1      41.570 -15.512   3.432  1.00  0.00     0.206 C 
HETATM    4  C   UNL     1      41.081 -16.202   4.722  1.00  0.00     0.035 C 
HETATM    5  C   UNL     1      40.831 -15.215   5.855  1.00  0.00     0.004 C 
HETATM    6  C   UNL     1      39.865 -14.124   5.424  1.00  0.00     0.028 C 
HETATM    7  C   UNL     1      40.353 -13.425   4.165  1.00  0.00     0.236 C 
ENDROOT
BRANCH   1   8
HETATM    8  C   UNL     1      40.745 -13.734   1.714  1.00  0.00     0.277 C 
BRANCH   8   9
HETATM    9  C   UNL     1      39.577 -13.660   0.797  1.00  0.00     0.012 A 
HETATM   10  C   UNL     1      39.475 -13.807  -0.633  1.00  0.00     0.071 A 
HETATM   11  N   UNL     1      38.193 -13.703  -1.020  1.00  0.00    -0.178 NA
HETATM   12  N   UNL     1      37.502 -13.414   0.078  1.00  0.00    -0.288 N 
HETATM   13  H   UNL     1      36.500 -13.261  -0.003  1.00  0.00     0.188 HD
HETATM   14  C   UNL     1      38.282 -13.364   1.188  1.00  0.00     0.120 A 
BRANCH  10  15
HETATM   15  C   UNL     1      40.490 -14.061  -1.757  1.00  0.00    -0.004 C 
HETATM   16  C   UNL     1      41.063 -15.496  -1.626  1.00  0.00     0.021 C 
HETATM   17  C   UNL     1      41.656 -13.055  -1.639  1.00  0.00     0.021 C 
HETATM   18  C   UNL     1      39.921 -13.948  -3.179  1.00  0.00     0.021 C 
ENDBRANCH  10  15
ENDBRANCH   8   9
ENDBRANCH   1   8
BRANCH   3  19
HETATM   19  C   UNL     1      41.749 -16.577   2.308  1.00  0.00     0.156 C 
BRANCH  19  20
HETATM   20  N   UNL     1      42.269 -17.858   2.760  1.00  0.00    -0.355 N 
HETATM   21  C   UNL     1      43.497 -18.309   2.309  1.00  0.00     0.251 C 
HETATM   22  O   UNL     1      44.227 -17.605   1.618  1.00  0.00    -0.268 OA
HETATM   23  H   UNL     1      41.607 -18.558   3.080  1.00  0.00     0.162 HD
BRANCH  21  24
HETATM   24  C   UNL     1      43.890 -19.697   2.670  1.00  0.00     0.032 A 
HETATM   25  C   UNL     1      43.677 -20.712   1.727  1.00  0.00     0.017 A 
HETATM   26  C   UNL     1      44.037 -22.027   2.019  1.00  0.00     0.001 A 
HETATM   27  C   UNL     1      44.618 -22.334   3.248  1.00  0.00     0.000 A 
HETATM   28  C   UNL     1      44.847 -21.326   4.184  1.00  0.00     0.001 A 
HETATM   29  C   UNL     1      44.489 -20.007   3.898  1.00  0.00     0.017 A 
ENDBRANCH  21  24
ENDBRANCH  19  20
ENDBRANCH   3  19
TORSDOF 6
ENDMDL
MODEL 10
REMARK VINA RESULT:      -7.5      1.892      3.573
REMARK  6 active torsions:
REMARK  status: ('A' for Active; 'I' for Inactive)
REMARK    1  A    between atoms: C_2  and  C_3 
REMARK    2  A    between atoms: C_8  and  C_9 
REMARK    3  A    between atoms: C_9  and  N_10 
REMARK    4  A    between atoms: C_12  and  C_13 
REMARK    5  A    between atoms: C_13  and  N_14 
REMARK       I    between atoms: N_14  and  C_15 
REMARK    6  A    between atoms: C_15  and  C_16 
ROOT
HETATM    1  N   UNL     1      40.485 -14.644   2.144  1.00  0.00    -0.061 N 
HETATM    2  H   UNL     1      41.078 -13.807   2.183  1.00  0.00     0.280 HD
HETATM    3  C   UNL     1      41.235 -15.676   1.279  1.00  0.00     0.206 C 
HETATM    4  C   UNL     1      41.503 -15.028  -0.096  1.00  0.00     0.035 C 
HETATM    5  C   UNL     1      40.228 -14.534  -0.767  1.00  0.00     0.004 C 
HETATM    6  C   UNL     1      39.467 -13.583   0.142  1.00  0.00     0.028 C 
HETATM    7  C   UNL     1      39.181 -14.224   1.491  1.00  0.00     0.236 C 
ENDROOT
BRANCH   1   8
HETATM    8  C   UNL     1      40.250 -15.030   3.604  1.00  0.00     0.277 C 
BRANCH   8   9
HETATM    9  C   UNL     1      41.032 -14.289   4.629  1.00  0.00     0.012 A 
HETATM   10  C   UNL     1      41.092 -12.887   4.954  1.00  0.00     0.071 A 
HETATM   11  N   UNL     1      41.915 -12.687   5.996  1.00  0.00    -0.178 NA
HETATM   12  N   UNL     1      42.438 -13.875   6.282  1.00  0.00    -0.288 N 
HETATM   13  H   UNL     1      43.121 -13.939   7.032  1.00  0.00     0.188 HD
HETATM   14  C   UNL     1      41.954 -14.864   5.487  1.00  0.00     0.120 A 
BRANCH  10  15
HETATM   15  C   UNL     1      40.423 -11.627   4.385  1.00  0.00    -0.004 C 
HETATM   16  C   UNL     1      40.967 -11.348   2.960  1.00  0.00     0.021 C 
HETATM   17  C   UNL     1      40.753 -10.414   5.283  1.00  0.00     0.021 C 
HETATM   18  C   UNL     1      38.895 -11.709   4.258  1.00  0.00     0.021 C 
ENDBRANCH  10  15
ENDBRANCH   8   9
ENDBRANCH   1   8
BRANCH   3  19
HETATM   19  C   UNL     1      42.588 -16.105   1.923  1.00  0.00     0.156 C 
BRANCH  19  20
HETATM   20  N   UNL     1      42.803 -17.542   1.991  1.00  0.00    -0.355 N 
HETATM   21  C   UNL     1      43.514 -18.091   3.043  1.00  0.00     0.251 C 
HETATM   22  O   UNL     1      43.880 -17.411   3.997  1.00  0.00    -0.268 OA
HETATM   23  H   UNL     1      42.771 -18.072   1.126  1.00  0.00     0.162 HD
BRANCH  21  24
HETATM   24  C   UNL     1      43.845 -19.539   2.963  1.00  0.00     0.032 A 
HETATM   25  C   UNL     1      44.497 -20.130   4.054  1.00  0.00     0.017 A 
HETATM   26  C   UNL     1      44.821 -21.487   4.026  1.00  0.00     0.001 A 
HETATM   27  C   UNL     1      44.488 -22.260   2.915  1.00  0.00     0.000 A 
HETATM   28  C   UNL     1      43.825 -21.680   1.833  1.00  0.00     0.001 A 
HETATM   29  C   UNL     1      43.499 -20.323   1.854  1.00  0.00     0.017 A 
ENDBRANCH  21  24
ENDBRANCH  19  20
ENDBRANCH   3  19
TORSDOF 6
ENDMDL
