MODEL 1
REMARK VINA RESULT:      -8.9      0.000      0.000
REMARK  6 active torsions:
REMARK  status: ('A' for Active; 'I' for Inactive)
REMARK    1  A    between atoms: C_2  and  O_3 
REMARK    2  A    between atoms: C_2  and  C_4 
REMARK    3  A    between atoms: C_7  and  N_8 
REMARK       I    between atoms: N_8  and  C_9 
REMARK    4  A    between atoms: C_9  and  C_10 
REMARK    5  A    between atoms: C_13  and  C_14 
REMARK    6  A    between atoms: C_19  and  C_20 
ROOT
HETATM    1  C   UNL     1      41.528 -14.825   0.899  1.00  0.00     0.096 A 
HETATM    2  C   UNL     1      41.586 -14.648  -0.471  1.00  0.00     0.138 A 
HETATM    3  N   UNL     1      41.526 -13.290  -0.681  1.00  0.00    -0.240 N 
HETATM    4  C   UNL     1      41.498 -12.663  -1.992  1.00  0.00     0.221 C 
HETATM    5  C   UNL     1      41.933 -13.666  -3.078  1.00  0.00     0.068 C 
HETATM    6  C   UNL     1      41.294 -15.043  -2.863  1.00  0.00     0.143 C 
HETATM    7  N   UNL     1      41.647 -15.525  -1.515  1.00  0.00    -0.363 N 
HETATM    8  N   UNL     1      41.275 -12.592   0.437  1.00  0.00    -0.181 NA
HETATM    9  C   UNL     1      41.307 -13.520   1.398  1.00  0.00     0.160 A 
HETATM   10  H   UNL     1      41.288 -16.470  -1.361  1.00  0.00     0.162 HD
ENDROOT
BRANCH   1  11
HETATM   11  C   UNL     1      41.600 -16.058   1.668  1.00  0.00     0.261 C 
HETATM   12  N   UNL     1      42.898 -16.475   1.892  1.00  0.00    -0.323 N 
HETATM   13  H   UNL     1      43.618 -15.807   1.635  1.00  0.00     0.169 HD
HETATM   14  O   UNL     1      40.582 -16.612   2.061  1.00  0.00    -0.267 OA
BRANCH  12  15
HETATM   15  C   UNL     1      43.338 -17.686   2.452  1.00  0.00     0.035 A 
HETATM   16  C   UNL     1      43.510 -18.864   1.725  1.00  0.00     0.030 A 
HETATM   17  C   UNL     1      44.004 -20.016   2.349  1.00  0.00     0.012 A 
HETATM   18  C   UNL     1      44.333 -20.013   3.712  1.00  0.00    -0.030 A 
HETATM   19  C   UNL     1      44.153 -18.830   4.437  1.00  0.00     0.012 A 
HETATM   20  C   UNL     1      43.658 -17.680   3.814  1.00  0.00     0.030 A 
BRANCH  18  21
HETATM   21  C   UNL     1      44.916 -21.253   4.352  1.00  0.00     0.147 C 
HETATM   22  C   UNL     1      44.425 -21.416   5.786  1.00  0.00     0.044 C 
BRANCH  21  23
HETATM   23  O   UNL     1      44.549 -22.410   3.602  1.00  0.00    -0.391 OA
HETATM   24  H   UNL     1      44.728 -22.211   2.668  1.00  0.00     0.210 HD
ENDBRANCH  21  23
ENDBRANCH  18  21
ENDBRANCH  12  15
ENDBRANCH   1  11
BRANCH   4  25
HETATM   25  C   UNL     1      42.393 -11.443  -2.046  1.00  0.00     0.409 C 
HETATM   26  F   UNL     1      43.530 -11.609  -1.332  1.00  0.00    -0.169 F 
HETATM   27  F   UNL     1      42.777 -11.217  -3.333  1.00  0.00    -0.169 F 
HETATM   28  F   UNL     1      41.793 -10.311  -1.630  1.00  0.00    -0.169 F 
ENDBRANCH   4  25
BRANCH   6  29
HETATM   29  C   UNL     1      39.826 -15.030  -3.164  1.00  0.00     0.075 A 
HETATM   30  O   UNL     1      39.431 -15.742  -4.260  1.00  0.00    -0.325 OA
HETATM   31  C   UNL     1      38.084 -15.608  -4.360  1.00  0.00     0.142 A 
HETATM   32  C   UNL     1      37.603 -14.818  -3.343  1.00  0.00     0.027 A 
HETATM   33  C   UNL     1      38.727 -14.443  -2.568  1.00  0.00     0.037 A 
ENDBRANCH   6  29
TORSDOF 6
ENDMDL
MODEL 2
REMARK VINA RESULT:      -8.8      2.180      2.732
REMARK  6 active torsions:
REMARK  status: ('A' for Active; 'I' for Inactive)
REMARK    1  A    between atoms: C_2  and  O_3 
REMARK    2  A    between atoms: C_2  and  C_4 
REMARK    3  A    between atoms: C_7  and  N_8 
REMARK       I    between atoms: N_8  and  C_9 
REMARK    4  A    between atoms: C_9  and  C_10 
REMARK    5  A    between atoms: C_13  and  C_14 
REMARK    6  A    between atoms: C_19  and  C_20 
ROOT
HETATM    1  C   UNL     1      41.033 -15.771   1.298  1.00  0.00     0.096 A 
HETATM    2  C   UNL     1      40.775 -14.895   0.260  1.00  0.00     0.138 A 
HETATM    3  N   UNL     1      39.569 -14.302   0.554  1.00  0.00    -0.240 N 
HETATM    4  C   UNL     1      38.890 -13.351  -0.308  1.00  0.00     0.221 C 
HETATM    5  C   UNL     1      39.857 -12.808  -1.378  1.00  0.00     0.068 C 
HETATM    6  C   UNL     1      40.719 -13.923  -1.980  1.00  0.00     0.143 C 
HETATM    7  N   UNL     1      41.447 -14.601  -0.891  1.00  0.00    -0.363 N 
HETATM    8  N   UNL     1      38.959 -14.845   1.619  1.00  0.00    -0.181 NA
HETATM    9  C   UNL     1      39.861 -15.714   2.086  1.00  0.00     0.160 A 
HETATM   10  H   UNL     1      42.079 -15.313  -1.264  1.00  0.00     0.162 HD
ENDROOT
BRANCH   1  11
HETATM   11  C   UNL     1      42.196 -16.618   1.514  1.00  0.00     0.261 C 
HETATM   12  N   UNL     1      41.878 -17.823   2.111  1.00  0.00    -0.323 N 
HETATM   13  H   UNL     1      40.885 -18.024   2.179  1.00  0.00     0.169 HD
HETATM   14  O   UNL     1      43.311 -16.253   1.165  1.00  0.00    -0.267 OA
BRANCH  12  15
HETATM   15  C   UNL     1      42.751 -18.806   2.606  1.00  0.00     0.035 A 
HETATM   16  C   UNL     1      43.346 -18.758   3.867  1.00  0.00     0.030 A 
HETATM   17  C   UNL     1      44.163 -19.807   4.305  1.00  0.00     0.012 A 
HETATM   18  C   UNL     1      44.405 -20.921   3.490  1.00  0.00    -0.030 A 
HETATM   19  C   UNL     1      43.811 -20.961   2.224  1.00  0.00     0.012 A 
HETATM   20  C   UNL     1      42.995 -19.913   1.786  1.00  0.00     0.030 A 
BRANCH  18  21
HETATM   21  C   UNL     1      45.248 -22.067   4.005  1.00  0.00     0.147 C 
HETATM   22  C   UNL     1      45.042 -22.275   5.501  1.00  0.00     0.044 C 
BRANCH  21  23
HETATM   23  O   UNL     1      44.910 -23.271   3.318  1.00  0.00    -0.391 OA
HETATM   24  H   UNL     1      43.965 -23.216   3.098  1.00  0.00     0.210 HD
ENDBRANCH  21  23
ENDBRANCH  18  21
ENDBRANCH  12  15
ENDBRANCH   1  11
BRANCH   4  25
HETATM   25  C   UNL     1      38.311 -12.196   0.480  1.00  0.00     0.409 C 
HETATM   26  F   UNL     1      39.136 -11.788   1.472  1.00  0.00    -0.169 F 
HETATM   27  F   UNL     1      38.138 -11.124  -0.341  1.00  0.00    -0.169 F 
HETATM   28  F   UNL     1      37.102 -12.456   1.016  1.00  0.00    -0.169 F 
ENDBRANCH   4  25
BRANCH   6  29
HETATM   29  C   UNL     1      39.918 -14.831  -2.863  1.00  0.00     0.075 A 
HETATM   30  O   UNL     1      38.740 -14.325  -3.334  1.00  0.00    -0.325 OA
HETATM   31  C   UNL     1      38.172 -15.287  -4.106  1.00  0.00     0.142 A 
HETATM   32  C   UNL     1      38.967 -16.407  -4.140  1.00  0.00     0.027 A 
HETATM   33  C   UNL     1      40.097 -16.115  -3.338  1.00  0.00     0.037 A 
ENDBRANCH   6  29
TORSDOF 6
ENDMDL
MODEL 3
REMARK VINA RESULT:      -8.6      2.620      4.003
REMARK  6 active torsions:
REMARK  status: ('A' for Active; 'I' for Inactive)
REMARK    1  A    between atoms: C_2  and  O_3 
REMARK    2  A    between atoms: C_2  and  C_4 
REMARK    3  A    between atoms: C_7  and  N_8 
REMARK       I    between atoms: N_8  and  C_9 
REMARK    4  A    between atoms: C_9  and  C_10 
REMARK    5  A    between atoms: C_13  and  C_14 
REMARK    6  A    between atoms: C_19  and  C_20 
ROOT
HETATM    1  C   UNL     1      41.204 -15.923   0.913  1.00  0.00     0.096 A 
HETATM    2  C   UNL     1      40.015 -15.235   0.758  1.00  0.00     0.138 A 
HETATM    3  N   UNL     1      40.139 -14.518  -0.409  1.00  0.00    -0.240 N 
HETATM    4  C   UNL     1      39.133 -13.604  -0.922  1.00  0.00     0.221 C 
HETATM    5  C   UNL     1      37.783 -13.839  -0.217  1.00  0.00     0.068 C 
HETATM    6  C   UNL     1      37.960 -14.029   1.294  1.00  0.00     0.143 C 
HETATM    7  N   UNL     1      38.889 -15.150   1.526  1.00  0.00    -0.363 N 
HETATM    8  N   UNL     1      41.374 -14.568  -0.931  1.00  0.00    -0.181 NA
HETATM    9  C   UNL     1      42.010 -15.443  -0.146  1.00  0.00     0.160 A 
HETATM   10  H   UNL     1      38.983 -15.345   2.525  1.00  0.00     0.162 HD
ENDROOT
BRANCH   1  11
HETATM   11  C   UNL     1      41.590 -16.865   1.952  1.00  0.00     0.261 C 
HETATM   12  N   UNL     1      42.816 -17.454   1.713  1.00  0.00    -0.323 N 
HETATM   13  H   UNL     1      43.348 -17.053   0.947  1.00  0.00     0.169 HD
HETATM   14  O   UNL     1      40.868 -17.059   2.921  1.00  0.00    -0.267 OA
BRANCH  12  15
HETATM   15  C   UNL     1      43.423 -18.513   2.409  1.00  0.00     0.035 A 
HETATM   16  C   UNL     1      43.865 -18.426   3.729  1.00  0.00     0.030 A 
HETATM   17  C   UNL     1      44.412 -19.545   4.369  1.00  0.00     0.012 A 
HETATM   18  C   UNL     1      44.530 -20.772   3.700  1.00  0.00    -0.030 A 
HETATM   19  C   UNL     1      44.090 -20.851   2.373  1.00  0.00     0.012 A 
HETATM   20  C   UNL     1      43.545 -19.733   1.735  1.00  0.00     0.030 A 
BRANCH  18  21
HETATM   21  C   UNL     1      45.073 -21.982   4.427  1.00  0.00     0.147 C 
HETATM   22  C   UNL     1      44.500 -22.082   5.836  1.00  0.00     0.044 C 
BRANCH  21  23
HETATM   23  O   UNL     1      44.750 -23.171   3.708  1.00  0.00    -0.391 OA
HETATM   24  H   UNL     1      44.914 -22.988   2.769  1.00  0.00     0.210 HD
ENDBRANCH  21  23
ENDBRANCH  18  21
ENDBRANCH  12  15
ENDBRANCH   1  11
BRANCH   4  25
HETATM   25  C   UNL     1      38.953 -13.754  -2.417  1.00  0.00     0.409 C 
HETATM   26  F   UNL     1      39.004 -15.047  -2.813  1.00  0.00    -0.169 F 
HETATM   27  F   UNL     1      37.724 -13.290  -2.777  1.00  0.00    -0.169 F 
HETATM   28  F   UNL     1      39.845 -13.053  -3.145  1.00  0.00    -0.169 F 
ENDBRANCH   4  25
BRANCH   6  29
HETATM   29  C   UNL     1      38.334 -12.749   1.977  1.00  0.00     0.075 A 
HETATM   30  O   UNL     1      37.570 -11.659   1.671  1.00  0.00    -0.325 OA
HETATM   31  C   UNL     1      38.061 -10.613   2.384  1.00  0.00     0.142 A 
HETATM   32  C   UNL     1      39.133 -11.013   3.146  1.00  0.00     0.027 A 
HETATM   33  C   UNL     1      39.311 -12.393   2.885  1.00  0.00     0.037 A 
ENDBRANCH   6  29
TORSDOF 6
ENDMDL
MODEL 4
REMARK VINA RESULT:      -8.4      3.405      8.819
REMARK  6 active torsions:
REMARK  status: ('A' for Active; 'I' for Inactive)
REMARK    1  A    between atoms: C_2  and  O_3 
REMARK    2  A    between atoms: C_2  and  C_4 
REMARK    3  A    between atoms: C_7  and  N_8 
REMARK       I    between atoms: N_8  and  C_9 
REMARK    4  A    between atoms: C_9  and  C_10 
REMARK    5  A    between atoms: C_13  and  C_14 
REMARK    6  A    between atoms: C_19  and  C_20 
ROOT
HETATM    1  C   UNL     1      41.690 -15.019   2.587  1.00  0.00     0.096 A 
HETATM    2  C   UNL     1      41.952 -15.715   3.752  1.00  0.00     0.138 A 
HETATM    3  N   UNL     1      43.041 -15.099   4.325  1.00  0.00    -0.240 N 
HETATM    4  C   UNL     1      43.692 -15.550   5.544  1.00  0.00     0.221 C 
HETATM    5  C   UNL     1      42.787 -16.541   6.302  1.00  0.00     0.068 C 
HETATM    6  C   UNL     1      42.134 -17.551   5.352  1.00  0.00     0.143 C 
HETATM    7  N   UNL     1      41.379 -16.815   4.322  1.00  0.00    -0.363 N 
HETATM    8  N   UNL     1      43.593 -14.162   3.539  1.00  0.00    -0.181 NA
HETATM    9  C   UNL     1      42.756 -14.093   2.500  1.00  0.00     0.160 A 
HETATM   10  H   UNL     1      40.879 -17.460   3.706  1.00  0.00     0.162 HD
ENDROOT
BRANCH   1  11
HETATM   11  C   UNL     1      40.619 -15.218   1.622  1.00  0.00     0.261 C 
HETATM   12  N   UNL     1      40.854 -14.577   0.421  1.00  0.00    -0.323 N 
HETATM   13  H   UNL     1      41.786 -14.189   0.312  1.00  0.00     0.169 HD
HETATM   14  O   UNL     1      39.646 -15.907   1.899  1.00  0.00    -0.267 OA
BRANCH  12  15
HETATM   15  C   UNL     1      39.979 -14.420  -0.668  1.00  0.00     0.035 A 
HETATM   16  C   UNL     1      40.221 -14.933  -1.942  1.00  0.00     0.030 A 
HETATM   17  C   UNL     1      39.271 -14.779  -2.960  1.00  0.00     0.012 A 
HETATM   18  C   UNL     1      38.064 -14.106  -2.723  1.00  0.00    -0.030 A 
HETATM   19  C   UNL     1      37.831 -13.589  -1.444  1.00  0.00     0.012 A 
HETATM   20  C   UNL     1      38.779 -13.743  -0.429  1.00  0.00     0.030 A 
BRANCH  18  21
HETATM   21  C   UNL     1      37.030 -13.998  -3.822  1.00  0.00     0.147 C 
HETATM   22  C   UNL     1      36.901 -12.563  -4.318  1.00  0.00     0.044 C 
BRANCH  21  23
HETATM   23  O   UNL     1      37.391 -14.838  -4.918  1.00  0.00    -0.391 OA
HETATM   24  H   UNL     1      36.597 -15.338  -5.166  1.00  0.00     0.210 HD
ENDBRANCH  21  23
ENDBRANCH  18  21
ENDBRANCH  12  15
ENDBRANCH   1  11
BRANCH   4  25
HETATM   25  C   UNL     1      44.041 -14.391   6.452  1.00  0.00     0.409 C 
HETATM   26  F   UNL     1      43.055 -13.465   6.504  1.00  0.00    -0.169 F 
HETATM   27  F   UNL     1      44.211 -14.844   7.725  1.00  0.00    -0.169 F 
HETATM   28  F   UNL     1      45.189 -13.768   6.120  1.00  0.00    -0.169 F 
ENDBRANCH   4  25
BRANCH   6  29
HETATM   29  C   UNL     1      43.128 -18.539   4.820  1.00  0.00     0.075 A 
HETATM   30  O   UNL     1      43.895 -19.179   5.750  1.00  0.00    -0.325 OA
HETATM   31  C   UNL     1      44.719 -20.022   5.076  1.00  0.00     0.142 A 
HETATM   32  C   UNL     1      44.495 -19.934   3.723  1.00  0.00     0.027 A 
HETATM   33  C   UNL     1      43.466 -18.976   3.555  1.00  0.00     0.037 A 
ENDBRANCH   6  29
TORSDOF 6
ENDMDL
MODEL 5
REMARK VINA RESULT:      -8.2      1.813      2.311
REMARK  6 active torsions:
REMARK  status: ('A' for Active; 'I' for Inactive)
REMARK    1  A    between atoms: C_2  and  O_3 
REMARK    2  A    between atoms: C_2  and  C_4 
REMARK    3  A    between atoms: C_7  and  N_8 
REMARK       I    between atoms: N_8  and  C_9 
REMARK    4  A    between atoms: C_9  and  C_10 
REMARK    5  A    between atoms: C_13  and  C_14 
REMARK    6  A    between atoms: C_19  and  C_20 
ROOT
HETATM    1  C   UNL     1      42.200 -14.816   1.763  1.00  0.00     0.096 A 
HETATM    2  C   UNL     1      41.567 -14.319   0.638  1.00  0.00     0.138 A 
HETATM    3  N   UNL     1      41.902 -12.986   0.572  1.00  0.00    -0.240 N 
HETATM    4  C   UNL     1      41.400 -12.062  -0.431  1.00  0.00     0.221 C 
HETATM    5  C   UNL     1      40.778 -12.835  -1.610  1.00  0.00     0.068 C 
HETATM    6  C   UNL     1      39.910 -14.002  -1.128  1.00  0.00     0.143 C 
HETATM    7  N   UNL     1      40.731 -14.886  -0.280  1.00  0.00    -0.363 N 
HETATM    8  N   UNL     1      42.569 -12.555   1.654  1.00  0.00    -0.181 NA
HETATM    9  C   UNL     1      42.775 -13.670   2.359  1.00  0.00     0.160 A 
HETATM   10  H   UNL     1      40.199 -15.709   0.010  1.00  0.00     0.162 HD
ENDROOT
BRANCH   1  11
HETATM   11  C   UNL     1      42.222 -16.178   2.274  1.00  0.00     0.261 C 
HETATM   12  N   UNL     1      43.464 -16.550   2.754  1.00  0.00    -0.323 N 
HETATM   13  H   UNL     1      44.142 -15.798   2.829  1.00  0.00     0.169 HD
HETATM   14  O   UNL     1      41.210 -16.866   2.269  1.00  0.00    -0.267 OA
BRANCH  12  15
HETATM   15  C   UNL     1      43.890 -17.822   3.170  1.00  0.00     0.035 A 
HETATM   16  C   UNL     1      44.181 -18.153   4.494  1.00  0.00     0.030 A 
HETATM   17  C   UNL     1      44.548 -19.460   4.833  1.00  0.00     0.012 A 
HETATM   18  C   UNL     1      44.635 -20.462   3.856  1.00  0.00    -0.030 A 
HETATM   19  C   UNL     1      44.347 -20.123   2.529  1.00  0.00     0.012 A 
HETATM   20  C   UNL     1      43.981 -18.816   2.190  1.00  0.00     0.030 A 
BRANCH  18  21
HETATM   21  C   UNL     1      44.981 -21.879   4.253  1.00  0.00     0.147 C 
HETATM   22  C   UNL     1      44.341 -22.251   5.585  1.00  0.00     0.044 C 
BRANCH  21  23
HETATM   23  O   UNL     1      44.533 -22.791   3.252  1.00  0.00    -0.391 OA
HETATM   24  H   UNL     1      44.158 -23.559   3.714  1.00  0.00     0.210 HD
ENDBRANCH  21  23
ENDBRANCH  18  21
ENDBRANCH  12  15
ENDBRANCH   1  11
BRANCH   4  25
HETATM   25  C   UNL     1      42.492 -11.150  -0.946  1.00  0.00     0.409 C 
HETATM   26  F   UNL     1      42.940 -10.298   0.004  1.00  0.00    -0.169 F 
HETATM   27  F   UNL     1      43.565 -11.895  -1.330  1.00  0.00    -0.169 F 
HETATM   28  F   UNL     1      42.132 -10.429  -2.026  1.00  0.00    -0.169 F 
ENDBRANCH   4  25
BRANCH   6  29
HETATM   29  C   UNL     1      38.638 -13.525  -0.494  1.00  0.00     0.075 A 
HETATM   30  O   UNL     1      38.048 -12.438  -1.074  1.00  0.00    -0.325 OA
HETATM   31  C   UNL     1      36.923 -12.168  -0.364  1.00  0.00     0.142 A 
HETATM   32  C   UNL     1      36.778 -13.066   0.666  1.00  0.00     0.027 A 
HETATM   33  C   UNL     1      37.884 -13.945   0.584  1.00  0.00     0.037 A 
ENDBRANCH   6  29
TORSDOF 6
ENDMDL
MODEL 6
REMARK VINA RESULT:      -8.1      3.469      4.437
REMARK  6 active torsions:
REMARK  status: ('A' for Active; 'I' for Inactive)
REMARK    1  A    between atoms: C_2  and  O_3 
REMARK    2  A    between atoms: C_2  and  C_4 
REMARK    3  A    between atoms: C_7  and  N_8 
REMARK       I    between atoms: N_8  and  C_9 
REMARK    4  A    between atoms: C_9  and  C_10 
REMARK    5  A    between atoms: C_13  and  C_14 
REMARK    6  A    between atoms: C_19  and  C_20 
ROOT
HETATM    1  C   UNL     1      40.972 -15.141   4.816  1.00  0.00     0.096 A 
HETATM    2  C   UNL     1      40.977 -14.222   3.783  1.00  0.00     0.138 A 
HETATM    3  N   UNL     1      40.482 -13.053   4.312  1.00  0.00    -0.240 N 
HETATM    4  C   UNL     1      40.259 -11.836   3.549  1.00  0.00     0.221 C 
HETATM    5  C   UNL     1      41.001 -11.903   2.200  1.00  0.00     0.068 C 
HETATM    6  C   UNL     1      40.842 -13.275   1.535  1.00  0.00     0.143 C 
HETATM    7  N   UNL     1      41.325 -14.312   2.466  1.00  0.00    -0.363 N 
HETATM    8  N   UNL     1      40.013 -13.195   5.561  1.00  0.00    -0.181 NA
HETATM    9  C   UNL     1      40.338 -14.452   5.876  1.00  0.00     0.160 A 
HETATM   10  H   UNL     1      41.290 -15.237   2.030  1.00  0.00     0.162 HD
ENDROOT
BRANCH   1  11
HETATM   11  C   UNL     1      41.436 -16.519   4.818  1.00  0.00     0.261 C 
HETATM   12  N   UNL     1      42.534 -16.717   4.004  1.00  0.00    -0.323 N 
HETATM   13  H   UNL     1      42.961 -15.871   3.640  1.00  0.00     0.169 HD
HETATM   14  O   UNL     1      40.880 -17.367   5.504  1.00  0.00    -0.267 OA
BRANCH  12  15
HETATM   15  C   UNL     1      43.143 -17.931   3.643  1.00  0.00     0.035 A 
HETATM   16  C   UNL     1      43.956 -18.679   4.495  1.00  0.00     0.030 A 
HETATM   17  C   UNL     1      44.482 -19.907   4.075  1.00  0.00     0.012 A 
HETATM   18  C   UNL     1      44.207 -20.409   2.796  1.00  0.00    -0.030 A 
HETATM   19  C   UNL     1      43.396 -19.651   1.943  1.00  0.00     0.012 A 
HETATM   20  C   UNL     1      42.871 -18.425   2.363  1.00  0.00     0.030 A 
BRANCH  18  21
HETATM   21  C   UNL     1      44.741 -21.763   2.383  1.00  0.00     0.147 C 
HETATM   22  C   UNL     1      44.644 -22.766   3.526  1.00  0.00     0.044 C 
BRANCH  21  23
HETATM   23  O   UNL     1      44.006 -22.259   1.266  1.00  0.00    -0.391 OA
HETATM   24  H   UNL     1      43.082 -21.984   1.389  1.00  0.00     0.210 HD
ENDBRANCH  21  23
ENDBRANCH  18  21
ENDBRANCH  12  15
ENDBRANCH   1  11
BRANCH   4  25
HETATM   25  C   UNL     1      40.711 -10.609   4.311  1.00  0.00     0.409 C 
HETATM   26  F   UNL     1      40.992  -9.570   3.491  1.00  0.00    -0.169 F 
HETATM   27  F   UNL     1      39.711 -10.189   5.134  1.00  0.00    -0.169 F 
HETATM   28  F   UNL     1      41.780 -10.825   5.103  1.00  0.00    -0.169 F 
ENDBRANCH   4  25
BRANCH   6  29
HETATM   29  C   UNL     1      39.451 -13.488   1.021  1.00  0.00     0.075 A 
HETATM   30  O   UNL     1      39.072 -12.703  -0.030  1.00  0.00    -0.325 OA
HETATM   31  C   UNL     1      37.796 -13.045  -0.345  1.00  0.00     0.142 A 
HETATM   32  C   UNL     1      37.346 -14.040   0.489  1.00  0.00     0.027 A 
HETATM   33  C   UNL     1      38.413 -14.329   1.372  1.00  0.00     0.037 A 
ENDBRANCH   6  29
TORSDOF 6
ENDMDL
MODEL 7
REMARK VINA RESULT:      -8.0      2.458      2.842
REMARK  6 active torsions:
REMARK  status: ('A' for Active; 'I' for Inactive)
REMARK    1  A    between atoms: C_2  and  O_3 
REMARK    2  A    between atoms: C_2  and  C_4 
REMARK    3  A    between atoms: C_7  and  N_8 
REMARK       I    between atoms: N_8  and  C_9 
REMARK    4  A    between atoms: C_9  and  C_10 
REMARK    5  A    between atoms: C_13  and  C_14 
REMARK    6  A    between atoms: C_19  and  C_20 
ROOT
HETATM    1  C   UNL     1      41.455 -13.917   0.938  1.00  0.00     0.096 A 
HETATM    2  C   UNL     1      41.592 -13.978  -0.437  1.00  0.00     0.138 A 
HETATM    3  N   UNL     1      41.456 -12.686  -0.889  1.00  0.00    -0.240 N 
HETATM    4  C   UNL     1      41.473 -12.301  -2.290  1.00  0.00     0.221 C 
HETATM    5  C   UNL     1      42.044 -13.441  -3.155  1.00  0.00     0.068 C 
HETATM    6  C   UNL     1      41.487 -14.805  -2.732  1.00  0.00     0.143 C 
HETATM    7  N   UNL     1      41.781 -15.016  -1.303  1.00  0.00    -0.363 N 
HETATM    8  N   UNL     1      41.085 -11.826   0.071  1.00  0.00    -0.181 NA
HETATM    9  C   UNL     1      41.115 -12.567   1.183  1.00  0.00     0.160 A 
HETATM   10  H   UNL     1      41.477 -15.944  -1.001  1.00  0.00     0.162 HD
ENDROOT
BRANCH   1  11
HETATM   11  C   UNL     1      41.559 -14.988   1.917  1.00  0.00     0.261 C 
HETATM   12  N   UNL     1      41.633 -14.522   3.216  1.00  0.00    -0.323 N 
HETATM   13  H   UNL     1      41.454 -13.529   3.330  1.00  0.00     0.169 HD
HETATM   14  O   UNL     1      41.557 -16.161   1.566  1.00  0.00    -0.267 OA
BRANCH  12  15
HETATM   15  C   UNL     1      41.896 -15.251   4.388  1.00  0.00     0.035 A 
HETATM   16  C   UNL     1      40.907 -15.809   5.197  1.00  0.00     0.030 A 
HETATM   17  C   UNL     1      41.255 -16.568   6.321  1.00  0.00     0.012 A 
HETATM   18  C   UNL     1      42.599 -16.780   6.659  1.00  0.00    -0.030 A 
HETATM   19  C   UNL     1      43.588 -16.212   5.846  1.00  0.00     0.012 A 
HETATM   20  C   UNL     1      43.238 -15.454   4.724  1.00  0.00     0.030 A 
BRANCH  18  21
HETATM   21  C   UNL     1      42.954 -17.647   7.847  1.00  0.00     0.147 C 
HETATM   22  C   UNL     1      43.920 -18.757   7.450  1.00  0.00     0.044 C 
BRANCH  21  23
HETATM   23  O   UNL     1      43.552 -16.854   8.870  1.00  0.00    -0.391 OA
HETATM   24  H   UNL     1      44.484 -17.121   8.928  1.00  0.00     0.210 HD
ENDBRANCH  21  23
ENDBRANCH  18  21
ENDBRANCH  12  15
ENDBRANCH   1  11
BRANCH   4  25
HETATM   25  C   UNL     1      42.286 -11.044  -2.514  1.00  0.00     0.409 C 
HETATM   26  F   UNL     1      41.592  -9.923  -2.208  1.00  0.00    -0.169 F 
HETATM   27  F   UNL     1      43.377 -11.055  -1.699  1.00  0.00    -0.169 F 
HETATM   28  F   UNL     1      42.758 -10.920  -3.770  1.00  0.00    -0.169 F 
ENDBRANCH   4  25
BRANCH   6  29
HETATM   29  C   UNL     1      40.045 -14.959  -3.108  1.00  0.00     0.075 A 
HETATM   30  O   UNL     1      39.778 -15.836  -4.120  1.00  0.00    -0.325 OA
HETATM   31  C   UNL     1      38.433 -15.834  -4.307  1.00  0.00     0.142 A 
HETATM   32  C   UNL     1      37.828 -14.966  -3.430  1.00  0.00     0.027 A 
HETATM   33  C   UNL     1      38.867 -14.399  -2.654  1.00  0.00     0.037 A 
ENDBRANCH   6  29
TORSDOF 6
ENDMDL
MODEL 8
REMARK VINA RESULT:      -8.0      1.738      2.092
REMARK  6 active torsions:
REMARK  status: ('A' for Active; 'I' for Inactive)
REMARK    1  A    between atoms: C_2  and  O_3 
REMARK    2  A    between atoms: C_2  and  C_4 
REMARK    3  A    between atoms: C_7  and  N_8 
REMARK       I    between atoms: N_8  and  C_9 
REMARK    4  A    between atoms: C_9  and  C_10 
REMARK    5  A    between atoms: C_13  and  C_14 
REMARK    6  A    between atoms: C_19  and  C_20 
ROOT
HETATM    1  C   UNL     1      41.922 -13.846   0.212  1.00  0.00     0.096 A 
HETATM    2  C   UNL     1      41.922 -13.248  -1.034  1.00  0.00     0.138 A 
HETATM    3  N   UNL     1      42.021 -11.895  -0.806  1.00  0.00    -0.240 N 
HETATM    4  C   UNL     1      41.997 -10.883  -1.847  1.00  0.00     0.221 C 
HETATM    5  C   UNL     1      42.239 -11.525  -3.227  1.00  0.00     0.068 C 
HETATM    6  C   UNL     1      41.447 -12.826  -3.392  1.00  0.00     0.143 C 
HETATM    7  N   UNL     1      41.813 -13.747  -2.300  1.00  0.00    -0.363 N 
HETATM    8  N   UNL     1      41.925 -11.569   0.492  1.00  0.00    -0.181 NA
HETATM    9  C   UNL     1      41.895 -12.754   1.110  1.00  0.00     0.160 A 
HETATM   10  H   UNL     1      41.348 -14.650  -2.413  1.00  0.00     0.162 HD
ENDROOT
BRANCH   1  11
HETATM   11  C   UNL     1      41.883 -15.261   0.550  1.00  0.00     0.261 C 
HETATM   12  N   UNL     1      42.777 -15.599   1.547  1.00  0.00    -0.323 N 
HETATM   13  H   UNL     1      43.223 -14.815   2.013  1.00  0.00     0.169 HD
HETATM   14  O   UNL     1      41.105 -16.019  -0.015  1.00  0.00    -0.267 OA
BRANCH  12  15
HETATM   15  C   UNL     1      43.121 -16.881   2.010  1.00  0.00     0.035 A 
HETATM   16  C   UNL     1      43.700 -17.868   1.213  1.00  0.00     0.030 A 
HETATM   17  C   UNL     1      44.062 -19.102   1.765  1.00  0.00     0.012 A 
HETATM   18  C   UNL     1      43.848 -19.375   3.123  1.00  0.00    -0.030 A 
HETATM   19  C   UNL     1      43.260 -18.383   3.917  1.00  0.00     0.012 A 
HETATM   20  C   UNL     1      42.899 -17.150   3.365  1.00  0.00     0.030 A 
BRANCH  18  21
HETATM   21  C   UNL     1      44.296 -20.695   3.710  1.00  0.00     0.147 C 
HETATM   22  C   UNL     1      44.487 -21.745   2.623  1.00  0.00     0.044 C 
BRANCH  21  23
HETATM   23  O   UNL     1      45.525 -20.526   4.414  1.00  0.00    -0.391 OA
HETATM   24  H   UNL     1      45.456 -21.042   5.234  1.00  0.00     0.210 HD
ENDBRANCH  21  23
ENDBRANCH  18  21
ENDBRANCH  12  15
ENDBRANCH   1  11
BRANCH   4  25
HETATM   25  C   UNL     1      43.033  -9.806  -1.605  1.00  0.00     0.409 C 
HETATM   26  F   UNL     1      42.634  -8.911  -0.672  1.00  0.00    -0.169 F 
HETATM   27  F   UNL     1      44.176 -10.373  -1.130  1.00  0.00    -0.169 F 
HETATM   28  F   UNL     1      43.384  -9.130  -2.717  1.00  0.00    -0.169 F 
ENDBRANCH   4  25
BRANCH   6  29
HETATM   29  C   UNL     1      39.977 -12.571  -3.534  1.00  0.00     0.075 A 
HETATM   30  O   UNL     1      39.627 -11.428  -4.195  1.00  0.00    -0.325 OA
HETATM   31  C   UNL     1      38.270 -11.380  -4.219  1.00  0.00     0.142 A 
HETATM   32  C   UNL     1      37.739 -12.475  -3.582  1.00  0.00     0.027 A 
HETATM   33  C   UNL     1      38.840 -13.247  -3.139  1.00  0.00     0.037 A 
ENDBRANCH   6  29
TORSDOF 6
ENDMDL
MODEL 9
REMARK VINA RESULT:      -7.8      3.324      8.791
REMARK  6 active torsions:
REMARK  status: ('A' for Active; 'I' for Inactive)
REMARK    1  A    between atoms: C_2  and  O_3 
REMARK    2  A    between atoms: C_2  and  C_4 
REMARK    3  A    between atoms: C_7  and  N_8 
REMARK       I    between atoms: N_8  and  C_9 
REMARK    4  A    between atoms: C_9  and  C_10 
REMARK    5  A    between atoms: C_13  and  C_14 
REMARK    6  A    between atoms: C_19  and  C_20 
ROOT
HETATM    1  C   UNL     1      40.836 -14.335   1.931  1.00  0.00     0.096 A 
HETATM    2  C   UNL     1      41.199 -15.198   2.949  1.00  0.00     0.138 A 
HETATM    3  N   UNL     1      42.352 -14.681   3.492  1.00  0.00    -0.240 N 
HETATM    4  C   UNL     1      43.112 -15.312   4.559  1.00  0.00     0.221 C 
HETATM    5  C   UNL     1      42.266 -16.398   5.251  1.00  0.00     0.068 C 
HETATM    6  C   UNL     1      41.500 -17.252   4.235  1.00  0.00     0.143 C 
HETATM    7  N   UNL     1      40.662 -16.366   3.407  1.00  0.00    -0.363 N 
HETATM    8  N   UNL     1      42.843 -13.642   2.801  1.00  0.00    -0.181 NA
HETATM    9  C   UNL     1      41.908 -13.414   1.874  1.00  0.00     0.160 A 
HETATM   10  H   UNL     1      40.090 -16.910   2.756  1.00  0.00     0.162 HD
ENDROOT
BRANCH   1  11
HETATM   11  C   UNL     1      39.671 -14.382   1.062  1.00  0.00     0.261 C 
HETATM   12  N   UNL     1      39.885 -13.761  -0.154  1.00  0.00    -0.323 N 
HETATM   13  H   UNL     1      40.846 -13.496  -0.342  1.00  0.00     0.169 HD
HETATM   14  O   UNL     1      38.644 -14.943   1.420  1.00  0.00    -0.267 OA
BRANCH  12  15
HETATM   15  C   UNL     1      38.948 -13.480  -1.163  1.00  0.00     0.035 A 
HETATM   16  C   UNL     1      38.104 -12.370  -1.156  1.00  0.00     0.030 A 
HETATM   17  C   UNL     1      37.235 -12.132  -2.228  1.00  0.00     0.012 A 
HETATM   18  C   UNL     1      37.191 -13.003  -3.326  1.00  0.00    -0.030 A 
HETATM   19  C   UNL     1      38.036 -14.119  -3.325  1.00  0.00     0.012 A 
HETATM   20  C   UNL     1      38.903 -14.355  -2.254  1.00  0.00     0.030 A 
BRANCH  18  21
HETATM   21  C   UNL     1      36.283 -12.698  -4.497  1.00  0.00     0.147 C 
HETATM   22  C   UNL     1      36.575 -11.320  -5.077  1.00  0.00     0.044 C 
BRANCH  21  23
HETATM   23  O   UNL     1      36.458 -13.679  -5.519  1.00  0.00    -0.391 OA
HETATM   24  H   UNL     1      36.631 -14.525  -5.074  1.00  0.00     0.210 HD
ENDBRANCH  21  23
ENDBRANCH  18  21
ENDBRANCH  12  15
ENDBRANCH   1  11
BRANCH   4  25
HETATM   25  C   UNL     1      43.574 -14.302   5.587  1.00  0.00     0.409 C 
HETATM   26  F   UNL     1      43.827 -14.872   6.788  1.00  0.00    -0.169 F 
HETATM   27  F   UNL     1      44.742 -13.736   5.177  1.00  0.00    -0.169 F 
HETATM   28  F   UNL     1      42.711 -13.285   5.775  1.00  0.00    -0.169 F 
ENDBRANCH   4  25
BRANCH   6  29
HETATM   29  C   UNL     1      42.414 -18.157   3.465  1.00  0.00     0.075 A 
HETATM   30  O   UNL     1      43.306 -18.880   4.204  1.00  0.00    -0.325 OA
HETATM   31  C   UNL     1      44.032 -19.628   3.334  1.00  0.00     0.142 A 
HETATM   32  C   UNL     1      43.622 -19.397   2.043  1.00  0.00     0.027 A 
HETATM   33  C   UNL     1      42.576 -18.447   2.125  1.00  0.00     0.037 A 
ENDBRANCH   6  29
TORSDOF 6
ENDMDL
MODEL 10
REMARK VINA RESULT:      -7.8      2.613      3.991
REMARK  6 active torsions:
REMARK  status: ('A' for Active; 'I' for Inactive)
REMARK    1  A    between atoms: C_2  and  O_3 
REMARK    2  A    between atoms: C_2  and  C_4 
REMARK    3  A    between atoms: C_7  and  N_8 
REMARK       I    between atoms: N_8  and  C_9 
REMARK    4  A    between atoms: C_9  and  C_10 
REMARK    5  A    between atoms: C_13  and  C_14 
REMARK    6  A    between atoms: C_19  and  C_20 
ROOT
HETATM    1  C   UNL     1      41.559 -15.167   0.322  1.00  0.00     0.096 A 
HETATM    2  C   UNL     1      40.957 -13.931   0.177  1.00  0.00     0.138 A 
HETATM    3  N   UNL     1      40.255 -13.986  -1.004  1.00  0.00    -0.240 N 
HETATM    4  C   UNL     1      39.517 -12.871  -1.574  1.00  0.00     0.221 C 
HETATM    5  C   UNL     1      39.301 -11.772  -0.515  1.00  0.00     0.068 C 
HETATM    6  C   UNL     1      40.570 -11.523   0.307  1.00  0.00     0.143 C 
HETATM    7  N   UNL     1      40.990 -12.792   0.929  1.00  0.00    -0.363 N 
HETATM    8  N   UNL     1      40.488 -15.106  -1.706  1.00  0.00    -0.181 NA
HETATM    9  C   UNL     1      41.254 -15.833  -0.888  1.00  0.00     0.160 A 
HETATM   10  H   UNL     1      41.801 -12.650   1.536  1.00  0.00     0.162 HD
ENDROOT
BRANCH   1  11
HETATM   11  C   UNL     1      42.379 -15.665   1.415  1.00  0.00     0.261 C 
HETATM   12  N   UNL     1      42.477 -17.043   1.428  1.00  0.00    -0.323 N 
HETATM   13  H   UNL     1      42.105 -17.511   0.608  1.00  0.00     0.169 HD
HETATM   14  O   UNL     1      42.915 -14.892   2.199  1.00  0.00    -0.267 OA
BRANCH  12  15
HETATM   15  C   UNL     1      43.048 -17.865   2.415  1.00  0.00     0.035 A 
HETATM   16  C   UNL     1      42.863 -17.682   3.785  1.00  0.00     0.030 A 
HETATM   17  C   UNL     1      43.423 -18.579   4.702  1.00  0.00     0.012 A 
HETATM   18  C   UNL     1      44.182 -19.675   4.266  1.00  0.00    -0.030 A 
HETATM   19  C   UNL     1      44.369 -19.850   2.890  1.00  0.00     0.012 A 
HETATM   20  C   UNL     1      43.809 -18.953   1.975  1.00  0.00     0.030 A 
BRANCH  18  21
HETATM   21  C   UNL     1      44.733 -20.662   5.272  1.00  0.00     0.147 C 
HETATM   22  C   UNL     1      43.815 -20.787   6.481  1.00  0.00     0.044 C 
BRANCH  21  23
HETATM   23  O   UNL     1      44.882 -21.945   4.666  1.00  0.00    -0.391 OA
HETATM   24  H   UNL     1      45.745 -22.292   4.945  1.00  0.00     0.210 HD
ENDBRANCH  21  23
ENDBRANCH  18  21
ENDBRANCH  12  15
ENDBRANCH   1  11
BRANCH   4  25
HETATM   25  C   UNL     1      38.176 -13.311  -2.123  1.00  0.00     0.409 C 
HETATM   26  F   UNL     1      38.277 -13.829  -3.368  1.00  0.00    -0.169 F 
HETATM   27  F   UNL     1      37.663 -14.297  -1.336  1.00  0.00    -0.169 F 
HETATM   28  F   UNL     1      37.252 -12.331  -2.146  1.00  0.00    -0.169 F 
ENDBRANCH   4  25
BRANCH   6  29
HETATM   29  C   UNL     1      41.630 -10.834  -0.498  1.00  0.00     0.075 A 
HETATM   30  O   UNL     1      42.919 -11.197  -0.228  1.00  0.00    -0.325 OA
HETATM   31  C   UNL     1      43.718 -10.472  -1.052  1.00  0.00     0.142 A 
HETATM   32  C   UNL     1      42.963  -9.645  -1.850  1.00  0.00     0.027 A 
HETATM   33  C   UNL     1      41.613  -9.878  -1.494  1.00  0.00     0.037 A 
ENDBRANCH   6  29
TORSDOF 6
ENDMDL
