MODEL 1
REMARK VINA RESULT:      -8.4      0.000      0.000
REMARK  3 active torsions:
REMARK  status: ('A' for Active; 'I' for Inactive)
REMARK    1  A    between atoms: C_2  and  C_3 
REMARK    2  A    between atoms: C_11  and  C_12 
REMARK    3  A    between atoms: C_12  and  C_13 
ROOT
HETATM    1  C   UNL     1      44.409 -20.275   4.045  1.00  0.00     0.041 A 
HETATM    2  N   UNL     1      44.240 -19.136   4.758  1.00  0.00    -0.245 NA
HETATM    3  C   UNL     1      43.844 -18.063   4.046  1.00  0.00     0.111 A 
HETATM    4  C   UNL     1      43.603 -18.020   2.680  1.00  0.00     0.028 A 
HETATM    5  C   UNL     1      43.805 -19.222   1.970  1.00  0.00     0.025 A 
HETATM    6  C   UNL     1      44.222 -20.369   2.659  1.00  0.00    -0.036 A 
HETATM    7  C   UNL     1      44.414 -21.649   1.899  1.00  0.00     0.050 C 
HETATM    8  S   UNL     1      43.572 -16.566   4.809  1.00  0.00    -0.063 SA
HETATM    9  C   UNL     1      43.148 -15.805   3.333  1.00  0.00     0.085 A 
HETATM   10  C   UNL     1      43.179 -16.710   2.286  1.00  0.00     0.060 A 
HETATM   11  N   UNL     1      42.845 -16.381   1.013  1.00  0.00    -0.397 N 
HETATM   12  H   UNL     1      42.323 -15.513   0.855  1.00  0.00     0.156 HD
HETATM   13  H   UNL     1      42.609 -17.095   0.333  1.00  0.00     0.156 HD
ENDROOT
BRANCH   9  14
HETATM   14  C   UNL     1      42.725 -14.414   3.278  1.00  0.00     0.201 C 
HETATM   15  O   UNL     1      43.217 -13.606   2.485  1.00  0.00    -0.286 OA
BRANCH  14  16
HETATM   16  C   UNL     1      41.699 -13.876   4.212  1.00  0.00     0.018 A 
HETATM   17  C   UNL     1      42.038 -12.765   5.000  1.00  0.00     0.055 A 
HETATM   18  C   UNL     1      41.105 -12.314   5.908  1.00  0.00     0.106 A 
HETATM   19  C   UNL     1      39.881 -12.925   6.055  1.00  0.00     0.105 A 
HETATM   20  O   UNL     1      41.265 -11.262   6.755  1.00  0.00    -0.323 OA
HETATM   21  O   UNL     1      39.119 -12.332   7.012  1.00  0.00    -0.323 OA
HETATM   22  C   UNL     1      39.521 -14.023   5.305  1.00  0.00     0.040 A 
HETATM   23  C   UNL     1      40.009 -11.290   7.465  1.00  0.00     0.352 A 
HETATM   24  C   UNL     1      40.447 -14.511   4.377  1.00  0.00     0.018 A 
ENDBRANCH  14  16
ENDBRANCH   9  14
BRANCH   1  25
HETATM   25  C   UNL     1      44.846 -21.465   4.869  1.00  0.00     0.055 C 
HETATM   26  C   UNL     1      44.229 -21.449   6.259  1.00  0.00     0.011 C 
ENDBRANCH   1  25
TORSDOF 3
ENDMDL
MODEL 2
REMARK VINA RESULT:      -8.3      1.323      1.803
REMARK  3 active torsions:
REMARK  status: ('A' for Active; 'I' for Inactive)
REMARK    1  A    between atoms: C_2  and  C_3 
REMARK    2  A    between atoms: C_11  and  C_12 
REMARK    3  A    between atoms: C_12  and  C_13 
ROOT
HETATM    1  C   UNL     1      44.299 -20.021   3.729  1.00  0.00     0.041 A 
HETATM    2  N   UNL     1      43.894 -18.916   4.399  1.00  0.00    -0.245 NA
HETATM    3  C   UNL     1      42.978 -18.159   3.764  1.00  0.00     0.111 A 
HETATM    4  C   UNL     1      42.429 -18.401   2.512  1.00  0.00     0.028 A 
HETATM    5  C   UNL     1      42.888 -19.553   1.839  1.00  0.00     0.025 A 
HETATM    6  C   UNL     1      43.845 -20.375   2.451  1.00  0.00    -0.036 A 
HETATM    7  C   UNL     1      44.311 -21.610   1.737  1.00  0.00     0.050 C 
HETATM    8  S   UNL     1      42.360 -16.750   4.491  1.00  0.00    -0.063 SA
HETATM    9  C   UNL     1      41.358 -16.404   3.145  1.00  0.00     0.085 A 
HETATM   10  C   UNL     1      41.475 -17.387   2.178  1.00  0.00     0.060 A 
HETATM   11  N   UNL     1      40.758 -17.382   1.026  1.00  0.00    -0.397 N 
HETATM   12  H   UNL     1      39.933 -16.777   0.968  1.00  0.00     0.156 HD
HETATM   13  H   UNL     1      40.651 -18.226   0.473  1.00  0.00     0.156 HD
ENDROOT
BRANCH   9  14
HETATM   14  C   UNL     1      40.453 -15.264   3.132  1.00  0.00     0.201 C 
HETATM   15  O   UNL     1      39.505 -15.184   2.345  1.00  0.00    -0.286 OA
BRANCH  14  16
HETATM   16  C   UNL     1      40.650 -14.105   4.044  1.00  0.00     0.018 A 
HETATM   17  C   UNL     1      39.815 -13.997   5.167  1.00  0.00     0.055 A 
HETATM   18  C   UNL     1      39.961 -12.887   5.970  1.00  0.00     0.106 A 
HETATM   19  C   UNL     1      40.883 -11.905   5.692  1.00  0.00     0.105 A 
HETATM   20  O   UNL     1      39.237 -12.615   7.089  1.00  0.00    -0.323 OA
HETATM   21  O   UNL     1      40.854 -10.895   6.600  1.00  0.00    -0.323 OA
HETATM   22  C   UNL     1      41.711 -11.976   4.592  1.00  0.00     0.040 A 
HETATM   23  C   UNL     1      39.795 -11.341   7.473  1.00  0.00     0.352 A 
HETATM   24  C   UNL     1      41.585 -13.087   3.751  1.00  0.00     0.018 A 
ENDBRANCH  14  16
ENDBRANCH   9  14
BRANCH   1  25
HETATM   25  C   UNL     1      45.320 -20.856   4.467  1.00  0.00     0.055 C 
HETATM   26  C   UNL     1      44.663 -21.848   5.414  1.00  0.00     0.011 C 
ENDBRANCH   1  25
TORSDOF 3
ENDMDL
MODEL 3
REMARK VINA RESULT:      -8.3      3.494      4.893
REMARK  3 active torsions:
REMARK  status: ('A' for Active; 'I' for Inactive)
REMARK    1  A    between atoms: C_2  and  C_3 
REMARK    2  A    between atoms: C_11  and  C_12 
REMARK    3  A    between atoms: C_12  and  C_13 
ROOT
HETATM    1  C   UNL     1      43.826 -19.688   3.017  1.00  0.00     0.041 A 
HETATM    2  N   UNL     1      43.236 -19.132   1.932  1.00  0.00    -0.245 NA
HETATM    3  C   UNL     1      42.384 -18.123   2.192  1.00  0.00     0.111 A 
HETATM    4  C   UNL     1      42.060 -17.614   3.442  1.00  0.00     0.028 A 
HETATM    5  C   UNL     1      42.683 -18.229   4.548  1.00  0.00     0.025 A 
HETATM    6  C   UNL     1      43.576 -19.289   4.337  1.00  0.00    -0.036 A 
HETATM    7  C   UNL     1      44.250 -19.922   5.519  1.00  0.00     0.050 C 
HETATM    8  S   UNL     1      41.582 -17.315   0.926  1.00  0.00    -0.063 SA
HETATM    9  C   UNL     1      40.756 -16.277   2.011  1.00  0.00     0.085 A 
HETATM   10  C   UNL     1      41.132 -16.530   3.319  1.00  0.00     0.060 A 
HETATM   11  N   UNL     1      40.661 -15.822   4.375  1.00  0.00    -0.397 N 
HETATM   12  H   UNL     1      40.206 -14.921   4.195  1.00  0.00     0.156 HD
HETATM   13  H   UNL     1      41.142 -15.832   5.268  1.00  0.00     0.156 HD
ENDROOT
BRANCH   9  14
HETATM   14  C   UNL     1      39.867 -15.224   1.543  1.00  0.00     0.201 C 
HETATM   15  O   UNL     1      38.696 -15.132   1.922  1.00  0.00    -0.286 OA
BRANCH  14  16
HETATM   16  C   UNL     1      40.314 -14.219   0.539  1.00  0.00     0.018 A 
HETATM   17  C   UNL     1      41.443 -13.441   0.838  1.00  0.00     0.055 A 
HETATM   18  C   UNL     1      41.810 -12.470  -0.067  1.00  0.00     0.106 A 
HETATM   19  C   UNL     1      41.101 -12.251  -1.226  1.00  0.00     0.105 A 
HETATM   20  O   UNL     1      42.866 -11.623   0.062  1.00  0.00    -0.323 OA
HETATM   21  O   UNL     1      41.624 -11.241  -1.969  1.00  0.00    -0.323 OA
HETATM   22  C   UNL     1      39.982 -12.990  -1.544  1.00  0.00     0.040 A 
HETATM   23  C   UNL     1      42.732 -10.834  -1.139  1.00  0.00     0.352 A 
HETATM   24  C   UNL     1      39.578 -13.982  -0.643  1.00  0.00     0.018 A 
ENDBRANCH  14  16
ENDBRANCH   9  14
BRANCH   1  25
HETATM   25  C   UNL     1      44.784 -20.812   2.697  1.00  0.00     0.055 C 
HETATM   26  C   UNL     1      44.149 -21.857   1.793  1.00  0.00     0.011 C 
ENDBRANCH   1  25
TORSDOF 3
ENDMDL
MODEL 4
REMARK VINA RESULT:      -8.3      2.748      3.711
REMARK  3 active torsions:
REMARK  status: ('A' for Active; 'I' for Inactive)
REMARK    1  A    between atoms: C_2  and  C_3 
REMARK    2  A    between atoms: C_11  and  C_12 
REMARK    3  A    between atoms: C_12  and  C_13 
ROOT
HETATM    1  C   UNL     1      44.322 -20.319   4.236  1.00  0.00     0.041 A 
HETATM    2  N   UNL     1      44.020 -19.093   4.727  1.00  0.00    -0.245 NA
HETATM    3  C   UNL     1      43.674 -18.172   3.807  1.00  0.00     0.111 A 
HETATM    4  C   UNL     1      43.606 -18.360   2.434  1.00  0.00     0.028 A 
HETATM    5  C   UNL     1      43.943 -19.645   1.960  1.00  0.00     0.025 A 
HETATM    6  C   UNL     1      44.315 -20.642   2.872  1.00  0.00    -0.036 A 
HETATM    7  C   UNL     1      44.651 -22.012   2.360  1.00  0.00     0.050 C 
HETATM    8  S   UNL     1      43.250 -16.592   4.276  1.00  0.00    -0.063 SA
HETATM    9  C   UNL     1      42.986 -16.101   2.656  1.00  0.00     0.085 A 
HETATM   10  C   UNL     1      43.183 -17.156   1.783  1.00  0.00     0.060 A 
HETATM   11  N   UNL     1      42.999 -17.052   0.443  1.00  0.00    -0.397 N 
HETATM   12  H   UNL     1      42.468 -16.253   0.084  1.00  0.00     0.156 HD
HETATM   13  H   UNL     1      42.879 -17.878  -0.134  1.00  0.00     0.156 HD
ENDROOT
BRANCH   9  14
HETATM   14  C   UNL     1      42.519 -14.763   2.324  1.00  0.00     0.201 C 
HETATM   15  O   UNL     1      43.173 -13.751   2.590  1.00  0.00    -0.286 OA
BRANCH  14  16
HETATM   16  C   UNL     1      41.196 -14.539   1.679  1.00  0.00     0.018 A 
HETATM   17  C   UNL     1      41.157 -13.799   0.487  1.00  0.00     0.055 A 
HETATM   18  C   UNL     1      39.922 -13.541  -0.067  1.00  0.00     0.106 A 
HETATM   19  C   UNL     1      38.757 -13.980   0.518  1.00  0.00     0.105 A 
HETATM   20  O   UNL     1      39.695 -12.838  -1.209  1.00  0.00    -0.323 OA
HETATM   21  O   UNL     1      37.654 -13.608  -0.183  1.00  0.00    -0.323 OA
HETATM   22  C   UNL     1      38.760 -14.700   1.693  1.00  0.00     0.040 A 
HETATM   23  C   UNL     1      38.254 -12.868  -1.266  1.00  0.00     0.352 A 
HETATM   24  C   UNL     1      39.997 -14.974   2.287  1.00  0.00     0.018 A 
ENDBRANCH  14  16
ENDBRANCH   9  14
BRANCH   1  25
HETATM   25  C   UNL     1      44.698 -21.336   5.290  1.00  0.00     0.055 C 
HETATM   26  C   UNL     1      43.914 -21.133   6.577  1.00  0.00     0.011 C 
ENDBRANCH   1  25
TORSDOF 3
ENDMDL
MODEL 5
REMARK VINA RESULT:      -8.2      2.828      3.887
REMARK  3 active torsions:
REMARK  status: ('A' for Active; 'I' for Inactive)
REMARK    1  A    between atoms: C_2  and  C_3 
REMARK    2  A    between atoms: C_11  and  C_12 
REMARK    3  A    between atoms: C_12  and  C_13 
ROOT
HETATM    1  C   UNL     1      44.364 -20.376   3.275  1.00  0.00     0.041 A 
HETATM    2  N   UNL     1      44.163 -19.402   2.355  1.00  0.00    -0.245 NA
HETATM    3  C   UNL     1      43.878 -18.185   2.856  1.00  0.00     0.111 A 
HETATM    4  C   UNL     1      43.769 -17.847   4.198  1.00  0.00     0.028 A 
HETATM    5  C   UNL     1      43.970 -18.892   5.124  1.00  0.00     0.025 A 
HETATM    6  C   UNL     1      44.265 -20.180   4.659  1.00  0.00    -0.036 A 
HETATM    7  C   UNL     1      44.498 -21.280   5.653  1.00  0.00     0.050 C 
HETATM    8  S   UNL     1      43.619 -16.858   1.821  1.00  0.00    -0.063 SA
HETATM    9  C   UNL     1      43.328 -15.795   3.134  1.00  0.00     0.085 A 
HETATM   10  C   UNL     1      43.473 -16.454   4.343  1.00  0.00     0.060 A 
HETATM   11  N   UNL     1      43.339 -15.836   5.542  1.00  0.00    -0.397 N 
HETATM   12  H   UNL     1      43.374 -14.812   5.571  1.00  0.00     0.156 HD
HETATM   13  H   UNL     1      43.712 -16.252   6.390  1.00  0.00     0.156 HD
ENDROOT
BRANCH   9  14
HETATM   14  C   UNL     1      43.069 -14.378   2.933  1.00  0.00     0.201 C 
HETATM   15  O   UNL     1      43.832 -13.502   3.351  1.00  0.00    -0.286 OA
BRANCH  14  16
HETATM   16  C   UNL     1      41.838 -13.902   2.244  1.00  0.00     0.018 A 
HETATM   17  C   UNL     1      40.674 -14.679   2.357  1.00  0.00     0.055 A 
HETATM   18  C   UNL     1      39.558 -14.266   1.663  1.00  0.00     0.106 A 
HETATM   19  C   UNL     1      39.568 -13.136   0.877  1.00  0.00     0.105 A 
HETATM   20  O   UNL     1      38.352 -14.895   1.650  1.00  0.00    -0.323 OA
HETATM   21  O   UNL     1      38.371 -12.916   0.272  1.00  0.00    -0.323 OA
HETATM   22  C   UNL     1      40.696 -12.358   0.737  1.00  0.00     0.040 A 
HETATM   23  C   UNL     1      37.610 -14.045   0.752  1.00  0.00     0.352 A 
HETATM   24  C   UNL     1      41.850 -12.752   1.423  1.00  0.00     0.018 A 
ENDBRANCH  14  16
ENDBRANCH   9  14
BRANCH   1  25
HETATM   25  C   UNL     1      44.691 -21.729   2.686  1.00  0.00     0.055 C 
HETATM   26  C   UNL     1      43.997 -21.949   1.352  1.00  0.00     0.011 C 
ENDBRANCH   1  25
TORSDOF 3
ENDMDL
MODEL 6
REMARK VINA RESULT:      -8.1      2.786      4.021
REMARK  3 active torsions:
REMARK  status: ('A' for Active; 'I' for Inactive)
REMARK    1  A    between atoms: C_2  and  C_3 
REMARK    2  A    between atoms: C_11  and  C_12 
REMARK    3  A    between atoms: C_12  and  C_13 
ROOT
HETATM    1  C   UNL     1      44.398 -20.098   3.659  1.00  0.00     0.041 A 
HETATM    2  N   UNL     1      44.031 -18.931   4.240  1.00  0.00    -0.245 NA
HETATM    3  C   UNL     1      43.134 -18.201   3.551  1.00  0.00     0.111 A 
HETATM    4  C   UNL     1      42.567 -18.526   2.327  1.00  0.00     0.028 A 
HETATM    5  C   UNL     1      42.986 -19.741   1.747  1.00  0.00     0.025 A 
HETATM    6  C   UNL     1      43.922 -20.540   2.417  1.00  0.00    -0.036 A 
HETATM    7  C   UNL     1      44.346 -21.842   1.802  1.00  0.00     0.050 C 
HETATM    8  S   UNL     1      42.564 -16.719   4.166  1.00  0.00    -0.063 SA
HETATM    9  C   UNL     1      41.561 -16.453   2.803  1.00  0.00     0.085 A 
HETATM   10  C   UNL     1      41.640 -17.514   1.918  1.00  0.00     0.060 A 
HETATM   11  N   UNL     1      40.914 -17.579   0.774  1.00  0.00    -0.397 N 
HETATM   12  H   UNL     1      40.107 -16.956   0.672  1.00  0.00     0.156 HD
HETATM   13  H   UNL     1      40.777 -18.461   0.291  1.00  0.00     0.156 HD
ENDROOT
BRANCH   9  14
HETATM   14  C   UNL     1      40.690 -15.291   2.703  1.00  0.00     0.201 C 
HETATM   15  O   UNL     1      39.846 -15.024   3.563  1.00  0.00    -0.286 OA
BRANCH  14  16
HETATM   16  C   UNL     1      40.742 -14.378   1.528  1.00  0.00     0.018 A 
HETATM   17  C   UNL     1      41.853 -13.529   1.398  1.00  0.00     0.055 A 
HETATM   18  C   UNL     1      41.862 -12.643   0.343  1.00  0.00     0.106 A 
HETATM   19  C   UNL     1      40.823 -12.574  -0.556  1.00  0.00     0.105 A 
HETATM   20  O   UNL     1      42.846 -11.746   0.068  1.00  0.00    -0.323 OA
HETATM   21  O   UNL     1      41.025 -11.625  -1.509  1.00  0.00    -0.323 OA
HETATM   22  C   UNL     1      39.714 -13.385  -0.451  1.00  0.00     0.040 A 
HETATM   23  C   UNL     1      42.301 -11.091  -1.097  1.00  0.00     0.352 A 
HETATM   24  C   UNL     1      39.669 -14.294   0.613  1.00  0.00     0.018 A 
ENDBRANCH  14  16
ENDBRANCH   9  14
BRANCH   1  25
HETATM   25  C   UNL     1      45.400 -20.902   4.456  1.00  0.00     0.055 C 
HETATM   26  C   UNL     1      44.721 -21.797   5.481  1.00  0.00     0.011 C 
ENDBRANCH   1  25
TORSDOF 3
ENDMDL
MODEL 7
REMARK VINA RESULT:      -8.0      4.484      7.908
REMARK  3 active torsions:
REMARK  status: ('A' for Active; 'I' for Inactive)
REMARK    1  A    between atoms: C_2  and  C_3 
REMARK    2  A    between atoms: C_11  and  C_12 
REMARK    3  A    between atoms: C_12  and  C_13 
ROOT
HETATM    1  C   UNL     1      42.854 -11.253  -1.441  1.00  0.00     0.041 A 
HETATM    2  N   UNL     1      42.735 -11.708  -0.170  1.00  0.00    -0.245 NA
HETATM    3  C   UNL     1      42.175 -12.926  -0.044  1.00  0.00     0.111 A 
HETATM    4  C   UNL     1      41.716 -13.737  -1.073  1.00  0.00     0.028 A 
HETATM    5  C   UNL     1      41.843 -13.221  -2.380  1.00  0.00     0.025 A 
HETATM    6  C   UNL     1      42.414 -11.955  -2.571  1.00  0.00    -0.036 A 
HETATM    7  C   UNL     1      42.565 -11.425  -3.966  1.00  0.00     0.050 C 
HETATM    8  S   UNL     1      41.978 -13.637   1.490  1.00  0.00    -0.063 SA
HETATM    9  C   UNL     1      41.248 -15.040   0.829  1.00  0.00     0.085 A 
HETATM   10  C   UNL     1      41.203 -14.968  -0.552  1.00  0.00     0.060 A 
HETATM   11  N   UNL     1      40.713 -15.966  -1.329  1.00  0.00    -0.397 N 
HETATM   12  H   UNL     1      40.598 -16.896  -0.914  1.00  0.00     0.156 HD
HETATM   13  H   UNL     1      40.937 -16.016  -2.318  1.00  0.00     0.156 HD
ENDROOT
BRANCH   9  14
HETATM   14  C   UNL     1      40.847 -16.163   1.663  1.00  0.00     0.201 C 
HETATM   15  O   UNL     1      39.674 -16.345   2.004  1.00  0.00    -0.286 OA
BRANCH  14  16
HETATM   16  C   UNL     1      41.842 -17.136   2.190  1.00  0.00     0.018 A 
HETATM   17  C   UNL     1      41.784 -17.471   3.552  1.00  0.00     0.055 A 
HETATM   18  C   UNL     1      42.750 -18.322   4.044  1.00  0.00     0.106 A 
HETATM   19  C   UNL     1      43.747 -18.830   3.244  1.00  0.00     0.105 A 
HETATM   20  O   UNL     1      42.853 -18.747   5.332  1.00  0.00    -0.323 OA
HETATM   21  O   UNL     1      44.601 -19.636   3.929  1.00  0.00    -0.323 OA
HETATM   22  C   UNL     1      43.838 -18.513   1.906  1.00  0.00     0.040 A 
HETATM   23  C   UNL     1      44.039 -19.564   5.256  1.00  0.00     0.352 A 
HETATM   24  C   UNL     1      42.877 -17.645   1.374  1.00  0.00     0.018 A 
ENDBRANCH  14  16
ENDBRANCH   9  14
BRANCH   1  25
HETATM   25  C   UNL     1      43.492  -9.887  -1.555  1.00  0.00     0.055 C 
HETATM   26  C   UNL     1      43.195  -9.020  -0.342  1.00  0.00     0.011 C 
ENDBRANCH   1  25
TORSDOF 3
ENDMDL
MODEL 8
REMARK VINA RESULT:      -8.0      3.606      4.968
REMARK  3 active torsions:
REMARK  status: ('A' for Active; 'I' for Inactive)
REMARK    1  A    between atoms: C_2  and  C_3 
REMARK    2  A    between atoms: C_11  and  C_12 
REMARK    3  A    between atoms: C_12  and  C_13 
ROOT
HETATM    1  C   UNL     1      44.113 -19.973   3.033  1.00  0.00     0.041 A 
HETATM    2  N   UNL     1      43.697 -19.252   1.965  1.00  0.00    -0.245 NA
HETATM    3  C   UNL     1      43.329 -17.985   2.233  1.00  0.00     0.111 A 
HETATM    4  C   UNL     1      43.332 -17.367   3.475  1.00  0.00     0.028 A 
HETATM    5  C   UNL     1      43.757 -18.155   4.565  1.00  0.00     0.025 A 
HETATM    6  C   UNL     1      44.148 -19.483   4.346  1.00  0.00    -0.036 A 
HETATM    7  C   UNL     1      44.619 -20.308   5.508  1.00  0.00     0.050 C 
HETATM    8  S   UNL     1      42.802 -16.951   0.987  1.00  0.00    -0.063 SA
HETATM    9  C   UNL     1      42.536 -15.653   2.073  1.00  0.00     0.085 A 
HETATM   10  C   UNL     1      42.892 -16.009   3.362  1.00  0.00     0.060 A 
HETATM   11  N   UNL     1      42.822 -15.153   4.412  1.00  0.00    -0.397 N 
HETATM   12  H   UNL     1      42.739 -14.150   4.219  1.00  0.00     0.156 HD
HETATM   13  H   UNL     1      43.334 -15.334   5.270  1.00  0.00     0.156 HD
ENDROOT
BRANCH   9  14
HETATM   14  C   UNL     1      42.091 -14.345   1.615  1.00  0.00     0.201 C 
HETATM   15  O   UNL     1      42.645 -13.300   1.966  1.00  0.00    -0.286 OA
BRANCH  14  16
HETATM   16  C   UNL     1      40.907 -14.194   0.726  1.00  0.00     0.018 A 
HETATM   17  C   UNL     1      41.130 -13.960  -0.640  1.00  0.00     0.055 A 
HETATM   18  C   UNL     1      40.030 -13.757  -1.444  1.00  0.00     0.106 A 
HETATM   19  C   UNL     1      38.750 -13.774  -0.940  1.00  0.00     0.105 A 
HETATM   20  O   UNL     1      40.058 -13.510  -2.781  1.00  0.00    -0.323 OA
HETATM   21  O   UNL     1      37.814 -13.539  -1.898  1.00  0.00    -0.323 OA
HETATM   22  C   UNL     1      38.497 -13.991   0.397  1.00  0.00     0.040 A 
HETATM   23  C   UNL     1      38.651 -13.354  -3.059  1.00  0.00     0.352 A 
HETATM   24  C   UNL     1      39.592 -14.195   1.243  1.00  0.00     0.018 A 
ENDBRANCH  14  16
ENDBRANCH   9  14
BRANCH   1  25
HETATM   25  C   UNL     1      44.529 -21.389   2.704  1.00  0.00     0.055 C 
HETATM   26  C   UNL     1      43.841 -21.904   1.450  1.00  0.00     0.011 C 
ENDBRANCH   1  25
TORSDOF 3
ENDMDL
MODEL 9
REMARK VINA RESULT:      -7.8      3.122      8.028
REMARK  3 active torsions:
REMARK  status: ('A' for Active; 'I' for Inactive)
REMARK    1  A    between atoms: C_2  and  C_3 
REMARK    2  A    between atoms: C_11  and  C_12 
REMARK    3  A    between atoms: C_12  and  C_13 
ROOT
HETATM    1  C   UNL     1      41.318 -12.118   5.478  1.00  0.00     0.041 A 
HETATM    2  N   UNL     1      42.314 -12.535   4.660  1.00  0.00    -0.245 NA
HETATM    3  C   UNL     1      42.227 -13.816   4.253  1.00  0.00     0.111 A 
HETATM    4  C   UNL     1      41.236 -14.726   4.590  1.00  0.00     0.028 A 
HETATM    5  C   UNL     1      40.225 -14.258   5.456  1.00  0.00     0.025 A 
HETATM    6  C   UNL     1      40.267 -12.935   5.915  1.00  0.00    -0.036 A 
HETATM    7  C   UNL     1      39.176 -12.440   6.818  1.00  0.00     0.050 C 
HETATM    8  S   UNL     1      43.397 -14.476   3.206  1.00  0.00    -0.063 SA
HETATM    9  C   UNL     1      42.629 -16.008   3.192  1.00  0.00     0.085 A 
HETATM   10  C   UNL     1      41.470 -15.985   3.949  1.00  0.00     0.060 A 
HETATM   11  N   UNL     1      40.646 -17.056   4.073  1.00  0.00    -0.397 N 
HETATM   12  H   UNL     1      40.741 -17.825   3.403  1.00  0.00     0.156 HD
HETATM   13  H   UNL     1      39.689 -16.944   4.391  1.00  0.00     0.156 HD
ENDROOT
BRANCH   9  14
HETATM   14  C   UNL     1      43.129 -17.112   2.387  1.00  0.00     0.201 C 
HETATM   15  O   UNL     1      43.065 -17.111   1.154  1.00  0.00    -0.286 OA
BRANCH  14  16
HETATM   16  C   UNL     1      43.710 -18.331   3.013  1.00  0.00     0.018 A 
HETATM   17  C   UNL     1      43.697 -19.525   2.275  1.00  0.00     0.055 A 
HETATM   18  C   UNL     1      44.177 -20.662   2.887  1.00  0.00     0.106 A 
HETATM   19  C   UNL     1      44.650 -20.647   4.179  1.00  0.00     0.105 A 
HETATM   20  O   UNL     1      44.234 -21.901   2.329  1.00  0.00    -0.323 OA
HETATM   21  O   UNL     1      45.063 -21.874   4.593  1.00  0.00    -0.323 OA
HETATM   22  C   UNL     1      44.668 -19.494   4.934  1.00  0.00     0.040 A 
HETATM   23  C   UNL     1      44.779 -22.668   3.422  1.00  0.00     0.352 A 
HETATM   24  C   UNL     1      44.181 -18.322   4.345  1.00  0.00     0.018 A 
ENDBRANCH  14  16
ENDBRANCH   9  14
BRANCH   1  25
HETATM   25  C   UNL     1      41.435 -10.675   5.913  1.00  0.00     0.055 C 
HETATM   26  C   UNL     1      40.938  -9.718   4.842  1.00  0.00     0.011 C 
ENDBRANCH   1  25
TORSDOF 3
ENDMDL
MODEL 10
REMARK VINA RESULT:      -7.5      2.303      3.555
REMARK  3 active torsions:
REMARK  status: ('A' for Active; 'I' for Inactive)
REMARK    1  A    between atoms: C_2  and  C_3 
REMARK    2  A    between atoms: C_11  and  C_12 
REMARK    3  A    between atoms: C_12  and  C_13 
ROOT
HETATM    1  C   UNL     1      44.161 -20.877   3.475  1.00  0.00     0.041 A 
HETATM    2  N   UNL     1      43.613 -19.762   2.936  1.00  0.00    -0.245 NA
HETATM    3  C   UNL     1      43.610 -18.677   3.734  1.00  0.00     0.111 A 
HETATM    4  C   UNL     1      44.101 -18.601   5.030  1.00  0.00     0.028 A 
HETATM    5  C   UNL     1      44.649 -19.788   5.562  1.00  0.00     0.025 A 
HETATM    6  C   UNL     1      44.674 -20.949   4.777  1.00  0.00    -0.036 A 
HETATM    7  C   UNL     1      45.278 -22.200   5.344  1.00  0.00     0.050 C 
HETATM    8  S   UNL     1      42.973 -17.197   3.186  1.00  0.00    -0.063 SA
HETATM    9  C   UNL     1      43.309 -16.415   4.674  1.00  0.00     0.085 A 
HETATM   10  C   UNL     1      43.940 -17.278   5.552  1.00  0.00     0.060 A 
HETATM   11  N   UNL     1      44.356 -16.903   6.788  1.00  0.00    -0.397 N 
HETATM   12  H   UNL     1      44.432 -15.902   6.994  1.00  0.00     0.156 HD
HETATM   13  H   UNL     1      45.044 -17.449   7.296  1.00  0.00     0.156 HD
ENDROOT
BRANCH   9  14
HETATM   14  C   UNL     1      43.033 -15.001   4.879  1.00  0.00     0.201 C 
HETATM   15  O   UNL     1      43.462 -14.380   5.856  1.00  0.00    -0.286 OA
BRANCH  14  16
HETATM   16  C   UNL     1      42.176 -14.231   3.936  1.00  0.00     0.018 A 
HETATM   17  C   UNL     1      42.804 -13.519   2.902  1.00  0.00     0.055 A 
HETATM   18  C   UNL     1      42.008 -12.758   2.074  1.00  0.00     0.106 A 
HETATM   19  C   UNL     1      40.645 -12.680   2.245  1.00  0.00     0.105 A 
HETATM   20  O   UNL     1      42.443 -12.001   1.030  1.00  0.00    -0.323 OA
HETATM   21  O   UNL     1      40.054 -11.866   1.331  1.00  0.00    -0.323 OA
HETATM   22  C   UNL     1      40.000 -13.358   3.257  1.00  0.00     0.040 A 
HETATM   23  C   UNL     1      41.201 -11.424   0.575  1.00  0.00     0.352 A 
HETATM   24  C   UNL     1      40.779 -14.136   4.121  1.00  0.00     0.018 A 
ENDBRANCH  14  16
ENDBRANCH   9  14
BRANCH   1  25
HETATM   25  C   UNL     1      44.159 -22.077   2.556  1.00  0.00     0.055 C 
HETATM   26  C   UNL     1      44.200 -21.669   1.092  1.00  0.00     0.011 C 
ENDBRANCH   1  25
TORSDOF 3
ENDMDL
