MODEL 1
REMARK VINA RESULT:      -8.4      0.000      0.000
REMARK  5 active torsions:
REMARK  status: ('A' for Active; 'I' for Inactive)
REMARK    1  A    between atoms: C_4  and  C_5 
REMARK       I    between atoms: C_5  and  N_6 
REMARK    2  A    between atoms: N_6  and  C_7 
REMARK    3  A    between atoms: C_10  and  N_11 
REMARK       I    between atoms: N_11  and  C_12 
REMARK       I    between atoms: C_12  and  N_13 
REMARK    4  A    between atoms: N_13  and  C_14 
REMARK    5  A    between atoms: C_14  and  C_15 
ROOT
HETATM    1  C   UNL     1      41.724 -16.830   4.408  1.00  0.00     0.035 A 
HETATM    2  C   UNL     1      41.234 -16.797   5.714  1.00  0.00     0.032 A 
HETATM    3  C   UNL     1      40.607 -15.643   6.221  1.00  0.00     0.032 A 
HETATM    4  C   UNL     1      40.482 -14.501   5.432  1.00  0.00     0.036 A 
HETATM    5  C   UNL     1      40.981 -14.539   4.124  1.00  0.00     0.032 A 
HETATM    6  C   UNL     1      41.594 -15.687   3.617  1.00  0.00     0.032 A 
ENDROOT
BRANCH   4   7
HETATM    7  N   UNL     1      39.840 -13.308   5.804  1.00  0.00    -0.309 N 
HETATM    8  C   UNL     1      40.170 -12.238   6.563  1.00  0.00     0.321 C 
HETATM    9  N   UNL     1      41.455 -12.056   6.942  1.00  0.00    -0.337 N 
HETATM   10  O   UNL     1      39.278 -11.443   6.865  1.00  0.00    -0.247 OA
HETATM   11  H   UNL     1      42.170 -12.372   6.301  1.00  0.00     0.164 HD
HETATM   12  H   UNL     1      38.875 -13.220   5.510  1.00  0.00     0.170 HD
BRANCH   9  13
HETATM   13  C   UNL     1      41.793 -10.852   7.673  1.00  0.00     0.183 C 
BRANCH  13  14
HETATM   14  C   UNL     1      42.896 -11.045   8.687  1.00  0.00     0.053 A 
HETATM   15  N   UNL     1      44.002 -11.749   8.322  1.00  0.00    -0.264 NA
HETATM   16  C   UNL     1      44.987 -11.885   9.239  1.00  0.00     0.118 A 
HETATM   17  C   UNL     1      44.939 -11.337  10.506  1.00  0.00     0.043 A 
HETATM   18  C   UNL     1      43.810 -10.608  10.848  1.00  0.00     0.037 A 
HETATM   19 CL   UNL     1      43.696  -9.885  12.406  1.00  0.00    -0.084 Cl
HETATM   20  C   UNL     1      42.772 -10.453   9.940  1.00  0.00     0.052 A 
ENDBRANCH  13  14
ENDBRANCH   9  13
ENDBRANCH   4   7
BRANCH   1  21
HETATM   21  N   UNL     1      42.321 -17.949   3.805  1.00  0.00    -0.321 N 
HETATM   22  C   UNL     1      43.535 -18.546   4.088  1.00  0.00     0.279 C 
HETATM   23  O   UNL     1      44.355 -18.142   4.905  1.00  0.00    -0.265 OA
HETATM   24  H   UNL     1      41.794 -18.411   3.071  1.00  0.00     0.169 HD
BRANCH  22  25
HETATM   25  C   UNL     1      43.755 -19.744   3.292  1.00  0.00     0.142 A 
HETATM   26  O   UNL     1      44.554 -20.745   3.792  1.00  0.00    -0.317 OA
HETATM   27  C   UNL     1      44.606 -21.724   2.851  1.00  0.00     0.143 A 
HETATM   28  C   UNL     1      43.853 -21.380   1.755  1.00  0.00     0.027 A 
HETATM   29  C   UNL     1      43.303 -20.106   2.037  1.00  0.00     0.045 A 
ENDBRANCH  22  25
ENDBRANCH   1  21
TORSDOF 5
ENDMDL
MODEL 2
REMARK VINA RESULT:      -8.2      1.010      1.382
REMARK  5 active torsions:
REMARK  status: ('A' for Active; 'I' for Inactive)
REMARK    1  A    between atoms: C_4  and  C_5 
REMARK       I    between atoms: C_5  and  N_6 
REMARK    2  A    between atoms: N_6  and  C_7 
REMARK    3  A    between atoms: C_10  and  N_11 
REMARK       I    between atoms: N_11  and  C_12 
REMARK       I    between atoms: C_12  and  N_13 
REMARK    4  A    between atoms: N_13  and  C_14 
REMARK    5  A    between atoms: C_14  and  C_15 
ROOT
HETATM    1  C   UNL     1      42.107 -15.713   4.418  1.00  0.00     0.035 A 
HETATM    2  C   UNL     1      42.540 -14.431   4.078  1.00  0.00     0.032 A 
HETATM    3  C   UNL     1      41.835 -13.292   4.513  1.00  0.00     0.032 A 
HETATM    4  C   UNL     1      40.677 -13.425   5.277  1.00  0.00     0.036 A 
HETATM    5  C   UNL     1      40.246 -14.716   5.611  1.00  0.00     0.032 A 
HETATM    6  C   UNL     1      40.950 -15.846   5.188  1.00  0.00     0.032 A 
ENDROOT
BRANCH   4   7
HETATM    7  N   UNL     1      39.913 -12.373   5.807  1.00  0.00    -0.309 N 
HETATM    8  C   UNL     1      40.067 -11.493   6.823  1.00  0.00     0.321 C 
HETATM    9  N   UNL     1      41.276 -11.357   7.414  1.00  0.00    -0.337 N 
HETATM   10  O   UNL     1      39.091 -10.821   7.162  1.00  0.00    -0.247 OA
HETATM   11  H   UNL     1      42.089 -11.493   6.829  1.00  0.00     0.164 HD
HETATM   12  H   UNL     1      38.992 -12.254   5.403  1.00  0.00     0.170 HD
BRANCH   9  13
HETATM   13  C   UNL     1      41.432 -10.340   8.434  1.00  0.00     0.183 C 
BRANCH  13  14
HETATM   14  C   UNL     1      42.630 -10.557   9.330  1.00  0.00     0.053 A 
HETATM   15  N   UNL     1      43.740 -11.142   8.804  1.00  0.00    -0.264 NA
HETATM   16  C   UNL     1      44.808 -11.300   9.619  1.00  0.00     0.118 A 
HETATM   17  C   UNL     1      44.838 -10.885  10.936  1.00  0.00     0.043 A 
HETATM   18  C   UNL     1      43.702 -10.274  11.443  1.00  0.00     0.037 A 
HETATM   19 CL   UNL     1      43.681  -9.718  13.072  1.00  0.00    -0.084 Cl
HETATM   20  C   UNL     1      42.580 -10.102  10.643  1.00  0.00     0.052 A 
ENDBRANCH  13  14
ENDBRANCH   9  13
ENDBRANCH   4   7
BRANCH   1  21
HETATM   21  N   UNL     1      42.771 -16.901   4.069  1.00  0.00    -0.321 N 
HETATM   22  C   UNL     1      43.674 -17.642   4.809  1.00  0.00     0.279 C 
HETATM   23  O   UNL     1      44.111 -17.339   5.914  1.00  0.00    -0.265 OA
HETATM   24  H   UNL     1      42.556 -17.298   3.160  1.00  0.00     0.169 HD
BRANCH  22  25
HETATM   25  C   UNL     1      44.073 -18.862   4.123  1.00  0.00     0.142 A 
HETATM   26  O   UNL     1      44.762 -19.828   4.817  1.00  0.00    -0.317 OA
HETATM   27  C   UNL     1      45.024 -20.837   3.947  1.00  0.00     0.143 A 
HETATM   28  C   UNL     1      44.513 -20.547   2.705  1.00  0.00     0.027 A 
HETATM   29  C   UNL     1      43.899 -19.276   2.816  1.00  0.00     0.045 A 
ENDBRANCH  22  25
ENDBRANCH   1  21
TORSDOF 5
ENDMDL
MODEL 3
REMARK VINA RESULT:      -7.9      1.766      2.247
REMARK  5 active torsions:
REMARK  status: ('A' for Active; 'I' for Inactive)
REMARK    1  A    between atoms: C_4  and  C_5 
REMARK       I    between atoms: C_5  and  N_6 
REMARK    2  A    between atoms: N_6  and  C_7 
REMARK    3  A    between atoms: C_10  and  N_11 
REMARK       I    between atoms: N_11  and  C_12 
REMARK       I    between atoms: C_12  and  N_13 
REMARK    4  A    between atoms: N_13  and  C_14 
REMARK    5  A    between atoms: C_14  and  C_15 
ROOT
HETATM    1  C   UNL     1      42.099 -15.379   4.784  1.00  0.00     0.035 A 
HETATM    2  C   UNL     1      42.639 -14.145   4.417  1.00  0.00     0.032 A 
HETATM    3  C   UNL     1      41.977 -12.944   4.737  1.00  0.00     0.032 A 
HETATM    4  C   UNL     1      40.758 -12.966   5.412  1.00  0.00     0.036 A 
HETATM    5  C   UNL     1      40.220 -14.208   5.773  1.00  0.00     0.032 A 
HETATM    6  C   UNL     1      40.880 -15.399   5.465  1.00  0.00     0.032 A 
ENDROOT
BRANCH   4   7
HETATM    7  N   UNL     1      40.025 -11.842   5.826  1.00  0.00    -0.309 N 
HETATM    8  C   UNL     1      39.862 -11.181   6.995  1.00  0.00     0.321 C 
HETATM    9  N   UNL     1      40.695 -11.435   8.030  1.00  0.00    -0.337 N 
HETATM   10  O   UNL     1      38.963 -10.341   7.067  1.00  0.00    -0.247 OA
HETATM   11  H   UNL     1      41.647 -11.685   7.801  1.00  0.00     0.164 HD
HETATM   12  H   UNL     1      39.406 -11.442   5.131  1.00  0.00     0.170 HD
BRANCH   9  13
HETATM   13  C   UNL     1      40.555 -10.644   9.235  1.00  0.00     0.183 C 
BRANCH  13  14
HETATM   14  C   UNL     1      41.753 -10.719  10.154  1.00  0.00     0.053 A 
HETATM   15  N   UNL     1      41.542 -10.839  11.493  1.00  0.00    -0.264 NA
HETATM   16  C   UNL     1      42.630 -10.931  12.290  1.00  0.00     0.118 A 
HETATM   17  C   UNL     1      43.929 -10.930  11.823  1.00  0.00     0.043 A 
HETATM   18  C   UNL     1      44.118 -10.826  10.453  1.00  0.00     0.037 A 
HETATM   19 CL   UNL     1      45.712 -10.836   9.804  1.00  0.00    -0.084 Cl
HETATM   20  C   UNL     1      43.028 -10.719   9.600  1.00  0.00     0.052 A 
ENDBRANCH  13  14
ENDBRANCH   9  13
ENDBRANCH   4   7
BRANCH   1  21
HETATM   21  N   UNL     1      42.711 -16.622   4.548  1.00  0.00    -0.321 N 
HETATM   22  C   UNL     1      42.551 -17.480   3.476  1.00  0.00     0.279 C 
HETATM   23  O   UNL     1      41.768 -17.321   2.546  1.00  0.00    -0.265 OA
HETATM   24  H   UNL     1      43.382 -16.942   5.239  1.00  0.00     0.169 HD
BRANCH  22  25
HETATM   25  C   UNL     1      43.432 -18.635   3.563  1.00  0.00     0.142 A 
HETATM   26  O   UNL     1      44.032 -18.932   4.764  1.00  0.00    -0.317 OA
HETATM   27  C   UNL     1      44.807 -20.029   4.564  1.00  0.00     0.143 A 
HETATM   28  C   UNL     1      44.715 -20.453   3.260  1.00  0.00     0.027 A 
HETATM   29  C   UNL     1      43.829 -19.557   2.614  1.00  0.00     0.045 A 
ENDBRANCH  22  25
ENDBRANCH   1  21
TORSDOF 5
ENDMDL
MODEL 4
REMARK VINA RESULT:      -7.5      2.175      2.735
REMARK  5 active torsions:
REMARK  status: ('A' for Active; 'I' for Inactive)
REMARK    1  A    between atoms: C_4  and  C_5 
REMARK       I    between atoms: C_5  and  N_6 
REMARK    2  A    between atoms: N_6  and  C_7 
REMARK    3  A    between atoms: C_10  and  N_11 
REMARK       I    between atoms: N_11  and  C_12 
REMARK       I    between atoms: C_12  and  N_13 
REMARK    4  A    between atoms: N_13  and  C_14 
REMARK    5  A    between atoms: C_14  and  C_15 
ROOT
HETATM    1  C   UNL     1      42.394 -15.932   5.679  1.00  0.00     0.035 A 
HETATM    2  C   UNL     1      43.088 -14.721   5.656  1.00  0.00     0.032 A 
HETATM    3  C   UNL     1      42.404 -13.495   5.765  1.00  0.00     0.032 A 
HETATM    4  C   UNL     1      41.015 -13.467   5.878  1.00  0.00     0.036 A 
HETATM    5  C   UNL     1      40.325 -14.685   5.895  1.00  0.00     0.032 A 
HETATM    6  C   UNL     1      41.003 -15.902   5.797  1.00  0.00     0.032 A 
ENDROOT
BRANCH   4   7
HETATM    7  N   UNL     1      40.224 -12.317   6.037  1.00  0.00    -0.309 N 
HETATM    8  C   UNL     1      40.165 -11.311   6.940  1.00  0.00     0.321 C 
HETATM    9  N   UNL     1      41.172 -11.148   7.828  1.00  0.00    -0.337 N 
HETATM   10  O   UNL     1      39.193 -10.555   6.905  1.00  0.00    -0.247 OA
HETATM   11  H   UNL     1      42.101 -11.400   7.518  1.00  0.00     0.164 HD
HETATM   12  H   UNL     1      39.462 -12.215   5.379  1.00  0.00     0.170 HD
BRANCH   9  13
HETATM   13  C   UNL     1      41.126 -10.006   8.718  1.00  0.00     0.183 C 
BRANCH  13  14
HETATM   14  C   UNL     1      41.167 -10.376  10.183  1.00  0.00     0.053 A 
HETATM   15  N   UNL     1      40.218 -11.220  10.670  1.00  0.00    -0.264 NA
HETATM   16  C   UNL     1      40.293 -11.557  11.977  1.00  0.00     0.118 A 
HETATM   17  C   UNL     1      41.282 -11.109  12.832  1.00  0.00     0.043 A 
HETATM   18  C   UNL     1      42.249 -10.265  12.307  1.00  0.00     0.037 A 
HETATM   19 CL   UNL     1      43.519  -9.686  13.314  1.00  0.00    -0.084 Cl
HETATM   20  C   UNL     1      42.203  -9.887  10.972  1.00  0.00     0.052 A 
ENDBRANCH  13  14
ENDBRANCH   9  13
ENDBRANCH   4   7
BRANCH   1  21
HETATM   21  N   UNL     1      42.995 -17.200   5.623  1.00  0.00    -0.321 N 
HETATM   22  C   UNL     1      43.283 -18.072   6.657  1.00  0.00     0.279 C 
HETATM   23  O   UNL     1      43.112 -17.846   7.850  1.00  0.00    -0.265 OA
HETATM   24  H   UNL     1      43.240 -17.553   4.704  1.00  0.00     0.169 HD
BRANCH  22  25
HETATM   25  C   UNL     1      43.832 -19.330   6.175  1.00  0.00     0.142 A 
HETATM   26  O   UNL     1      44.567 -19.341   5.013  1.00  0.00    -0.317 OA
HETATM   27  C   UNL     1      44.936 -20.628   4.784  1.00  0.00     0.143 A 
HETATM   28  C   UNL     1      44.461 -21.450   5.777  1.00  0.00     0.027 A 
HETATM   29  C   UNL     1      43.750 -20.616   6.674  1.00  0.00     0.045 A 
ENDBRANCH  22  25
ENDBRANCH   1  21
TORSDOF 5
ENDMDL
MODEL 5
REMARK VINA RESULT:      -7.4      5.541      7.568
REMARK  5 active torsions:
REMARK  status: ('A' for Active; 'I' for Inactive)
REMARK    1  A    between atoms: C_4  and  C_5 
REMARK       I    between atoms: C_5  and  N_6 
REMARK    2  A    between atoms: N_6  and  C_7 
REMARK    3  A    between atoms: C_10  and  N_11 
REMARK       I    between atoms: N_11  and  C_12 
REMARK       I    between atoms: C_12  and  N_13 
REMARK    4  A    between atoms: N_13  and  C_14 
REMARK    5  A    between atoms: C_14  and  C_15 
ROOT
HETATM    1  C   UNL     1      40.522 -14.579   1.022  1.00  0.00     0.035 A 
HETATM    2  C   UNL     1      39.819 -14.624   2.227  1.00  0.00     0.032 A 
HETATM    3  C   UNL     1      40.447 -14.287   3.441  1.00  0.00     0.032 A 
HETATM    4  C   UNL     1      41.791 -13.920   3.466  1.00  0.00     0.036 A 
HETATM    5  C   UNL     1      42.492 -13.882   2.254  1.00  0.00     0.032 A 
HETATM    6  C   UNL     1      41.868 -14.206   1.047  1.00  0.00     0.032 A 
ENDROOT
BRANCH   4   7
HETATM    7  N   UNL     1      42.516 -13.520   4.600  1.00  0.00    -0.309 N 
HETATM    8  C   UNL     1      43.131 -14.161   5.621  1.00  0.00     0.321 C 
HETATM    9  N   UNL     1      43.346 -15.494   5.543  1.00  0.00    -0.337 N 
HETATM   10  O   UNL     1      43.501 -13.492   6.587  1.00  0.00    -0.247 OA
HETATM   11  H   UNL     1      43.515 -15.877   4.623  1.00  0.00     0.164 HD
HETATM   12  H   UNL     1      42.552 -12.522   4.767  1.00  0.00     0.170 HD
BRANCH   9  13
HETATM   13  C   UNL     1      44.091 -16.134   6.607  1.00  0.00     0.183 C 
BRANCH  13  14
HETATM   14  C   UNL     1      44.109 -17.642   6.514  1.00  0.00     0.053 A 
HETATM   15  N   UNL     1      43.727 -18.367   7.600  1.00  0.00    -0.264 NA
HETATM   16  C   UNL     1      43.727 -19.715   7.483  1.00  0.00     0.118 A 
HETATM   17  C   UNL     1      44.071 -20.386   6.326  1.00  0.00     0.043 A 
HETATM   18  C   UNL     1      44.437 -19.625   5.227  1.00  0.00     0.037 A 
HETATM   19 CL   UNL     1      44.860 -20.399   3.749  1.00  0.00    -0.084 Cl
HETATM   20  C   UNL     1      44.461 -18.239   5.308  1.00  0.00     0.052 A 
ENDBRANCH  13  14
ENDBRANCH   9  13
ENDBRANCH   4   7
BRANCH   1  21
HETATM   21  N   UNL     1      39.968 -14.853  -0.239  1.00  0.00    -0.321 N 
HETATM   22  C   UNL     1      39.636 -13.973  -1.253  1.00  0.00     0.279 C 
HETATM   23  O   UNL     1      39.715 -12.751  -1.191  1.00  0.00    -0.265 OA
HETATM   24  H   UNL     1      39.799 -15.828  -0.466  1.00  0.00     0.169 HD
BRANCH  22  25
HETATM   25  C   UNL     1      39.163 -14.662  -2.443  1.00  0.00     0.142 A 
HETATM   26  O   UNL     1      37.845 -14.535  -2.815  1.00  0.00    -0.317 OA
HETATM   27  C   UNL     1      37.669 -15.287  -3.932  1.00  0.00     0.143 A 
HETATM   28  C   UNL     1      38.847 -15.894  -4.296  1.00  0.00     0.027 A 
HETATM   29  C   UNL     1      39.810 -15.492  -3.339  1.00  0.00     0.045 A 
ENDBRANCH  22  25
ENDBRANCH   1  21
TORSDOF 5
ENDMDL
MODEL 6
REMARK VINA RESULT:      -7.4      4.216      9.496
REMARK  5 active torsions:
REMARK  status: ('A' for Active; 'I' for Inactive)
REMARK    1  A    between atoms: C_4  and  C_5 
REMARK       I    between atoms: C_5  and  N_6 
REMARK    2  A    between atoms: N_6  and  C_7 
REMARK    3  A    between atoms: C_10  and  N_11 
REMARK       I    between atoms: N_11  and  C_12 
REMARK       I    between atoms: C_12  and  N_13 
REMARK    4  A    between atoms: N_13  and  C_14 
REMARK    5  A    between atoms: C_14  and  C_15 
ROOT
HETATM    1  C   UNL     1      40.756 -12.469   5.980  1.00  0.00     0.035 A 
HETATM    2  C   UNL     1      41.438 -11.896   4.906  1.00  0.00     0.032 A 
HETATM    3  C   UNL     1      41.493 -12.545   3.657  1.00  0.00     0.032 A 
HETATM    4  C   UNL     1      40.883 -13.785   3.476  1.00  0.00     0.036 A 
HETATM    5  C   UNL     1      40.205 -14.356   4.560  1.00  0.00     0.032 A 
HETATM    6  C   UNL     1      40.141 -13.709   5.796  1.00  0.00     0.032 A 
ENDROOT
BRANCH   4   7
HETATM    7  N   UNL     1      40.829 -14.509   2.274  1.00  0.00    -0.309 N 
HETATM    8  C   UNL     1      41.650 -15.374   1.637  1.00  0.00     0.321 C 
HETATM    9  N   UNL     1      42.706 -15.904   2.296  1.00  0.00    -0.337 N 
HETATM   10  O   UNL     1      41.389 -15.672   0.470  1.00  0.00    -0.247 OA
HETATM   11  H   UNL     1      42.594 -16.060   3.289  1.00  0.00     0.164 HD
HETATM   12  H   UNL     1      40.031 -14.313   1.681  1.00  0.00     0.170 HD
BRANCH   9  13
HETATM   13  C   UNL     1      43.511 -16.899   1.619  1.00  0.00     0.183 C 
BRANCH  13  14
HETATM   14  C   UNL     1      43.874 -18.082   2.487  1.00  0.00     0.053 A 
HETATM   15  N   UNL     1      44.030 -17.885   3.824  1.00  0.00    -0.264 NA
HETATM   16  C   UNL     1      44.328 -18.964   4.583  1.00  0.00     0.118 A 
HETATM   17  C   UNL     1      44.462 -20.244   4.082  1.00  0.00     0.043 A 
HETATM   18  C   UNL     1      44.279 -20.422   2.719  1.00  0.00     0.037 A 
HETATM   19 CL   UNL     1      44.414 -21.995   2.034  1.00  0.00    -0.084 Cl
HETATM   20  C   UNL     1      43.982 -19.339   1.903  1.00  0.00     0.052 A 
ENDBRANCH  13  14
ENDBRANCH   9  13
ENDBRANCH   4   7
BRANCH   1  21
HETATM   21  N   UNL     1      40.610 -11.874   7.244  1.00  0.00    -0.321 N 
HETATM   22  C   UNL     1      39.732 -10.884   7.643  1.00  0.00     0.279 C 
HETATM   23  O   UNL     1      38.945 -10.291   6.912  1.00  0.00    -0.265 OA
HETATM   24  H   UNL     1      41.208 -12.221   7.987  1.00  0.00     0.169 HD
BRANCH  22  25
HETATM   25  C   UNL     1      39.836 -10.600   9.066  1.00  0.00     0.142 A 
HETATM   26  O   UNL     1      40.949 -11.022   9.755  1.00  0.00    -0.317 OA
HETATM   27  C   UNL     1      40.783 -10.650  11.051  1.00  0.00     0.143 A 
HETATM   28  C   UNL     1      39.589  -9.991  11.214  1.00  0.00     0.027 A 
HETATM   29  C   UNL     1      38.978  -9.957   9.937  1.00  0.00     0.045 A 
ENDBRANCH  22  25
ENDBRANCH   1  21
TORSDOF 5
ENDMDL
MODEL 7
REMARK VINA RESULT:      -7.3      3.295      9.149
REMARK  5 active torsions:
REMARK  status: ('A' for Active; 'I' for Inactive)
REMARK    1  A    between atoms: C_4  and  C_5 
REMARK       I    between atoms: C_5  and  N_6 
REMARK    2  A    between atoms: N_6  and  C_7 
REMARK    3  A    between atoms: C_10  and  N_11 
REMARK       I    between atoms: N_11  and  C_12 
REMARK       I    between atoms: C_12  and  N_13 
REMARK    4  A    between atoms: N_13  and  C_14 
REMARK    5  A    between atoms: C_14  and  C_15 
ROOT
HETATM    1  C   UNL     1      41.129 -13.107   5.499  1.00  0.00     0.035 A 
HETATM    2  C   UNL     1      42.138 -12.796   4.588  1.00  0.00     0.032 A 
HETATM    3  C   UNL     1      42.378 -13.617   3.469  1.00  0.00     0.032 A 
HETATM    4  C   UNL     1      41.623 -14.770   3.262  1.00  0.00     0.036 A 
HETATM    5  C   UNL     1      40.614 -15.078   4.184  1.00  0.00     0.032 A 
HETATM    6  C   UNL     1      40.369 -14.259   5.288  1.00  0.00     0.032 A 
ENDROOT
BRANCH   4   7
HETATM    7  N   UNL     1      41.734 -15.643   2.167  1.00  0.00    -0.309 N 
HETATM    8  C   UNL     1      42.528 -16.692   1.853  1.00  0.00     0.321 C 
HETATM    9  N   UNL     1      43.297 -17.260   2.810  1.00  0.00    -0.337 N 
HETATM   10  O   UNL     1      42.503 -17.113   0.696  1.00  0.00    -0.247 OA
HETATM   11  H   UNL     1      42.931 -17.258   3.752  1.00  0.00     0.164 HD
HETATM   12  H   UNL     1      41.141 -15.428   1.375  1.00  0.00     0.170 HD
BRANCH   9  13
HETATM   13  C   UNL     1      44.063 -18.440   2.466  1.00  0.00     0.183 C 
BRANCH  13  14
HETATM   14  C   UNL     1      44.205 -19.425   3.603  1.00  0.00     0.053 A 
HETATM   15  N   UNL     1      44.668 -20.675   3.328  1.00  0.00    -0.264 NA
HETATM   16  C   UNL     1      44.812 -21.529   4.367  1.00  0.00     0.118 A 
HETATM   17  C   UNL     1      44.537 -21.199   5.679  1.00  0.00     0.043 A 
HETATM   18  C   UNL     1      44.085 -19.913   5.936  1.00  0.00     0.037 A 
HETATM   19 CL   UNL     1      43.740 -19.432   7.552  1.00  0.00    -0.084 Cl
HETATM   20  C   UNL     1      43.913 -19.008   4.897  1.00  0.00     0.052 A 
ENDBRANCH  13  14
ENDBRANCH   9  13
ENDBRANCH   4   7
BRANCH   1  21
HETATM   21  N   UNL     1      40.788 -12.323   6.615  1.00  0.00    -0.321 N 
HETATM   22  C   UNL     1      39.785 -11.381   6.742  1.00  0.00     0.279 C 
HETATM   23  O   UNL     1      39.035 -11.012   5.845  1.00  0.00    -0.265 OA
HETATM   24  H   UNL     1      41.329 -12.469   7.462  1.00  0.00     0.169 HD
BRANCH  22  25
HETATM   25  C   UNL     1      39.703 -10.847   8.093  1.00  0.00     0.142 A 
HETATM   26  O   UNL     1      38.517 -10.309   8.532  1.00  0.00    -0.317 OA
HETATM   27  C   UNL     1      38.720  -9.872   9.802  1.00  0.00     0.143 A 
HETATM   28  C   UNL     1      40.013 -10.122  10.197  1.00  0.00     0.027 A 
HETATM   29  C   UNL     1      40.647 -10.750   9.098  1.00  0.00     0.045 A 
ENDBRANCH  22  25
ENDBRANCH   1  21
TORSDOF 5
ENDMDL
MODEL 8
REMARK VINA RESULT:      -7.3      4.549     10.673
REMARK  5 active torsions:
REMARK  status: ('A' for Active; 'I' for Inactive)
REMARK    1  A    between atoms: C_4  and  C_5 
REMARK       I    between atoms: C_5  and  N_6 
REMARK    2  A    between atoms: N_6  and  C_7 
REMARK    3  A    between atoms: C_10  and  N_11 
REMARK       I    between atoms: N_11  and  C_12 
REMARK       I    between atoms: C_12  and  N_13 
REMARK    4  A    between atoms: N_13  and  C_14 
REMARK    5  A    between atoms: C_14  and  C_15 
ROOT
HETATM    1  C   UNL     1      42.760 -10.542  11.429  1.00  0.00     0.035 A 
HETATM    2  C   UNL     1      43.543 -11.635  11.801  1.00  0.00     0.032 A 
HETATM    3  C   UNL     1      44.320 -12.323  10.848  1.00  0.00     0.032 A 
HETATM    4  C   UNL     1      44.304 -11.937   9.509  1.00  0.00     0.036 A 
HETATM    5  C   UNL     1      43.511 -10.842   9.143  1.00  0.00     0.032 A 
HETATM    6  C   UNL     1      42.749 -10.152  10.088  1.00  0.00     0.032 A 
ENDROOT
BRANCH   4   7
HETATM    7  N   UNL     1      45.064 -12.511   8.477  1.00  0.00    -0.309 N 
HETATM    8  C   UNL     1      44.831 -13.425   7.508  1.00  0.00     0.321 C 
HETATM    9  N   UNL     1      43.560 -13.799   7.232  1.00  0.00    -0.337 N 
HETATM   10  O   UNL     1      45.796 -13.871   6.885  1.00  0.00    -0.247 OA
HETATM   11  H   UNL     1      42.841 -13.100   7.354  1.00  0.00     0.164 HD
HETATM   12  H   UNL     1      46.044 -12.256   8.462  1.00  0.00     0.170 HD
BRANCH   9  13
HETATM   13  C   UNL     1      43.335 -14.707   6.126  1.00  0.00     0.183 C 
BRANCH  13  14
HETATM   14  C   UNL     1      43.516 -16.163   6.488  1.00  0.00     0.053 A 
HETATM   15  N   UNL     1      43.407 -16.529   7.794  1.00  0.00    -0.264 NA
HETATM   16  C   UNL     1      43.546 -17.842   8.087  1.00  0.00     0.118 A 
HETATM   17  C   UNL     1      43.771 -18.823   7.142  1.00  0.00     0.043 A 
HETATM   18  C   UNL     1      43.859 -18.427   5.816  1.00  0.00     0.037 A 
HETATM   19 CL   UNL     1      44.120 -19.602   4.585  1.00  0.00    -0.084 Cl
HETATM   20  C   UNL     1      43.732 -17.088   5.472  1.00  0.00     0.052 A 
ENDBRANCH  13  14
ENDBRANCH   9  13
ENDBRANCH   4   7
BRANCH   1  21
HETATM   21  N   UNL     1      41.992  -9.769  12.316  1.00  0.00    -0.321 N 
HETATM   22  C   UNL     1      40.620  -9.749  12.489  1.00  0.00     0.279 C 
HETATM   23  O   UNL     1      39.808 -10.384  11.826  1.00  0.00    -0.265 OA
HETATM   24  H   UNL     1      42.497  -9.147  12.940  1.00  0.00     0.169 HD
BRANCH  22  25
HETATM   25  C   UNL     1      40.218  -8.868  13.575  1.00  0.00     0.142 A 
HETATM   26  O   UNL     1      40.898  -8.921  14.769  1.00  0.00    -0.317 OA
HETATM   27  C   UNL     1      40.313  -8.022  15.603  1.00  0.00     0.143 A 
HETATM   28  C   UNL     1      39.273  -7.383  14.971  1.00  0.00     0.027 A 
HETATM   29  C   UNL     1      39.211  -7.926  13.664  1.00  0.00     0.045 A 
ENDBRANCH  22  25
ENDBRANCH   1  21
TORSDOF 5
ENDMDL
MODEL 9
REMARK VINA RESULT:      -7.2      2.215      2.615
REMARK  5 active torsions:
REMARK  status: ('A' for Active; 'I' for Inactive)
REMARK    1  A    between atoms: C_4  and  C_5 
REMARK       I    between atoms: C_5  and  N_6 
REMARK    2  A    between atoms: N_6  and  C_7 
REMARK    3  A    between atoms: C_10  and  N_11 
REMARK       I    between atoms: N_11  and  C_12 
REMARK       I    between atoms: C_12  and  N_13 
REMARK    4  A    between atoms: N_13  and  C_14 
REMARK    5  A    between atoms: C_14  and  C_15 
ROOT
HETATM    1  C   UNL     1      42.222 -15.702   5.159  1.00  0.00     0.035 A 
HETATM    2  C   UNL     1      40.873 -15.523   5.467  1.00  0.00     0.032 A 
HETATM    3  C   UNL     1      40.369 -14.249   5.793  1.00  0.00     0.032 A 
HETATM    4  C   UNL     1      41.216 -13.143   5.835  1.00  0.00     0.036 A 
HETATM    5  C   UNL     1      42.570 -13.331   5.530  1.00  0.00     0.032 A 
HETATM    6  C   UNL     1      43.069 -14.592   5.197  1.00  0.00     0.032 A 
ENDROOT
BRANCH   4   7
HETATM    7  N   UNL     1      40.830 -11.819   6.102  1.00  0.00    -0.309 N 
HETATM    8  C   UNL     1      41.055 -10.937   7.102  1.00  0.00     0.321 C 
HETATM    9  N   UNL     1      42.020 -11.192   8.016  1.00  0.00    -0.337 N 
HETATM   10  O   UNL     1      40.381  -9.907   7.131  1.00  0.00    -0.247 OA
HETATM   11  H   UNL     1      42.831 -11.702   7.694  1.00  0.00     0.164 HD
HETATM   12  H   UNL     1      40.172 -11.415   5.447  1.00  0.00     0.170 HD
BRANCH   9  13
HETATM   13  C   UNL     1      42.302 -10.185   9.018  1.00  0.00     0.183 C 
BRANCH  13  14
HETATM   14  C   UNL     1      41.653 -10.460  10.355  1.00  0.00     0.053 A 
HETATM   15  N   UNL     1      42.331 -11.206  11.268  1.00  0.00    -0.264 NA
HETATM   16  C   UNL     1      41.740 -11.414  12.467  1.00  0.00     0.118 A 
HETATM   17  C   UNL     1      40.507 -10.899  12.817  1.00  0.00     0.043 A 
HETATM   18  C   UNL     1      39.844 -10.126  11.876  1.00  0.00     0.037 A 
HETATM   19 CL   UNL     1      38.312  -9.440  12.255  1.00  0.00    -0.084 Cl
HETATM   20  C   UNL     1      40.411  -9.897  10.629  1.00  0.00     0.052 A 
ENDBRANCH  13  14
ENDBRANCH   9  13
ENDBRANCH   4   7
BRANCH   1  21
HETATM   21  N   UNL     1      42.801 -16.924   4.778  1.00  0.00    -0.321 N 
HETATM   22  C   UNL     1      43.315 -17.297   3.550  1.00  0.00     0.279 C 
HETATM   23  O   UNL     1      43.291 -16.617   2.530  1.00  0.00    -0.265 OA
HETATM   24  H   UNL     1      42.883 -17.637   5.495  1.00  0.00     0.169 HD
BRANCH  22  25
HETATM   25  C   UNL     1      43.906 -18.626   3.585  1.00  0.00     0.142 A 
HETATM   26  O   UNL     1      44.500 -19.066   4.744  1.00  0.00    -0.317 OA
HETATM   27  C   UNL     1      44.982 -20.312   4.500  1.00  0.00     0.143 A 
HETATM   28  C   UNL     1      44.707 -20.691   3.207  1.00  0.00     0.027 A 
HETATM   29  C   UNL     1      44.014 -19.606   2.617  1.00  0.00     0.045 A 
ENDBRANCH  22  25
ENDBRANCH   1  21
TORSDOF 5
ENDMDL
MODEL 10
REMARK VINA RESULT:      -7.2      3.890      5.720
REMARK  5 active torsions:
REMARK  status: ('A' for Active; 'I' for Inactive)
REMARK    1  A    between atoms: C_4  and  C_5 
REMARK       I    between atoms: C_5  and  N_6 
REMARK    2  A    between atoms: N_6  and  C_7 
REMARK    3  A    between atoms: C_10  and  N_11 
REMARK       I    between atoms: N_11  and  C_12 
REMARK       I    between atoms: C_12  and  N_13 
REMARK    4  A    between atoms: N_13  and  C_14 
REMARK    5  A    between atoms: C_14  and  C_15 
ROOT
HETATM    1  C   UNL     1      42.250 -17.035   4.395  1.00  0.00     0.035 A 
HETATM    2  C   UNL     1      42.827 -15.773   4.243  1.00  0.00     0.032 A 
HETATM    3  C   UNL     1      42.307 -14.655   4.924  1.00  0.00     0.032 A 
HETATM    4  C   UNL     1      41.192 -14.784   5.749  1.00  0.00     0.036 A 
HETATM    5  C   UNL     1      40.615 -16.053   5.893  1.00  0.00     0.032 A 
HETATM    6  C   UNL     1      41.135 -17.164   5.226  1.00  0.00     0.032 A 
ENDROOT
BRANCH   4   7
HETATM    7  N   UNL     1      40.609 -13.761   6.514  1.00  0.00    -0.309 N 
HETATM    8  C   UNL     1      40.042 -12.563   6.240  1.00  0.00     0.321 C 
HETATM    9  N   UNL     1      39.716 -12.252   4.965  1.00  0.00    -0.337 N 
HETATM   10  O   UNL     1      39.817 -11.799   7.180  1.00  0.00    -0.247 OA
HETATM   11  H   UNL     1      39.433 -13.015   4.366  1.00  0.00     0.164 HD
HETATM   12  H   UNL     1      40.668 -13.877   7.518  1.00  0.00     0.170 HD
BRANCH   9  13
HETATM   13  C   UNL     1      39.025 -11.004   4.717  1.00  0.00     0.183 C 
BRANCH  13  14
HETATM   14  C   UNL     1      38.267 -10.978   3.409  1.00  0.00     0.053 A 
HETATM   15  N   UNL     1      37.490  -9.898   3.127  1.00  0.00    -0.264 NA
HETATM   16  C   UNL     1      36.844  -9.886   1.939  1.00  0.00     0.118 A 
HETATM   17  C   UNL     1      36.945 -10.892   0.998  1.00  0.00     0.043 A 
HETATM   18  C   UNL     1      37.759 -11.974   1.301  1.00  0.00     0.037 A 
HETATM   19 CL   UNL     1      37.943 -13.253   0.165  1.00  0.00    -0.084 Cl
HETATM   20  C   UNL     1      38.432 -12.030   2.514  1.00  0.00     0.052 A 
ENDBRANCH  13  14
ENDBRANCH   9  13
ENDBRANCH   4   7
BRANCH   1  21
HETATM   21  N   UNL     1      42.727 -18.211   3.794  1.00  0.00    -0.321 N 
HETATM   22  C   UNL     1      43.894 -18.908   4.051  1.00  0.00     0.279 C 
HETATM   23  O   UNL     1      44.772 -18.565   4.835  1.00  0.00    -0.265 OA
HETATM   24  H   UNL     1      42.139 -18.637   3.084  1.00  0.00     0.169 HD
BRANCH  22  25
HETATM   25  C   UNL     1      43.983 -20.132   3.270  1.00  0.00     0.142 A 
HETATM   26  O   UNL     1      44.512 -21.261   3.849  1.00  0.00    -0.317 OA
HETATM   27  C   UNL     1      44.497 -22.240   2.907  1.00  0.00     0.143 A 
HETATM   28  C   UNL     1      43.964 -21.770   1.731  1.00  0.00     0.027 A 
HETATM   29  C   UNL     1      43.631 -20.413   1.963  1.00  0.00     0.045 A 
ENDBRANCH  22  25
ENDBRANCH   1  21
TORSDOF 5
ENDMDL
