MODEL 1
REMARK VINA RESULT:      -8.6      0.000      0.000
REMARK  3 active torsions:
REMARK  status: ('A' for Active; 'I' for Inactive)
REMARK    1  A    between atoms: C_7  and  C_8 
REMARK    2  A    between atoms: N_9  and  C_11 
REMARK    3  A    between atoms: C_11  and  C_12 
ROOT
HETATM    1  C   UNL     1      43.394 -16.930   6.167  1.00  0.00     0.238 C 
HETATM    2  N   UNL     1      42.677 -16.098   5.118  1.00  0.00    -0.056 N 
HETATM    3  H   UNL     1      43.329 -16.048   4.328  1.00  0.00     0.281 HD
HETATM    4  C   UNL     1      42.437 -14.671   5.559  1.00  0.00     0.236 C 
HETATM    5  C   UNL     1      43.752 -14.000   5.918  1.00  0.00     0.028 C 
HETATM    6  C   UNL     1      44.449 -14.765   7.030  1.00  0.00     0.004 C 
HETATM    7  C   UNL     1      44.682 -16.207   6.611  1.00  0.00     0.040 C 
ENDROOT
BRANCH   2   8
HETATM    8  C   UNL     1      41.416 -16.735   4.543  1.00  0.00     0.295 C 
BRANCH   8   9
HETATM    9  C   UNL     1      41.205 -16.520   3.096  1.00  0.00     0.077 A 
HETATM   10  N   UNL     1      40.499 -15.474   2.526  1.00  0.00    -0.155 N 
HETATM   11  C   UNL     1      40.617 -15.606   1.140  1.00  0.00     0.732 A 
HETATM   12  C   UNL     1      39.777 -14.429   3.096  1.00  0.00     0.117 A 
HETATM   13  N   UNL     1      40.089 -14.678   0.295  1.00  0.00    -0.074 NA
HETATM   14  N   UNL     1      41.261 -16.712   0.841  1.00  0.00    -0.072 NA
HETATM   15  C   UNL     1      39.424 -13.710   0.843  1.00  0.00     0.138 A 
HETATM   16  C   UNL     1      39.205 -13.512   2.303  1.00  0.00     0.038 A 
HETATM   17  C   UNL     1      41.570 -17.308   2.022  1.00  0.00     0.164 A 
ENDBRANCH   8   9
ENDBRANCH   2   8
BRANCH   1  18
HETATM   18  C   UNL     1      43.773 -18.283   5.649  1.00  0.00     0.041 A 
HETATM   19  N   UNL     1      43.888 -18.535   4.297  1.00  0.00    -0.357 N 
HETATM   20  C   UNL     1      44.210 -19.854   4.080  1.00  0.00     0.042 A 
HETATM   21  H   UNL     1      43.740 -17.869   3.547  1.00  0.00     0.166 HD
HETATM   22  C   UNL     1      44.271 -20.478   5.322  1.00  0.00    -0.008 A 
HETATM   23  C   UNL     1      44.427 -20.544   2.881  1.00  0.00     0.030 A 
HETATM   24  C   UNL     1      44.559 -21.854   5.384  1.00  0.00     0.014 A 
HETATM   25  C   UNL     1      43.983 -19.488   6.299  1.00  0.00     0.040 A 
HETATM   26  C   UNL     1      44.778 -22.559   4.195  1.00  0.00     0.001 A 
HETATM   27  C   UNL     1      44.713 -21.910   2.963  1.00  0.00     0.002 A 
ENDBRANCH   1  18
TORSDOF 3
ENDMDL
MODEL 2
REMARK VINA RESULT:      -8.5      1.000      2.063
REMARK  3 active torsions:
REMARK  status: ('A' for Active; 'I' for Inactive)
REMARK    1  A    between atoms: C_7  and  C_8 
REMARK    2  A    between atoms: N_9  and  C_11 
REMARK    3  A    between atoms: C_11  and  C_12 
ROOT
HETATM    1  C   UNL     1      43.355 -17.071   5.783  1.00  0.00     0.238 C 
HETATM    2  N   UNL     1      42.601 -15.993   5.025  1.00  0.00    -0.056 N 
HETATM    3  H   UNL     1      43.180 -15.794   4.201  1.00  0.00     0.281 HD
HETATM    4  C   UNL     1      42.497 -14.693   5.793  1.00  0.00     0.236 C 
HETATM    5  C   UNL     1      43.880 -14.179   6.152  1.00  0.00     0.028 C 
HETATM    6  C   UNL     1      44.624 -15.206   6.989  1.00  0.00     0.004 C 
HETATM    7  C   UNL     1      44.723 -16.525   6.240  1.00  0.00     0.040 C 
ENDROOT
BRANCH   2   8
HETATM    8  C   UNL     1      41.254 -16.428   4.457  1.00  0.00     0.295 C 
BRANCH   8   9
HETATM    9  C   UNL     1      40.665 -15.510   3.460  1.00  0.00     0.077 A 
HETATM   10  N   UNL     1      40.888 -15.547   2.093  1.00  0.00    -0.155 N 
HETATM   11  C   UNL     1      40.077 -14.564   1.519  1.00  0.00     0.732 A 
HETATM   12  C   UNL     1      41.716 -16.349   1.314  1.00  0.00     0.117 A 
HETATM   13  N   UNL     1      40.014 -14.401   0.169  1.00  0.00    -0.074 NA
HETATM   14  N   UNL     1      39.460 -13.878   2.455  1.00  0.00    -0.072 NA
HETATM   15  C   UNL     1      40.790 -15.159  -0.542  1.00  0.00     0.138 A 
HETATM   16  C   UNL     1      41.719 -16.198  -0.018  1.00  0.00     0.038 A 
HETATM   17  C   UNL     1      39.858 -14.404   3.643  1.00  0.00     0.164 A 
ENDBRANCH   8   9
ENDBRANCH   2   8
BRANCH   1  18
HETATM   18  C   UNL     1      43.595 -18.287   4.943  1.00  0.00     0.041 A 
HETATM   19  N   UNL     1      44.088 -19.456   5.485  1.00  0.00    -0.357 N 
HETATM   20  C   UNL     1      44.252 -20.408   4.505  1.00  0.00     0.042 A 
HETATM   21  H   UNL     1      44.326 -19.614   6.457  1.00  0.00     0.166 HD
HETATM   22  C   UNL     1      43.888 -19.826   3.295  1.00  0.00    -0.008 A 
HETATM   23  C   UNL     1      44.716 -21.726   4.597  1.00  0.00     0.030 A 
HETATM   24  C   UNL     1      43.990 -20.585   2.113  1.00  0.00     0.014 A 
HETATM   25  C   UNL     1      43.490 -18.492   3.577  1.00  0.00     0.040 A 
HETATM   26  C   UNL     1      44.452 -21.903   2.187  1.00  0.00     0.001 A 
HETATM   27  C   UNL     1      44.809 -22.463   3.412  1.00  0.00     0.002 A 
ENDBRANCH   1  18
TORSDOF 3
ENDMDL
MODEL 3
REMARK VINA RESULT:      -8.5      1.248      1.774
REMARK  3 active torsions:
REMARK  status: ('A' for Active; 'I' for Inactive)
REMARK    1  A    between atoms: C_7  and  C_8 
REMARK    2  A    between atoms: N_9  and  C_11 
REMARK    3  A    between atoms: C_11  and  C_12 
ROOT
HETATM    1  C   UNL     1      42.828 -16.813   5.129  1.00  0.00     0.238 C 
HETATM    2  N   UNL     1      42.324 -15.749   4.171  1.00  0.00    -0.056 N 
HETATM    3  H   UNL     1      43.083 -15.620   3.493  1.00  0.00     0.281 HD
HETATM    4  C   UNL     1      42.117 -14.405   4.835  1.00  0.00     0.236 C 
HETATM    5  C   UNL     1      43.408 -13.930   5.478  1.00  0.00     0.028 C 
HETATM    6  C   UNL     1      43.888 -14.938   6.508  1.00  0.00     0.004 C 
HETATM    7  C   UNL     1      44.084 -16.300   5.862  1.00  0.00     0.040 C 
ENDROOT
BRANCH   2   8
HETATM    8  C   UNL     1      41.119 -16.159   3.329  1.00  0.00     0.295 C 
BRANCH   8   9
HETATM    9  C   UNL     1      41.093 -15.612   1.956  1.00  0.00     0.077 A 
HETATM   10  N   UNL     1      39.997 -15.042   1.331  1.00  0.00    -0.155 N 
HETATM   11  C   UNL     1      40.429 -14.586   0.082  1.00  0.00     0.732 A 
HETATM   12  C   UNL     1      38.678 -14.883   1.745  1.00  0.00     0.117 A 
HETATM   13  N   UNL     1      39.591 -13.904  -0.747  1.00  0.00    -0.074 NA
HETATM   14  N   UNL     1      41.680 -14.931  -0.121  1.00  0.00    -0.072 NA
HETATM   15  C   UNL     1      38.368 -13.762  -0.345  1.00  0.00     0.138 A 
HETATM   16  C   UNL     1      37.806 -14.253   0.944  1.00  0.00     0.038 A 
HETATM   17  C   UNL     1      42.077 -15.610   0.986  1.00  0.00     0.164 A 
ENDBRANCH   8   9
ENDBRANCH   2   8
BRANCH   1  18
HETATM   18  C   UNL     1      43.187 -18.083   4.421  1.00  0.00     0.041 A 
HETATM   19  N   UNL     1      43.827 -19.119   5.072  1.00  0.00    -0.357 N 
HETATM   20  C   UNL     1      44.076 -20.153   4.199  1.00  0.00     0.042 A 
HETATM   21  H   UNL     1      44.105 -19.135   6.046  1.00  0.00     0.166 HD
HETATM   22  C   UNL     1      43.617 -19.760   2.946  1.00  0.00    -0.008 A 
HETATM   23  C   UNL     1      44.693 -21.390   4.420  1.00  0.00     0.030 A 
HETATM   24  C   UNL     1      43.778 -20.633   1.854  1.00  0.00     0.014 A 
HETATM   25  C   UNL     1      43.073 -18.455   3.092  1.00  0.00     0.040 A 
HETATM   26  C   UNL     1      44.392 -21.874   2.057  1.00  0.00     0.001 A 
HETATM   27  C   UNL     1      44.842 -22.244   3.323  1.00  0.00     0.002 A 
ENDBRANCH   1  18
TORSDOF 3
ENDMDL
MODEL 4
REMARK VINA RESULT:      -8.4      1.912      4.023
REMARK  3 active torsions:
REMARK  status: ('A' for Active; 'I' for Inactive)
REMARK    1  A    between atoms: C_7  and  C_8 
REMARK    2  A    between atoms: N_9  and  C_11 
REMARK    3  A    between atoms: C_11  and  C_12 
ROOT
HETATM    1  C   UNL     1      42.794 -17.008   2.318  1.00  0.00     0.238 C 
HETATM    2  N   UNL     1      41.461 -16.661   2.955  1.00  0.00    -0.056 N 
HETATM    3  H   UNL     1      40.862 -17.475   2.780  1.00  0.00     0.281 HD
HETATM    4  C   UNL     1      40.779 -15.483   2.294  1.00  0.00     0.236 C 
HETATM    5  C   UNL     1      40.571 -15.756   0.814  1.00  0.00     0.028 C 
HETATM    6  C   UNL     1      41.904 -16.020   0.134  1.00  0.00     0.004 C 
HETATM    7  C   UNL     1      42.612 -17.189   0.798  1.00  0.00     0.040 C 
ENDROOT
BRANCH   2   8
HETATM    8  C   UNL     1      41.490 -16.521   4.474  1.00  0.00     0.295 C 
BRANCH   8   9
HETATM    9  C   UNL     1      42.031 -15.242   4.980  1.00  0.00     0.077 A 
HETATM   10  N   UNL     1      41.283 -14.166   5.426  1.00  0.00    -0.155 N 
HETATM   11  C   UNL     1      42.185 -13.203   5.889  1.00  0.00     0.732 A 
HETATM   12  C   UNL     1      39.908 -13.952   5.471  1.00  0.00     0.117 A 
HETATM   13  N   UNL     1      41.750 -12.049   6.466  1.00  0.00    -0.074 NA
HETATM   14  N   UNL     1      43.420 -13.588   5.660  1.00  0.00    -0.072 NA
HETATM   15  C   UNL     1      40.467 -11.868   6.503  1.00  0.00     0.138 A 
HETATM   16  C   UNL     1      39.434 -12.812   5.993  1.00  0.00     0.038 A 
HETATM   17  C   UNL     1      43.337 -14.800   5.050  1.00  0.00     0.164 A 
ENDBRANCH   8   9
ENDBRANCH   2   8
BRANCH   1  18
HETATM   18  C   UNL     1      43.370 -18.275   2.873  1.00  0.00     0.041 A 
HETATM   19  N   UNL     1      43.411 -19.438   2.131  1.00  0.00    -0.357 N 
HETATM   20  C   UNL     1      43.952 -20.462   2.873  1.00  0.00     0.042 A 
HETATM   21  H   UNL     1      43.078 -19.556   1.182  1.00  0.00     0.166 HD
HETATM   22  C   UNL     1      44.234 -19.955   4.138  1.00  0.00    -0.008 A 
HETATM   23  C   UNL     1      44.187 -21.798   2.529  1.00  0.00     0.030 A 
HETATM   24  C   UNL     1      44.776 -20.814   5.114  1.00  0.00     0.014 A 
HETATM   25  C   UNL     1      43.854 -18.587   4.133  1.00  0.00     0.040 A 
HETATM   26  C   UNL     1      45.017 -22.152   4.785  1.00  0.00     0.001 A 
HETATM   27  C   UNL     1      44.726 -22.635   3.511  1.00  0.00     0.002 A 
ENDBRANCH   1  18
TORSDOF 3
ENDMDL
MODEL 5
REMARK VINA RESULT:      -8.3      1.449      6.060
REMARK  3 active torsions:
REMARK  status: ('A' for Active; 'I' for Inactive)
REMARK    1  A    between atoms: C_7  and  C_8 
REMARK    2  A    between atoms: N_9  and  C_11 
REMARK    3  A    between atoms: C_11  and  C_12 
ROOT
HETATM    1  C   UNL     1      42.690 -18.891   2.980  1.00  0.00     0.238 C 
HETATM    2  N   UNL     1      43.449 -18.627   4.268  1.00  0.00    -0.056 N 
HETATM    3  H   UNL     1      44.181 -17.956   4.011  1.00  0.00     0.281 HD
HETATM    4  C   UNL     1      44.164 -19.853   4.794  1.00  0.00     0.236 C 
HETATM    5  C   UNL     1      45.123 -20.395   3.749  1.00  0.00     0.028 C 
HETATM    6  C   UNL     1      44.372 -20.751   2.477  1.00  0.00     0.004 C 
HETATM    7  C   UNL     1      43.632 -19.535   1.944  1.00  0.00     0.040 C 
ENDROOT
BRANCH   2   8
HETATM    8  C   UNL     1      42.645 -17.926   5.358  1.00  0.00     0.295 C 
BRANCH   8   9
HETATM    9  C   UNL     1      43.230 -16.667   5.863  1.00  0.00     0.077 A 
HETATM   10  N   UNL     1      42.699 -15.399   5.691  1.00  0.00    -0.155 N 
HETATM   11  C   UNL     1      43.520 -14.512   6.393  1.00  0.00     0.732 A 
HETATM   12  C   UNL     1      41.580 -14.954   4.993  1.00  0.00     0.117 A 
HETATM   13  N   UNL     1      43.215 -13.188   6.479  1.00  0.00    -0.074 NA
HETATM   14  N   UNL     1      44.557 -15.147   6.890  1.00  0.00    -0.072 NA
HETATM   15  C   UNL     1      42.168 -12.791   5.827  1.00  0.00     0.138 A 
HETATM   16  C   UNL     1      41.263 -13.652   5.015  1.00  0.00     0.038 A 
HETATM   17  C   UNL     1      44.425 -16.447   6.521  1.00  0.00     0.164 A 
ENDBRANCH   8   9
ENDBRANCH   2   8
BRANCH   1  18
HETATM   18  C   UNL     1      42.134 -17.633   2.387  1.00  0.00     0.041 A 
HETATM   19  N   UNL     1      40.807 -17.284   2.542  1.00  0.00    -0.357 N 
HETATM   20  C   UNL     1      40.539 -16.110   1.878  1.00  0.00     0.042 A 
HETATM   21  H   UNL     1      40.104 -17.809   3.048  1.00  0.00     0.166 HD
HETATM   22  C   UNL     1      41.714 -15.710   1.249  1.00  0.00    -0.008 A 
HETATM   23  C   UNL     1      39.344 -15.390   1.767  1.00  0.00     0.030 A 
HETATM   24  C   UNL     1      41.707 -14.538   0.468  1.00  0.00     0.014 A 
HETATM   25  C   UNL     1      42.705 -16.678   1.563  1.00  0.00     0.040 A 
HETATM   26  C   UNL     1      40.521 -13.807   0.347  1.00  0.00     0.001 A 
HETATM   27  C   UNL     1      39.358 -14.229   0.988  1.00  0.00     0.002 A 
ENDBRANCH   1  18
TORSDOF 3
ENDMDL
MODEL 6
REMARK VINA RESULT:      -8.2      1.591      4.756
REMARK  3 active torsions:
REMARK  status: ('A' for Active; 'I' for Inactive)
REMARK    1  A    between atoms: C_7  and  C_8 
REMARK    2  A    between atoms: N_9  and  C_11 
REMARK    3  A    between atoms: C_11  and  C_12 
ROOT
HETATM    1  C   UNL     1      42.280 -16.182   1.995  1.00  0.00     0.238 C 
HETATM    2  N   UNL     1      40.921 -16.011   2.650  1.00  0.00    -0.056 N 
HETATM    3  H   UNL     1      40.377 -16.828   2.351  1.00  0.00     0.281 HD
HETATM    4  C   UNL     1      40.171 -14.796   2.146  1.00  0.00     0.236 C 
HETATM    5  C   UNL     1      39.996 -14.871   0.639  1.00  0.00     0.028 C 
HETATM    6  C   UNL     1      41.350 -14.953  -0.046  1.00  0.00     0.004 C 
HETATM    7  C   UNL     1      42.125 -16.159   0.461  1.00  0.00     0.040 C 
ENDROOT
BRANCH   2   8
HETATM    8  C   UNL     1      40.926 -16.084   4.173  1.00  0.00     0.295 C 
BRANCH   8   9
HETATM    9  C   UNL     1      41.535 -14.926   4.859  1.00  0.00     0.077 A 
HETATM   10  N   UNL     1      42.629 -14.969   5.707  1.00  0.00    -0.155 N 
HETATM   11  C   UNL     1      42.922 -13.650   6.066  1.00  0.00     0.732 A 
HETATM   12  C   UNL     1      43.385 -16.035   6.186  1.00  0.00     0.117 A 
HETATM   13  N   UNL     1      44.002 -13.352   6.840  1.00  0.00    -0.074 NA
HETATM   14  N   UNL     1      42.021 -12.831   5.570  1.00  0.00    -0.072 NA
HETATM   15  C   UNL     1      44.697 -14.357   7.273  1.00  0.00     0.138 A 
HETATM   16  C   UNL     1      44.434 -15.794   6.984  1.00  0.00     0.038 A 
HETATM   17  C   UNL     1      41.137 -13.603   4.885  1.00  0.00     0.164 A 
ENDBRANCH   8   9
ENDBRANCH   2   8
BRANCH   1  18
HETATM   18  C   UNL     1      42.930 -17.476   2.379  1.00  0.00     0.041 A 
HETATM   19  N   UNL     1      42.724 -18.632   1.654  1.00  0.00    -0.357 N 
HETATM   20  C   UNL     1      43.400 -19.685   2.227  1.00  0.00     0.042 A 
HETATM   21  H   UNL     1      42.146 -18.728   0.828  1.00  0.00     0.166 HD
HETATM   22  C   UNL     1      44.030 -19.202   3.370  1.00  0.00    -0.008 A 
HETATM   23  C   UNL     1      43.480 -21.026   1.834  1.00  0.00     0.030 A 
HETATM   24  C   UNL     1      44.775 -20.090   4.168  1.00  0.00     0.014 A 
HETATM   25  C   UNL     1      43.719 -17.819   3.465  1.00  0.00     0.040 A 
HETATM   26  C   UNL     1      44.865 -21.434   3.789  1.00  0.00     0.001 A 
HETATM   27  C   UNL     1      44.226 -21.892   2.639  1.00  0.00     0.002 A 
ENDBRANCH   1  18
TORSDOF 3
ENDMDL
MODEL 7
REMARK VINA RESULT:      -8.2      1.991      6.534
REMARK  3 active torsions:
REMARK  status: ('A' for Active; 'I' for Inactive)
REMARK    1  A    between atoms: C_7  and  C_8 
REMARK    2  A    between atoms: N_9  and  C_11 
REMARK    3  A    between atoms: C_11  and  C_12 
ROOT
HETATM    1  C   UNL     1      41.430 -17.515   2.705  1.00  0.00     0.238 C 
HETATM    2  N   UNL     1      42.276 -17.247   3.936  1.00  0.00    -0.056 N 
HETATM    3  H   UNL     1      42.965 -16.547   3.638  1.00  0.00     0.281 HD
HETATM    4  C   UNL     1      43.068 -18.456   4.384  1.00  0.00     0.236 C 
HETATM    5  C   UNL     1      43.961 -18.949   3.259  1.00  0.00     0.028 C 
HETATM    6  C   UNL     1      43.127 -19.309   2.041  1.00  0.00     0.004 C 
HETATM    7  C   UNL     1      42.311 -18.110   1.588  1.00  0.00     0.040 C 
ENDROOT
BRANCH   2   8
HETATM    8  C   UNL     1      41.535 -16.591   5.097  1.00  0.00     0.295 C 
BRANCH   8   9
HETATM    9  C   UNL     1      42.012 -15.242   5.468  1.00  0.00     0.077 A 
HETATM   10  N   UNL     1      41.274 -14.072   5.395  1.00  0.00    -0.155 N 
HETATM   11  C   UNL     1      42.072 -13.050   5.916  1.00  0.00     0.732 A 
HETATM   12  C   UNL     1      39.987 -13.821   4.927  1.00  0.00     0.117 A 
HETATM   13  N   UNL     1      41.596 -11.782   6.051  1.00  0.00    -0.074 NA
HETATM   14  N   UNL     1      43.270 -13.509   6.204  1.00  0.00    -0.072 NA
HETATM   15  C   UNL     1      40.395 -11.566   5.614  1.00  0.00     0.138 A 
HETATM   16  C   UNL     1      39.489 -12.578   5.002  1.00  0.00     0.038 A 
HETATM   17  C   UNL     1      43.265 -14.828   5.877  1.00  0.00     0.164 A 
ENDBRANCH   8   9
ENDBRANCH   2   8
BRANCH   1  18
HETATM   18  C   UNL     1      40.790 -16.266   2.179  1.00  0.00     0.041 A 
HETATM   19  N   UNL     1      39.423 -16.163   2.026  1.00  0.00    -0.357 N 
HETATM   20  C   UNL     1      39.090 -14.937   1.496  1.00  0.00     0.042 A 
HETATM   21  H   UNL     1      38.738 -16.877   2.242  1.00  0.00     0.166 HD
HETATM   22  C   UNL     1      40.277 -14.246   1.270  1.00  0.00    -0.008 A 
HETATM   23  C   UNL     1      37.836 -14.402   1.180  1.00  0.00     0.030 A 
HETATM   24  C   UNL     1      40.222 -12.960   0.700  1.00  0.00     0.014 A 
HETATM   25  C   UNL     1      41.338 -15.092   1.689  1.00  0.00     0.040 A 
HETATM   26  C   UNL     1      38.976 -12.410   0.377  1.00  0.00     0.001 A 
HETATM   27  C   UNL     1      37.803 -13.123   0.615  1.00  0.00     0.002 A 
ENDBRANCH   1  18
TORSDOF 3
ENDMDL
MODEL 8
REMARK VINA RESULT:      -8.2      2.314      6.797
REMARK  3 active torsions:
REMARK  status: ('A' for Active; 'I' for Inactive)
REMARK    1  A    between atoms: C_7  and  C_8 
REMARK    2  A    between atoms: N_9  and  C_11 
REMARK    3  A    between atoms: C_11  and  C_12 
ROOT
HETATM    1  C   UNL     1      41.358 -14.137   2.917  1.00  0.00     0.238 C 
HETATM    2  N   UNL     1      41.993 -15.307   3.645  1.00  0.00    -0.056 N 
HETATM    3  H   UNL     1      41.457 -16.129   3.346  1.00  0.00     0.281 HD
HETATM    4  C   UNL     1      41.835 -15.224   5.148  1.00  0.00     0.236 C 
HETATM    5  C   UNL     1      40.366 -15.139   5.521  1.00  0.00     0.028 C 
HETATM    6  C   UNL     1      39.726 -13.922   4.875  1.00  0.00     0.004 C 
HETATM    7  C   UNL     1      39.890 -13.980   3.365  1.00  0.00     0.040 C 
ENDROOT
BRANCH   2   8
HETATM    8  C   UNL     1      43.431 -15.614   3.240  1.00  0.00     0.295 C 
BRANCH   8   9
HETATM    9  C   UNL     1      43.676 -16.997   2.781  1.00  0.00     0.077 A 
HETATM   10  N   UNL     1      44.039 -18.066   3.584  1.00  0.00    -0.155 N 
HETATM   11  C   UNL     1      44.085 -19.197   2.764  1.00  0.00     0.732 A 
HETATM   12  C   UNL     1      44.326 -18.143   4.944  1.00  0.00     0.117 A 
HETATM   13  N   UNL     1      44.342 -20.431   3.279  1.00  0.00    -0.074 NA
HETATM   14  N   UNL     1      43.870 -18.862   1.512  1.00  0.00    -0.072 NA
HETATM   15  C   UNL     1      44.603 -20.486   4.547  1.00  0.00     0.138 A 
HETATM   16  C   UNL     1      44.625 -19.331   5.488  1.00  0.00     0.038 A 
HETATM   17  C   UNL     1      43.682 -17.517   1.501  1.00  0.00     0.164 A 
ENDBRANCH   8   9
ENDBRANCH   2   8
BRANCH   1  18
HETATM   18  C   UNL     1      41.374 -14.323   1.431  1.00  0.00     0.041 A 
HETATM   19  N   UNL     1      41.876 -13.355   0.585  1.00  0.00    -0.357 N 
HETATM   20  C   UNL     1      41.747 -13.749  -0.727  1.00  0.00     0.042 A 
HETATM   21  H   UNL     1      42.269 -12.463   0.860  1.00  0.00     0.166 HD
HETATM   22  C   UNL     1      41.113 -14.988  -0.728  1.00  0.00    -0.008 A 
HETATM   23  C   UNL     1      42.119 -13.093  -1.906  1.00  0.00     0.030 A 
HETATM   24  C   UNL     1      40.831 -15.610  -1.959  1.00  0.00     0.014 A 
HETATM   25  C   UNL     1      40.872 -15.334   0.628  1.00  0.00     0.040 A 
HETATM   26  C   UNL     1      41.196 -14.967  -3.148  1.00  0.00     0.001 A 
HETATM   27  C   UNL     1      41.831 -13.727  -3.118  1.00  0.00     0.002 A 
ENDBRANCH   1  18
TORSDOF 3
ENDMDL
MODEL 9
REMARK VINA RESULT:      -8.1      3.491      7.000
REMARK  3 active torsions:
REMARK  status: ('A' for Active; 'I' for Inactive)
REMARK    1  A    between atoms: C_7  and  C_8 
REMARK    2  A    between atoms: N_9  and  C_11 
REMARK    3  A    between atoms: C_11  and  C_12 
ROOT
HETATM    1  C   UNL     1      44.089 -15.380   6.027  1.00  0.00     0.238 C 
HETATM    2  N   UNL     1      42.616 -15.167   5.727  1.00  0.00    -0.056 N 
HETATM    3  H   UNL     1      42.154 -15.176   6.643  1.00  0.00     0.281 HD
HETATM    4  C   UNL     1      42.004 -16.302   4.934  1.00  0.00     0.236 C 
HETATM    5  C   UNL     1      42.181 -17.618   5.673  1.00  0.00     0.028 C 
HETATM    6  C   UNL     1      43.655 -17.898   5.907  1.00  0.00     0.004 C 
HETATM    7  C   UNL     1      44.291 -16.759   6.687  1.00  0.00     0.040 C 
ENDROOT
BRANCH   2   8
HETATM    8  C   UNL     1      42.270 -13.807   5.131  1.00  0.00     0.295 C 
BRANCH   8   9
HETATM    9  C   UNL     1      41.037 -13.183   5.657  1.00  0.00     0.077 A 
HETATM   10  N   UNL     1      40.977 -12.056   6.459  1.00  0.00    -0.155 N 
HETATM   11  C   UNL     1      39.625 -11.763   6.655  1.00  0.00     0.732 A 
HETATM   12  C   UNL     1      41.979 -11.269   7.022  1.00  0.00     0.117 A 
HETATM   13  N   UNL     1      39.235 -10.656   7.346  1.00  0.00    -0.074 NA
HETATM   14  N   UNL     1      38.873 -12.692   6.108  1.00  0.00    -0.072 NA
HETATM   15  C   UNL     1      40.180  -9.934   7.860  1.00  0.00     0.138 A 
HETATM   16  C   UNL     1      41.643 -10.192   7.745  1.00  0.00     0.038 A 
HETATM   17  C   UNL     1      39.723 -13.595   5.551  1.00  0.00     0.164 A 
ENDBRANCH   8   9
ENDBRANCH   2   8
BRANCH   1  18
HETATM   18  C   UNL     1      44.631 -14.335   6.953  1.00  0.00     0.041 A 
HETATM   19  N   UNL     1      43.990 -14.008   8.130  1.00  0.00    -0.357 N 
HETATM   20  C   UNL     1      44.665 -13.001   8.781  1.00  0.00     0.042 A 
HETATM   21  H   UNL     1      43.131 -14.417   8.480  1.00  0.00     0.166 HD
HETATM   22  C   UNL     1      45.750 -12.647   7.986  1.00  0.00    -0.008 A 
HETATM   23  C   UNL     1      44.383 -12.365   9.996  1.00  0.00     0.030 A 
HETATM   24  C   UNL     1      46.600 -11.608   8.412  1.00  0.00     0.014 A 
HETATM   25  C   UNL     1      45.714 -13.479   6.835  1.00  0.00     0.040 A 
HETATM   26  C   UNL     1      46.332 -10.962   9.624  1.00  0.00     0.001 A 
HETATM   27  C   UNL     1      45.239 -11.337  10.402  1.00  0.00     0.002 A 
ENDBRANCH   1  18
TORSDOF 3
ENDMDL
MODEL 10
REMARK VINA RESULT:      -8.0      1.958      2.716
REMARK  3 active torsions:
REMARK  status: ('A' for Active; 'I' for Inactive)
REMARK    1  A    between atoms: C_7  and  C_8 
REMARK    2  A    between atoms: N_9  and  C_11 
REMARK    3  A    between atoms: C_11  and  C_12 
ROOT
HETATM    1  C   UNL     1      41.512 -16.109   4.096  1.00  0.00     0.238 C 
HETATM    2  N   UNL     1      42.281 -14.825   3.845  1.00  0.00    -0.056 N 
HETATM    3  H   UNL     1      43.079 -14.862   4.489  1.00  0.00     0.281 HD
HETATM    4  C   UNL     1      41.497 -13.584   4.216  1.00  0.00     0.236 C 
HETATM    5  C   UNL     1      41.078 -13.641   5.674  1.00  0.00     0.028 C 
HETATM    6  C   UNL     1      40.230 -14.874   5.933  1.00  0.00     0.004 C 
HETATM    7  C   UNL     1      40.996 -16.130   5.549  1.00  0.00     0.040 C 
ENDROOT
BRANCH   2   8
HETATM    8  C   UNL     1      42.906 -14.708   2.459  1.00  0.00     0.295 C 
BRANCH   8   9
HETATM    9  C   UNL     1      41.949 -14.511   1.350  1.00  0.00     0.077 A 
HETATM   10  N   UNL     1      41.653 -13.304   0.740  1.00  0.00    -0.155 N 
HETATM   11  C   UNL     1      40.768 -13.579  -0.307  1.00  0.00     0.732 A 
HETATM   12  C   UNL     1      42.080 -12.006   1.006  1.00  0.00     0.117 A 
HETATM   13  N   UNL     1      40.346 -12.597  -1.150  1.00  0.00    -0.074 NA
HETATM   14  N   UNL     1      40.439 -14.851  -0.303  1.00  0.00    -0.072 NA
HETATM   15  C   UNL     1      40.756 -11.396  -0.891  1.00  0.00     0.138 A 
HETATM   16  C   UNL     1      41.659 -11.000   0.226  1.00  0.00     0.038 A 
HETATM   17  C   UNL     1      41.103 -15.417   0.739  1.00  0.00     0.164 A 
ENDBRANCH   8   9
ENDBRANCH   2   8
BRANCH   1  18
HETATM   18  C   UNL     1      42.362 -17.324   3.886  1.00  0.00     0.041 A 
HETATM   19  N   UNL     1      42.237 -18.109   2.757  1.00  0.00    -0.357 N 
HETATM   20  C   UNL     1      43.101 -19.178   2.818  1.00  0.00     0.042 A 
HETATM   21  H   UNL     1      41.595 -17.957   1.989  1.00  0.00     0.166 HD
HETATM   22  C   UNL     1      43.776 -19.100   4.032  1.00  0.00    -0.008 A 
HETATM   23  C   UNL     1      43.316 -20.216   1.904  1.00  0.00     0.030 A 
HETATM   24  C   UNL     1      44.710 -20.100   4.362  1.00  0.00     0.014 A 
HETATM   25  C   UNL     1      43.297 -17.941   4.701  1.00  0.00     0.040 A 
HETATM   26  C   UNL     1      44.936 -21.145   3.459  1.00  0.00     0.001 A 
HETATM   27  C   UNL     1      44.248 -21.199   2.249  1.00  0.00     0.002 A 
ENDBRANCH   1  18
TORSDOF 3
ENDMDL
