MODEL 1
REMARK VINA RESULT:      -8.8      0.000      0.000
REMARK  3 active torsions:
REMARK  status: ('A' for Active; 'I' for Inactive)
REMARK    1  A    between atoms: C_8  and  C_9 
REMARK       I    between atoms: C_9  and  N_10 
REMARK    2  A    between atoms: N_10  and  C_11 
REMARK    3  A    between atoms: C_18  and  C_19 
REMARK       I    between atoms: C_19  and  N_20 
ROOT
HETATM    1  C   UNL     1      41.309 -15.347  -0.702  1.00  0.00     0.035 A 
HETATM    2  C   UNL     1      41.733 -14.015  -0.593  1.00  0.00     0.046 A 
HETATM    3  C   UNL     1      41.879 -13.233  -1.761  1.00  0.00     0.030 A 
HETATM    4  C   UNL     1      41.577 -13.802  -2.991  1.00  0.00     0.063 A 
HETATM    5  N   UNL     1      41.798 -12.815  -3.911  1.00  0.00    -0.277 N 
HETATM    6  H   UNL     1      41.674 -12.874  -4.915  1.00  0.00     0.189 HD
HETATM    7  N   UNL     1      42.241 -11.659  -3.392  1.00  0.00    -0.168 NA
HETATM    8  C   UNL     1      42.302 -11.903  -2.062  1.00  0.00     0.156 A 
HETATM    9  C   UNL     1      41.150 -15.123  -3.137  1.00  0.00     0.034 A 
HETATM   10  C   UNL     1      41.034 -15.884  -1.968  1.00  0.00     0.032 A 
ENDROOT
BRANCH   1  11
HETATM   11  N   UNL     1      41.166 -16.217   0.399  1.00  0.00    -0.327 N 
HETATM   12  C   UNL     1      42.169 -16.858   1.105  1.00  0.00     0.231 C 
HETATM   13  O   UNL     1      43.374 -16.685   0.926  1.00  0.00    -0.272 OA
HETATM   14  H   UNL     1      40.218 -16.338   0.733  1.00  0.00     0.169 HD
BRANCH  12  15
HETATM   15  C   UNL     1      41.712 -17.882   2.159  1.00  0.00     0.116 C 
HETATM   16  C   UNL     1      42.769 -18.838   2.658  1.00  0.00    -0.012 A 
HETATM   17  C   UNL     1      43.147 -19.946   1.882  1.00  0.00     0.011 A 
HETATM   18  C   UNL     1      43.398 -18.621   3.889  1.00  0.00     0.075 A 
HETATM   19  C   UNL     1      44.139 -20.818   2.332  1.00  0.00     0.001 A 
HETATM   20  C   UNL     1      44.757 -20.595   3.559  1.00  0.00     0.003 A 
HETATM   21  C   UNL     1      44.383 -19.501   4.339  1.00  0.00     0.037 A 
HETATM   22  O   UNL     1      43.089 -17.595   4.737  1.00  0.00    -0.351 OA
HETATM   23  C   UNL     1      42.237 -16.575   4.207  1.00  0.00     0.176 C 
HETATM   24  C   UNL     1      41.111 -17.137   3.353  1.00  0.00     0.045 C 
ENDBRANCH  12  15
ENDBRANCH   1  11
BRANCH   8  25
HETATM   25  C   UNL     1      42.772 -10.876  -1.122  1.00  0.00     0.270 C 
HETATM   26  N   UNL     1      41.767 -10.213  -0.471  1.00  0.00    -0.365 N 
HETATM   27  H   UNL     1      40.807 -10.455  -0.688  1.00  0.00     0.159 HD
HETATM   28  H   UNL     1      41.995  -9.472   0.173  1.00  0.00     0.159 HD
HETATM   29  O   UNL     1      43.950 -10.599  -0.921  1.00  0.00    -0.266 OA
ENDBRANCH   8  25
TORSDOF 3
ENDMDL
MODEL 2
REMARK VINA RESULT:      -8.6      1.760      2.773
REMARK  3 active torsions:
REMARK  status: ('A' for Active; 'I' for Inactive)
REMARK    1  A    between atoms: C_8  and  C_9 
REMARK       I    between atoms: C_9  and  N_10 
REMARK    2  A    between atoms: N_10  and  C_11 
REMARK    3  A    between atoms: C_18  and  C_19 
REMARK       I    between atoms: C_19  and  N_20 
ROOT
HETATM    1  C   UNL     1      41.836 -14.796   1.340  1.00  0.00     0.035 A 
HETATM    2  C   UNL     1      41.564 -14.860  -0.033  1.00  0.00     0.046 A 
HETATM    3  C   UNL     1      41.590 -13.676  -0.805  1.00  0.00     0.030 A 
HETATM    4  C   UNL     1      41.905 -12.476  -0.180  1.00  0.00     0.063 A 
HETATM    5  N   UNL     1      41.864 -11.532  -1.168  1.00  0.00    -0.277 N 
HETATM    6  H   UNL     1      42.048 -10.539  -1.075  1.00  0.00     0.189 HD
HETATM    7  N   UNL     1      41.526 -12.006  -2.377  1.00  0.00    -0.168 NA
HETATM    8  C   UNL     1      41.347 -13.331  -2.168  1.00  0.00     0.156 A 
HETATM    9  C   UNL     1      42.183 -12.376   1.184  1.00  0.00     0.034 A 
HETATM   10  C   UNL     1      42.129 -13.559   1.930  1.00  0.00     0.032 A 
ENDROOT
BRANCH   1  11
HETATM   11  N   UNL     1      41.800 -15.915   2.199  1.00  0.00    -0.327 N 
HETATM   12  C   UNL     1      42.811 -16.829   2.439  1.00  0.00     0.231 C 
HETATM   13  O   UNL     1      43.955 -16.743   1.994  1.00  0.00    -0.272 OA
HETATM   14  H   UNL     1      40.945 -16.021   2.733  1.00  0.00     0.169 HD
BRANCH  12  15
HETATM   15  C   UNL     1      42.435 -18.048   3.300  1.00  0.00     0.116 C 
HETATM   16  C   UNL     1      43.258 -19.295   3.080  1.00  0.00    -0.012 A 
HETATM   17  C   UNL     1      43.010 -20.120   1.970  1.00  0.00     0.011 A 
HETATM   18  C   UNL     1      44.287 -19.633   3.965  1.00  0.00     0.075 A 
HETATM   19  C   UNL     1      43.784 -21.261   1.752  1.00  0.00     0.001 A 
HETATM   20  C   UNL     1      44.804 -21.590   2.641  1.00  0.00     0.003 A 
HETATM   21  C   UNL     1      45.052 -20.780   3.748  1.00  0.00     0.037 A 
HETATM   22  O   UNL     1      44.595 -18.920   5.090  1.00  0.00    -0.351 OA
HETATM   23  C   UNL     1      43.966 -17.642   5.217  1.00  0.00     0.176 C 
HETATM   24  C   UNL     1      42.510 -17.659   4.779  1.00  0.00     0.045 C 
ENDBRANCH  12  15
ENDBRANCH   1  11
BRANCH   8  25
HETATM   25  C   UNL     1      40.939 -14.224  -3.261  1.00  0.00     0.270 C 
HETATM   26  N   UNL     1      39.746 -13.886  -3.842  1.00  0.00    -0.365 N 
HETATM   27  H   UNL     1      39.240 -13.086  -3.480  1.00  0.00     0.159 HD
HETATM   28  H   UNL     1      39.373 -14.458  -4.583  1.00  0.00     0.159 HD
HETATM   29  O   UNL     1      41.574 -15.202  -3.639  1.00  0.00    -0.266 OA
ENDBRANCH   8  25
TORSDOF 3
ENDMDL
MODEL 3
REMARK VINA RESULT:      -8.4      3.304      8.056
REMARK  3 active torsions:
REMARK  status: ('A' for Active; 'I' for Inactive)
REMARK    1  A    between atoms: C_8  and  C_9 
REMARK       I    between atoms: C_9  and  N_10 
REMARK    2  A    between atoms: N_10  and  C_11 
REMARK    3  A    between atoms: C_18  and  C_19 
REMARK       I    between atoms: C_19  and  N_20 
ROOT
HETATM    1  C   UNL     1      43.284 -17.048   2.440  1.00  0.00     0.035 A 
HETATM    2  C   UNL     1      43.076 -17.018   3.825  1.00  0.00     0.046 A 
HETATM    3  C   UNL     1      43.443 -18.135   4.610  1.00  0.00     0.030 A 
HETATM    4  C   UNL     1      44.024 -19.231   3.985  1.00  0.00     0.063 A 
HETATM    5  N   UNL     1      44.276 -20.128   4.985  1.00  0.00    -0.277 N 
HETATM    6  H   UNL     1      44.704 -21.042   4.896  1.00  0.00     0.189 HD
HETATM    7  N   UNL     1      43.890 -19.723   6.206  1.00  0.00    -0.168 NA
HETATM    8  C   UNL     1      43.367 -18.493   5.989  1.00  0.00     0.156 A 
HETATM    9  C   UNL     1      44.248 -19.294   2.609  1.00  0.00     0.034 A 
HETATM   10  C   UNL     1      43.855 -18.185   1.851  1.00  0.00     0.032 A 
ENDROOT
BRANCH   1  11
HETATM   11  N   UNL     1      42.919 -15.999   1.569  1.00  0.00    -0.327 N 
HETATM   12  C   UNL     1      41.818 -15.939   0.734  1.00  0.00     0.231 C 
HETATM   13  O   UNL     1      40.920 -16.779   0.695  1.00  0.00    -0.272 OA
HETATM   14  H   UNL     1      43.515 -15.181   1.608  1.00  0.00     0.169 HD
BRANCH  12  15
HETATM   15  C   UNL     1      41.760 -14.741  -0.229  1.00  0.00     0.116 C 
HETATM   16  C   UNL     1      40.711 -14.810  -1.314  1.00  0.00    -0.012 A 
HETATM   17  C   UNL     1      40.923 -15.599  -2.456  1.00  0.00     0.011 A 
HETATM   18  C   UNL     1      39.508 -14.106  -1.184  1.00  0.00     0.075 A 
HETATM   19  C   UNL     1      39.945 -15.681  -3.448  1.00  0.00     0.001 A 
HETATM   20  C   UNL     1      38.753 -14.975  -3.311  1.00  0.00     0.003 A 
HETATM   21  C   UNL     1      38.537 -14.185  -2.182  1.00  0.00     0.037 A 
HETATM   22  O   UNL     1      39.209 -13.288  -0.131  1.00  0.00    -0.351 OA
HETATM   23  C   UNL     1      40.095 -13.356   0.990  1.00  0.00     0.176 C 
HETATM   24  C   UNL     1      41.555 -13.457   0.579  1.00  0.00     0.045 C 
ENDBRANCH  12  15
ENDBRANCH   1  11
BRANCH   8  25
HETATM   25  C   UNL     1      42.799 -17.705   7.091  1.00  0.00     0.270 C 
HETATM   26  N   UNL     1      43.456 -17.857   8.283  1.00  0.00    -0.365 N 
HETATM   27  H   UNL     1      44.245 -18.492   8.324  1.00  0.00     0.159 HD
HETATM   28  H   UNL     1      43.120 -17.376   9.102  1.00  0.00     0.159 HD
HETATM   29  O   UNL     1      41.819 -16.975   6.997  1.00  0.00    -0.266 OA
ENDBRANCH   8  25
TORSDOF 3
ENDMDL
MODEL 4
REMARK VINA RESULT:      -8.2      2.305      3.170
REMARK  3 active torsions:
REMARK  status: ('A' for Active; 'I' for Inactive)
REMARK    1  A    between atoms: C_8  and  C_9 
REMARK       I    between atoms: C_9  and  N_10 
REMARK    2  A    between atoms: N_10  and  C_11 
REMARK    3  A    between atoms: C_18  and  C_19 
REMARK       I    between atoms: C_19  and  N_20 
ROOT
HETATM    1  C   UNL     1      39.972 -15.069   1.692  1.00  0.00     0.035 A 
HETATM    2  C   UNL     1      40.483 -15.154   0.390  1.00  0.00     0.046 A 
HETATM    3  C   UNL     1      40.174 -14.142  -0.547  1.00  0.00     0.030 A 
HETATM    4  C   UNL     1      39.386 -13.072  -0.143  1.00  0.00     0.063 A 
HETATM    5  N   UNL     1      39.276 -12.267  -1.242  1.00  0.00    -0.277 N 
HETATM    6  H   UNL     1      38.774 -11.389  -1.311  1.00  0.00     0.189 HD
HETATM    7  N   UNL     1      39.904 -12.728  -2.335  1.00  0.00    -0.168 NA
HETATM    8  C   UNL     1      40.460 -13.891  -1.923  1.00  0.00     0.156 A 
HETATM    9  C   UNL     1      38.863 -12.954   1.146  1.00  0.00     0.034 A 
HETATM   10  C   UNL     1      39.163 -13.981   2.049  1.00  0.00     0.032 A 
ENDROOT
BRANCH   1  11
HETATM   11  N   UNL     1      40.194 -16.046   2.687  1.00  0.00    -0.327 N 
HETATM   12  C   UNL     1      41.377 -16.327   3.346  1.00  0.00     0.231 C 
HETATM   13  O   UNL     1      42.419 -15.684   3.222  1.00  0.00    -0.272 OA
HETATM   14  H   UNL     1      39.370 -16.560   2.976  1.00  0.00     0.169 HD
BRANCH  12  15
HETATM   15  C   UNL     1      41.367 -17.560   4.266  1.00  0.00     0.116 C 
HETATM   16  C   UNL     1      42.680 -18.291   4.412  1.00  0.00    -0.012 A 
HETATM   17  C   UNL     1      43.122 -19.164   3.404  1.00  0.00     0.011 A 
HETATM   18  C   UNL     1      43.481 -18.093   5.543  1.00  0.00     0.075 A 
HETATM   19  C   UNL     1      44.346 -19.823   3.527  1.00  0.00     0.001 A 
HETATM   20  C   UNL     1      45.134 -19.622   4.657  1.00  0.00     0.003 A 
HETATM   21  C   UNL     1      44.700 -18.762   5.665  1.00  0.00     0.037 A 
HETATM   22  O   UNL     1      43.137 -17.292   6.595  1.00  0.00    -0.351 OA
HETATM   23  C   UNL     1      42.000 -16.447   6.397  1.00  0.00     0.176 C 
HETATM   24  C   UNL     1      40.872 -17.145   5.654  1.00  0.00     0.045 C 
ENDBRANCH  12  15
ENDBRANCH   1  11
BRANCH   8  25
HETATM   25  C   UNL     1      41.231 -14.734  -2.847  1.00  0.00     0.270 C 
HETATM   26  N   UNL     1      42.443 -14.208  -3.203  1.00  0.00    -0.365 N 
HETATM   27  H   UNL     1      42.706 -13.302  -2.834  1.00  0.00     0.159 HD
HETATM   28  H   UNL     1      43.029 -14.704  -3.856  1.00  0.00     0.159 HD
HETATM   29  O   UNL     1      40.851 -15.812  -3.293  1.00  0.00    -0.266 OA
ENDBRANCH   8  25
TORSDOF 3
ENDMDL
MODEL 5
REMARK VINA RESULT:      -8.0      3.892      8.262
REMARK  3 active torsions:
REMARK  status: ('A' for Active; 'I' for Inactive)
REMARK    1  A    between atoms: C_8  and  C_9 
REMARK       I    between atoms: C_9  and  N_10 
REMARK    2  A    between atoms: N_10  and  C_11 
REMARK    3  A    between atoms: C_18  and  C_19 
REMARK       I    between atoms: C_19  and  N_20 
ROOT
HETATM    1  C   UNL     1      42.615 -17.406   3.459  1.00  0.00     0.035 A 
HETATM    2  C   UNL     1      42.868 -18.100   4.650  1.00  0.00     0.046 A 
HETATM    3  C   UNL     1      43.701 -19.242   4.627  1.00  0.00     0.030 A 
HETATM    4  C   UNL     1      44.266 -19.636   3.421  1.00  0.00     0.063 A 
HETATM    5  N   UNL     1      45.016 -20.740   3.715  1.00  0.00    -0.277 N 
HETATM    6  H   UNL     1      45.576 -21.290   3.074  1.00  0.00     0.189 HD
HETATM    7  N   UNL     1      44.972 -21.115   5.003  1.00  0.00    -0.168 NA
HETATM    8  C   UNL     1      44.157 -20.201   5.580  1.00  0.00     0.156 A 
HETATM    9  C   UNL     1      44.037 -18.968   2.217  1.00  0.00     0.034 A 
HETATM   10  C   UNL     1      43.191 -17.853   2.261  1.00  0.00     0.032 A 
ENDROOT
BRANCH   1  11
HETATM   11  N   UNL     1      41.770 -16.279   3.373  1.00  0.00    -0.327 N 
HETATM   12  C   UNL     1      40.605 -16.149   2.639  1.00  0.00     0.231 C 
HETATM   13  O   UNL     1      40.070 -17.059   2.006  1.00  0.00    -0.272 OA
HETATM   14  H   UNL     1      42.034 -15.498   3.961  1.00  0.00     0.169 HD
BRANCH  12  15
HETATM   15  C   UNL     1      39.976 -14.745   2.602  1.00  0.00     0.116 C 
HETATM   16  C   UNL     1      40.358 -13.817   3.731  1.00  0.00    -0.012 A 
HETATM   17  C   UNL     1      39.757 -13.952   4.993  1.00  0.00     0.011 A 
HETATM   18  C   UNL     1      41.327 -12.826   3.538  1.00  0.00     0.075 A 
HETATM   19  C   UNL     1      40.125 -13.109   6.043  1.00  0.00     0.001 A 
HETATM   20  C   UNL     1      41.088 -12.125   5.841  1.00  0.00     0.003 A 
HETATM   21  C   UNL     1      41.685 -11.981   4.589  1.00  0.00     0.037 A 
HETATM   22  O   UNL     1      41.953 -12.588   2.347  1.00  0.00    -0.351 OA
HETATM   23  C   UNL     1      41.753 -13.568   1.324  1.00  0.00     0.176 C 
HETATM   24  C   UNL     1      40.321 -14.076   1.270  1.00  0.00     0.045 C 
ENDBRANCH  12  15
ENDBRANCH   1  11
BRANCH   8  25
HETATM   25  C   UNL     1      43.825 -20.274   7.010  1.00  0.00     0.270 C 
HETATM   26  N   UNL     1      43.994 -19.094   7.683  1.00  0.00    -0.365 N 
HETATM   27  H   UNL     1      44.339 -18.290   7.172  1.00  0.00     0.159 HD
HETATM   28  H   UNL     1      43.817 -19.056   8.674  1.00  0.00     0.159 HD
HETATM   29  O   UNL     1      43.443 -21.285   7.588  1.00  0.00    -0.266 OA
ENDBRANCH   8  25
TORSDOF 3
ENDMDL
MODEL 6
REMARK VINA RESULT:      -7.8      3.654      7.998
REMARK  3 active torsions:
REMARK  status: ('A' for Active; 'I' for Inactive)
REMARK    1  A    between atoms: C_8  and  C_9 
REMARK       I    between atoms: C_9  and  N_10 
REMARK    2  A    between atoms: N_10  and  C_11 
REMARK    3  A    between atoms: C_18  and  C_19 
REMARK       I    between atoms: C_19  and  N_20 
ROOT
HETATM    1  C   UNL     1      43.092 -16.666   2.914  1.00  0.00     0.035 A 
HETATM    2  C   UNL     1      43.100 -17.034   4.267  1.00  0.00     0.046 A 
HETATM    3  C   UNL     1      43.620 -18.294   4.642  1.00  0.00     0.030 A 
HETATM    4  C   UNL     1      44.131 -19.129   3.657  1.00  0.00     0.063 A 
HETATM    5  N   UNL     1      44.564 -20.245   4.317  1.00  0.00    -0.277 N 
HETATM    6  H   UNL     1      45.000 -21.066   3.913  1.00  0.00     0.189 HD
HETATM    7  N   UNL     1      44.359 -20.222   5.643  1.00  0.00    -0.168 NA
HETATM    8  C   UNL     1      43.770 -19.023   5.860  1.00  0.00     0.156 A 
HETATM    9  C   UNL     1      44.141 -18.793   2.302  1.00  0.00     0.034 A 
HETATM   10  C   UNL     1      43.600 -17.551   1.953  1.00  0.00     0.032 A 
ENDROOT
BRANCH   1  11
HETATM   11  N   UNL     1      42.563 -15.447   2.437  1.00  0.00    -0.327 N 
HETATM   12  C   UNL     1      43.026 -14.169   2.690  1.00  0.00     0.231 C 
HETATM   13  O   UNL     1      44.054 -13.905   3.313  1.00  0.00    -0.272 OA
HETATM   14  H   UNL     1      41.784 -15.538   1.797  1.00  0.00     0.169 HD
BRANCH  12  15
HETATM   15  C   UNL     1      42.152 -13.013   2.171  1.00  0.00     0.116 C 
HETATM   16  C   UNL     1      41.183 -13.358   1.065  1.00  0.00    -0.012 A 
HETATM   17  C   UNL     1      41.636 -13.487  -0.259  1.00  0.00     0.011 A 
HETATM   18  C   UNL     1      39.830 -13.573   1.348  1.00  0.00     0.075 A 
HETATM   19  C   UNL     1      40.746 -13.827  -1.279  1.00  0.00     0.001 A 
HETATM   20  C   UNL     1      39.401 -14.037  -0.988  1.00  0.00     0.003 A 
HETATM   21  C   UNL     1      38.943 -13.905   0.323  1.00  0.00     0.037 A 
HETATM   22  O   UNL     1      39.277 -13.447   2.591  1.00  0.00    -0.351 OA
HETATM   23  C   UNL     1      40.197 -13.312   3.678  1.00  0.00     0.176 C 
HETATM   24  C   UNL     1      41.374 -12.409   3.342  1.00  0.00     0.045 C 
ENDBRANCH  12  15
ENDBRANCH   1  11
BRANCH   8  25
HETATM   25  C   UNL     1      43.355 -18.613   7.209  1.00  0.00     0.270 C 
HETATM   26  N   UNL     1      43.800 -19.440   8.205  1.00  0.00    -0.365 N 
HETATM   27  H   UNL     1      44.347 -20.254   7.951  1.00  0.00     0.159 HD
HETATM   28  H   UNL     1      43.541 -19.252   9.161  1.00  0.00     0.159 HD
HETATM   29  O   UNL     1      42.662 -17.633   7.460  1.00  0.00    -0.266 OA
ENDBRANCH   8  25
TORSDOF 3
ENDMDL
MODEL 7
REMARK VINA RESULT:      -7.7      4.009      8.411
REMARK  3 active torsions:
REMARK  status: ('A' for Active; 'I' for Inactive)
REMARK    1  A    between atoms: C_8  and  C_9 
REMARK       I    between atoms: C_9  and  N_10 
REMARK    2  A    between atoms: N_10  and  C_11 
REMARK    3  A    between atoms: C_18  and  C_19 
REMARK       I    between atoms: C_19  and  N_20 
ROOT
HETATM    1  C   UNL     1      41.832 -17.648   3.080  1.00  0.00     0.035 A 
HETATM    2  C   UNL     1      42.378 -18.072   4.300  1.00  0.00     0.046 A 
HETATM    3  C   UNL     1      43.419 -19.027   4.302  1.00  0.00     0.030 A 
HETATM    4  C   UNL     1      43.891 -19.508   3.088  1.00  0.00     0.063 A 
HETATM    5  N   UNL     1      44.886 -20.389   3.408  1.00  0.00    -0.277 N 
HETATM    6  H   UNL     1      45.459 -20.926   2.768  1.00  0.00     0.189 HD
HETATM    7  N   UNL     1      45.090 -20.543   4.726  1.00  0.00    -0.168 NA
HETATM    8  C   UNL     1      44.186 -19.711   5.294  1.00  0.00     0.156 A 
HETATM    9  C   UNL     1      43.373 -19.107   1.856  1.00  0.00     0.034 A 
HETATM   10  C   UNL     1      42.326 -18.177   1.880  1.00  0.00     0.032 A 
ENDROOT
BRANCH   1  11
HETATM   11  N   UNL     1      40.768 -16.727   2.976  1.00  0.00    -0.327 N 
HETATM   12  C   UNL     1      40.850 -15.360   2.785  1.00  0.00     0.231 C 
HETATM   13  O   UNL     1      41.894 -14.741   2.581  1.00  0.00    -0.272 OA
HETATM   14  H   UNL     1      39.841 -17.136   2.995  1.00  0.00     0.169 HD
BRANCH  12  15
HETATM   15  C   UNL     1      39.527 -14.579   2.875  1.00  0.00     0.116 C 
HETATM   16  C   UNL     1      39.648 -13.086   3.068  1.00  0.00    -0.012 A 
HETATM   17  C   UNL     1      39.939 -12.556   4.336  1.00  0.00     0.011 A 
HETATM   18  C   UNL     1      39.492 -12.215   1.983  1.00  0.00     0.075 A 
HETATM   19  C   UNL     1      40.073 -11.178   4.511  1.00  0.00     0.001 A 
HETATM   20  C   UNL     1      39.913 -10.320   3.426  1.00  0.00     0.003 A 
HETATM   21  C   UNL     1      39.618 -10.838   2.165  1.00  0.00     0.037 A 
HETATM   22  O   UNL     1      39.180 -12.619   0.715  1.00  0.00    -0.351 OA
HETATM   23  C   UNL     1      39.249 -14.026   0.468  1.00  0.00     0.176 C 
HETATM   24  C   UNL     1      38.697 -14.852   1.618  1.00  0.00     0.045 C 
ENDBRANCH  12  15
ENDBRANCH   1  11
BRANCH   8  25
HETATM   25  C   UNL     1      44.066 -19.601   6.754  1.00  0.00     0.270 C 
HETATM   26  N   UNL     1      44.533 -18.420   7.265  1.00  0.00    -0.365 N 
HETATM   27  H   UNL     1      44.929 -17.739   6.628  1.00  0.00     0.159 HD
HETATM   28  H   UNL     1      44.517 -18.267   8.261  1.00  0.00     0.159 HD
HETATM   29  O   UNL     1      43.609 -20.472   7.486  1.00  0.00    -0.266 OA
ENDBRANCH   8  25
TORSDOF 3
ENDMDL
MODEL 8
REMARK VINA RESULT:      -7.6      3.044      8.127
REMARK  3 active torsions:
REMARK  status: ('A' for Active; 'I' for Inactive)
REMARK    1  A    between atoms: C_8  and  C_9 
REMARK       I    between atoms: C_9  and  N_10 
REMARK    2  A    between atoms: N_10  and  C_11 
REMARK    3  A    between atoms: C_18  and  C_19 
REMARK       I    between atoms: C_19  and  N_20 
ROOT
HETATM    1  C   UNL     1      42.828 -15.899   1.782  1.00  0.00     0.035 A 
HETATM    2  C   UNL     1      43.094 -17.275   1.821  1.00  0.00     0.046 A 
HETATM    3  C   UNL     1      43.395 -17.891   3.057  1.00  0.00     0.030 A 
HETATM    4  C   UNL     1      43.399 -17.117   4.209  1.00  0.00     0.063 A 
HETATM    5  N   UNL     1      43.705 -17.979   5.225  1.00  0.00    -0.277 N 
HETATM    6  H   UNL     1      43.789 -17.760   6.211  1.00  0.00     0.189 HD
HETATM    7  N   UNL     1      43.924 -19.244   4.834  1.00  0.00    -0.168 NA
HETATM    8  C   UNL     1      43.742 -19.206   3.493  1.00  0.00     0.156 A 
HETATM    9  C   UNL     1      43.136 -15.746   4.208  1.00  0.00     0.034 A 
HETATM   10  C   UNL     1      42.863 -15.154   2.969  1.00  0.00     0.032 A 
ENDROOT
BRANCH   1  11
HETATM   11  N   UNL     1      42.552 -15.187   0.595  1.00  0.00    -0.327 N 
HETATM   12  C   UNL     1      41.327 -15.022  -0.026  1.00  0.00     0.231 C 
HETATM   13  O   UNL     1      40.251 -15.408   0.430  1.00  0.00    -0.272 OA
HETATM   14  H   UNL     1      43.344 -14.705   0.189  1.00  0.00     0.169 HD
BRANCH  12  15
HETATM   15  C   UNL     1      41.349 -14.334  -1.402  1.00  0.00     0.116 C 
HETATM   16  C   UNL     1      40.239 -14.714  -2.353  1.00  0.00    -0.012 A 
HETATM   17  C   UNL     1      40.296 -15.926  -3.061  1.00  0.00     0.011 A 
HETATM   18  C   UNL     1      39.132 -13.875  -2.524  1.00  0.00     0.075 A 
HETATM   19  C   UNL     1      39.260 -16.289  -3.924  1.00  0.00     0.001 A 
HETATM   20  C   UNL     1      38.165 -15.446  -4.089  1.00  0.00     0.003 A 
HETATM   21  C   UNL     1      38.103 -14.238  -3.393  1.00  0.00     0.037 A 
HETATM   22  O   UNL     1      38.987 -12.663  -1.908  1.00  0.00    -0.351 OA
HETATM   23  C   UNL     1      39.922 -12.371  -0.866  1.00  0.00     0.176 C 
HETATM   24  C   UNL     1      41.335 -12.817  -1.204  1.00  0.00     0.045 C 
ENDBRANCH  12  15
ENDBRANCH   1  11
BRANCH   8  25
HETATM   25  C   UNL     1      43.916 -20.409   2.668  1.00  0.00     0.270 C 
HETATM   26  N   UNL     1      45.013 -21.158   2.998  1.00  0.00    -0.365 N 
HETATM   27  H   UNL     1      45.614 -20.834   3.747  1.00  0.00     0.159 HD
HETATM   28  H   UNL     1      45.228 -21.987   2.467  1.00  0.00     0.159 HD
HETATM   29  O   UNL     1      43.176 -20.739   1.747  1.00  0.00    -0.266 OA
ENDBRANCH   8  25
TORSDOF 3
ENDMDL
MODEL 9
REMARK VINA RESULT:      -7.6      2.641      3.399
REMARK  3 active torsions:
REMARK  status: ('A' for Active; 'I' for Inactive)
REMARK    1  A    between atoms: C_8  and  C_9 
REMARK       I    between atoms: C_9  and  N_10 
REMARK    2  A    between atoms: N_10  and  C_11 
REMARK    3  A    between atoms: C_18  and  C_19 
REMARK       I    between atoms: C_19  and  N_20 
ROOT
HETATM    1  C   UNL     1      41.048 -15.178  -1.134  1.00  0.00     0.035 A 
HETATM    2  C   UNL     1      40.187 -14.089  -0.944  1.00  0.00     0.046 A 
HETATM    3  C   UNL     1      39.262 -13.747  -1.957  1.00  0.00     0.030 A 
HETATM    4  C   UNL     1      39.217 -14.518  -3.111  1.00  0.00     0.063 A 
HETATM    5  N   UNL     1      38.234 -13.961  -3.881  1.00  0.00    -0.277 N 
HETATM    6  H   UNL     1      37.922 -14.270  -4.795  1.00  0.00     0.189 HD
HETATM    7  N   UNL     1      37.649 -12.881  -3.341  1.00  0.00    -0.168 NA
HETATM    8  C   UNL     1      38.278 -12.731  -2.152  1.00  0.00     0.156 A 
HETATM    9  C   UNL     1      40.058 -15.610  -3.333  1.00  0.00     0.034 A 
HETATM   10  C   UNL     1      40.980 -15.914  -2.325  1.00  0.00     0.032 A 
ENDROOT
BRANCH   1  11
HETATM   11  N   UNL     1      42.028 -15.575  -0.199  1.00  0.00    -0.327 N 
HETATM   12  C   UNL     1      41.848 -16.338   0.941  1.00  0.00     0.231 C 
HETATM   13  O   UNL     1      40.790 -16.875   1.266  1.00  0.00    -0.272 OA
HETATM   14  H   UNL     1      42.976 -15.304  -0.428  1.00  0.00     0.169 HD
BRANCH  12  15
HETATM   15  C   UNL     1      43.069 -16.477   1.866  1.00  0.00     0.116 C 
HETATM   16  C   UNL     1      42.774 -16.794   3.313  1.00  0.00    -0.012 A 
HETATM   17  C   UNL     1      42.344 -15.782   4.187  1.00  0.00     0.011 A 
HETATM   18  C   UNL     1      42.906 -18.101   3.795  1.00  0.00     0.075 A 
HETATM   19  C   UNL     1      42.049 -16.078   5.519  1.00  0.00     0.001 A 
HETATM   20  C   UNL     1      42.186 -17.381   5.989  1.00  0.00     0.003 A 
HETATM   21  C   UNL     1      42.619 -18.390   5.129  1.00  0.00     0.037 A 
HETATM   22  O   UNL     1      43.343 -19.155   3.042  1.00  0.00    -0.351 OA
HETATM   23  C   UNL     1      43.444 -18.923   1.634  1.00  0.00     0.176 C 
HETATM   24  C   UNL     1      44.005 -17.549   1.304  1.00  0.00     0.045 C 
ENDBRANCH  12  15
ENDBRANCH   1  11
BRANCH   8  25
HETATM   25  C   UNL     1      37.939 -11.625  -1.246  1.00  0.00     0.270 C 
HETATM   26  N   UNL     1      36.785 -11.819  -0.536  1.00  0.00    -0.365 N 
HETATM   27  H   UNL     1      36.257 -12.670  -0.692  1.00  0.00     0.159 HD
HETATM   28  H   UNL     1      36.459 -11.100   0.090  1.00  0.00     0.159 HD
HETATM   29  O   UNL     1      38.596 -10.598  -1.120  1.00  0.00    -0.266 OA
ENDBRANCH   8  25
TORSDOF 3
ENDMDL
MODEL 10
REMARK VINA RESULT:      -7.5      1.662      2.092
REMARK  3 active torsions:
REMARK  status: ('A' for Active; 'I' for Inactive)
REMARK    1  A    between atoms: C_8  and  C_9 
REMARK       I    between atoms: C_9  and  N_10 
REMARK    2  A    between atoms: N_10  and  C_11 
REMARK    3  A    between atoms: C_18  and  C_19 
REMARK       I    between atoms: C_19  and  N_20 
ROOT
HETATM    1  C   UNL     1      40.270 -14.936   1.200  1.00  0.00     0.035 A 
HETATM    2  C   UNL     1      41.192 -14.247   0.399  1.00  0.00     0.046 A 
HETATM    3  C   UNL     1      40.730 -13.266  -0.507  1.00  0.00     0.030 A 
HETATM    4  C   UNL     1      39.370 -12.993  -0.564  1.00  0.00     0.063 A 
HETATM    5  N   UNL     1      39.237 -12.008  -1.503  1.00  0.00    -0.277 N 
HETATM    6  H   UNL     1      38.379 -11.558  -1.803  1.00  0.00     0.189 HD
HETATM    7  N   UNL     1      40.388 -11.631  -2.081  1.00  0.00    -0.168 NA
HETATM    8  C   UNL     1      41.322 -12.404  -1.480  1.00  0.00     0.156 A 
HETATM    9  C   UNL     1      38.425 -13.656   0.220  1.00  0.00     0.034 A 
HETATM   10  C   UNL     1      38.904 -14.640   1.093  1.00  0.00     0.032 A 
ENDROOT
BRANCH   1  11
HETATM   11  N   UNL     1      40.628 -15.956   2.107  1.00  0.00    -0.327 N 
HETATM   12  C   UNL     1      41.640 -16.890   1.972  1.00  0.00     0.231 C 
HETATM   13  O   UNL     1      42.459 -16.910   1.054  1.00  0.00    -0.272 OA
HETATM   14  H   UNL     1      40.108 -15.961   2.976  1.00  0.00     0.169 HD
BRANCH  12  15
HETATM   15  C   UNL     1      41.697 -17.991   3.045  1.00  0.00     0.116 C 
HETATM   16  C   UNL     1      42.838 -18.973   2.929  1.00  0.00    -0.012 A 
HETATM   17  C   UNL     1      42.782 -20.018   1.993  1.00  0.00     0.011 A 
HETATM   18  C   UNL     1      43.972 -18.842   3.739  1.00  0.00     0.075 A 
HETATM   19  C   UNL     1      43.846 -20.913   1.869  1.00  0.00     0.001 A 
HETATM   20  C   UNL     1      44.968 -20.776   2.681  1.00  0.00     0.003 A 
HETATM   21  C   UNL     1      45.029 -19.745   3.617  1.00  0.00     0.037 A 
HETATM   22  O   UNL     1      44.121 -17.882   4.700  1.00  0.00    -0.351 OA
HETATM   23  C   UNL     1      43.148 -16.834   4.698  1.00  0.00     0.176 C 
HETATM   24  C   UNL     1      41.740 -17.340   4.430  1.00  0.00     0.045 C 
ENDBRANCH  12  15
ENDBRANCH   1  11
BRANCH   8  25
HETATM   25  C   UNL     1      42.740 -12.313  -1.855  1.00  0.00     0.270 C 
HETATM   26  N   UNL     1      43.124 -13.218  -2.808  1.00  0.00    -0.365 N 
HETATM   27  H   UNL     1      42.435 -13.872  -3.160  1.00  0.00     0.159 HD
HETATM   28  H   UNL     1      44.086 -13.248  -3.107  1.00  0.00     0.159 HD
HETATM   29  O   UNL     1      43.542 -11.523  -1.370  1.00  0.00    -0.266 OA
ENDBRANCH   8  25
TORSDOF 3
ENDMDL
