MODEL 1
REMARK VINA RESULT:      -8.3      0.000      0.000
REMARK  8 active torsions:
REMARK  status: ('A' for Active; 'I' for Inactive)
REMARK    1  A    between atoms: O_2  and  C_3 
REMARK    2  A    between atoms: C_4  and  O_5 
REMARK    3  A    between atoms: C_6  and  C_7 
REMARK    4  A    between atoms: C_7  and  C_8 
REMARK    5  A    between atoms: C_11  and  C_12 
REMARK    6  A    between atoms: C_12  and  N_13 
REMARK    7  A    between atoms: C_16  and  N_17 
REMARK       I    between atoms: N_17  and  C_18 
REMARK       I    between atoms: C_18  and  N_19 
REMARK    8  A    between atoms: N_19  and  C_20 
ROOT
HETATM    1  N   UNL     1      41.922 -16.753   2.315  1.00  0.00    -0.065 N 
HETATM    2  H   UNL     1      41.537 -17.364   3.047  1.00  0.00     0.280 HD
HETATM    3  C   UNL     1      41.168 -17.055   1.029  1.00  0.00     0.260 C 
HETATM    4  C   UNL     1      40.784 -15.674   0.462  1.00  0.00     0.113 C 
HETATM    5  C   UNL     1      40.486 -14.908   1.743  1.00  0.00     0.054 C 
HETATM    6  C   UNL     1      41.611 -15.319   2.680  1.00  0.00     0.237 C 
ENDROOT
BRANCH   1   7
HETATM    7  C   UNL     1      43.395 -17.071   2.238  1.00  0.00     0.273 C 
BRANCH   7   8
HETATM    8  C   UNL     1      43.733 -18.294   3.052  1.00  0.00    -0.029 A 
HETATM    9  C   UNL     1      43.795 -18.206   4.455  1.00  0.00     0.019 A 
HETATM   10  C   UNL     1      44.196 -19.302   5.241  1.00  0.00    -0.018 A 
HETATM   11  C   UNL     1      44.560 -20.485   4.594  1.00  0.00     0.105 A 
HETATM   12  C   UNL     1      44.454 -20.598   3.207  1.00  0.00     0.102 A 
HETATM   13  C   UNL     1      44.061 -19.507   2.433  1.00  0.00     0.048 A 
BRANCH  10  14
HETATM   14  C   UNL     1      44.275 -19.162   6.744  1.00  0.00     0.068 C 
BRANCH  14  15
HETATM   15  C   UNL     1      44.173 -17.728   7.185  1.00  0.00    -0.032 C 
HETATM   16  C   UNL     1      43.363 -17.286   8.157  1.00  0.00     0.007 C 
ENDBRANCH  14  15
ENDBRANCH  10  14
BRANCH  11  17
HETATM   17  O   UNL     1      45.054 -21.524   5.330  1.00  0.00    -0.357 OA
HETATM   18  H   UNL     1      44.909 -22.338   4.814  1.00  0.00     0.218 HD
ENDBRANCH  11  17
BRANCH  12  19
HETATM   19  O   UNL     1      44.811 -21.753   2.563  1.00  0.00    -0.353 OA
HETATM   20  C   UNL     1      43.991 -21.959   1.406  1.00  0.00     0.210 C 
ENDBRANCH  12  19
ENDBRANCH   7   8
ENDBRANCH   1   7
BRANCH   4  21
HETATM   21  N   UNL     1      41.825 -14.994  -0.316  1.00  0.00    -0.337 N 
HETATM   22  C   UNL     1      41.456 -13.957  -1.161  1.00  0.00     0.321 C 
HETATM   23  N   UNL     1      42.553 -13.284  -1.642  1.00  0.00    -0.309 N 
HETATM   24  O   UNL     1      40.281 -13.751  -1.423  1.00  0.00    -0.247 OA
HETATM   25  H   UNL     1      43.462 -13.638  -1.383  1.00  0.00     0.170 HD
HETATM   26  H   UNL     1      42.664 -14.764   0.206  1.00  0.00     0.164 HD
BRANCH  23  27
HETATM   27  C   UNL     1      42.558 -12.152  -2.487  1.00  0.00     0.036 A 
HETATM   28  C   UNL     1      42.276 -12.198  -3.856  1.00  0.00     0.032 A 
HETATM   29  C   UNL     1      42.296 -11.028  -4.623  1.00  0.00     0.044 A 
HETATM   30  C   UNL     1      42.593  -9.814  -4.021  1.00  0.00     0.116 A 
HETATM   31  F   UNL     1      42.609  -8.695  -4.757  1.00  0.00    -0.206 F 
HETATM   32  C   UNL     1      42.872  -9.745  -2.663  1.00  0.00     0.044 A 
HETATM   33  C   UNL     1      42.857 -10.914  -1.897  1.00  0.00     0.032 A 
ENDBRANCH  23  27
ENDBRANCH   4  21
TORSDOF 8
ENDMDL
MODEL 2
REMARK VINA RESULT:      -8.3      1.107      3.029
REMARK  8 active torsions:
REMARK  status: ('A' for Active; 'I' for Inactive)
REMARK    1  A    between atoms: O_2  and  C_3 
REMARK    2  A    between atoms: C_4  and  O_5 
REMARK    3  A    between atoms: C_6  and  C_7 
REMARK    4  A    between atoms: C_7  and  C_8 
REMARK    5  A    between atoms: C_11  and  C_12 
REMARK    6  A    between atoms: C_12  and  N_13 
REMARK    7  A    between atoms: C_16  and  N_17 
REMARK       I    between atoms: N_17  and  C_18 
REMARK       I    between atoms: C_18  and  N_19 
REMARK    8  A    between atoms: N_19  and  C_20 
ROOT
HETATM    1  N   UNL     1      41.662 -16.238   3.141  1.00  0.00    -0.065 N 
HETATM    2  H   UNL     1      41.256 -16.713   3.958  1.00  0.00     0.280 HD
HETATM    3  C   UNL     1      41.072 -16.886   1.898  1.00  0.00     0.260 C 
HETATM    4  C   UNL     1      40.636 -15.708   1.006  1.00  0.00     0.113 C 
HETATM    5  C   UNL     1      40.144 -14.718   2.053  1.00  0.00     0.054 C 
HETATM    6  C   UNL     1      41.197 -14.799   3.147  1.00  0.00     0.237 C 
ENDROOT
BRANCH   1   7
HETATM    7  C   UNL     1      43.156 -16.410   3.259  1.00  0.00     0.273 C 
BRANCH   7   8
HETATM    8  C   UNL     1      43.504 -17.553   4.176  1.00  0.00    -0.029 A 
HETATM    9  C   UNL     1      43.992 -18.759   3.639  1.00  0.00     0.019 A 
HETATM   10  C   UNL     1      44.240 -19.878   4.455  1.00  0.00    -0.018 A 
HETATM   11  C   UNL     1      43.968 -19.777   5.821  1.00  0.00     0.105 A 
HETATM   12  C   UNL     1      43.532 -18.571   6.371  1.00  0.00     0.102 A 
HETATM   13  C   UNL     1      43.282 -17.467   5.557  1.00  0.00     0.048 A 
BRANCH  10  14
HETATM   14  C   UNL     1      44.740 -21.164   3.837  1.00  0.00     0.068 C 
BRANCH  14  15
HETATM   15  C   UNL     1      44.654 -21.142   2.336  1.00  0.00    -0.032 C 
HETATM   16  C   UNL     1      43.753 -21.823   1.616  1.00  0.00     0.007 C 
ENDBRANCH  14  15
ENDBRANCH  10  14
BRANCH  11  17
HETATM   17  O   UNL     1      44.101 -20.883   6.611  1.00  0.00    -0.357 OA
HETATM   18  H   UNL     1      43.808 -20.633   7.507  1.00  0.00     0.218 HD
ENDBRANCH  11  17
BRANCH  12  19
HETATM   19  O   UNL     1      43.259 -18.463   7.709  1.00  0.00    -0.353 OA
HETATM   20  C   UNL     1      43.309 -17.092   8.124  1.00  0.00     0.210 C 
ENDBRANCH  12  19
ENDBRANCH   7   8
ENDBRANCH   1   7
BRANCH   4  21
HETATM   21  N   UNL     1      41.691 -15.107   0.183  1.00  0.00    -0.337 N 
HETATM   22  C   UNL     1      41.351 -14.098  -0.707  1.00  0.00     0.321 C 
HETATM   23  N   UNL     1      42.465 -13.493  -1.232  1.00  0.00    -0.309 N 
HETATM   24  O   UNL     1      40.180 -13.859  -0.963  1.00  0.00    -0.247 OA
HETATM   25  H   UNL     1      43.364 -13.869  -0.969  1.00  0.00     0.170 HD
HETATM   26  H   UNL     1      42.545 -14.885   0.683  1.00  0.00     0.164 HD
BRANCH  23  27
HETATM   27  C   UNL     1      42.503 -12.404  -2.131  1.00  0.00     0.036 A 
HETATM   28  C   UNL     1      42.165 -12.496  -3.486  1.00  0.00     0.032 A 
HETATM   29  C   UNL     1      42.222 -11.367  -4.309  1.00  0.00     0.044 A 
HETATM   30  C   UNL     1      42.612 -10.145  -3.778  1.00  0.00     0.116 A 
HETATM   31  F   UNL     1      42.662  -9.065  -4.568  1.00  0.00    -0.206 F 
HETATM   32  C   UNL     1      42.947 -10.030  -2.437  1.00  0.00     0.044 A 
HETATM   33  C   UNL     1      42.895 -11.159  -1.614  1.00  0.00     0.032 A 
ENDBRANCH  23  27
ENDBRANCH   4  21
TORSDOF 8
ENDMDL
MODEL 3
REMARK VINA RESULT:      -8.3      6.954     10.517
REMARK  8 active torsions:
REMARK  status: ('A' for Active; 'I' for Inactive)
REMARK    1  A    between atoms: O_2  and  C_3 
REMARK    2  A    between atoms: C_4  and  O_5 
REMARK    3  A    between atoms: C_6  and  C_7 
REMARK    4  A    between atoms: C_7  and  C_8 
REMARK    5  A    between atoms: C_11  and  C_12 
REMARK    6  A    between atoms: C_12  and  N_13 
REMARK    7  A    between atoms: C_16  and  N_17 
REMARK       I    between atoms: N_17  and  C_18 
REMARK       I    between atoms: C_18  and  N_19 
REMARK    8  A    between atoms: N_19  and  C_20 
ROOT
HETATM    1  N   UNL     1      40.558 -12.717   5.408  1.00  0.00    -0.065 N 
HETATM    2  H   UNL     1      40.155 -12.733   4.462  1.00  0.00     0.280 HD
HETATM    3  C   UNL     1      41.537 -11.554   5.464  1.00  0.00     0.260 C 
HETATM    4  C   UNL     1      41.196 -10.813   6.771  1.00  0.00     0.113 C 
HETATM    5  C   UNL     1      39.681 -10.961   6.802  1.00  0.00     0.054 C 
HETATM    6  C   UNL     1      39.452 -12.407   6.391  1.00  0.00     0.237 C 
ENDROOT
BRANCH   1   7
HETATM    7  C   UNL     1      41.209 -14.063   5.606  1.00  0.00     0.273 C 
BRANCH   7   8
HETATM    8  C   UNL     1      40.921 -14.986   4.451  1.00  0.00    -0.029 A 
HETATM    9  C   UNL     1      41.707 -16.138   4.261  1.00  0.00     0.019 A 
HETATM   10  C   UNL     1      41.526 -16.973   3.143  1.00  0.00    -0.018 A 
HETATM   11  C   UNL     1      40.556 -16.621   2.201  1.00  0.00     0.105 A 
HETATM   12  C   UNL     1      39.739 -15.509   2.406  1.00  0.00     0.102 A 
HETATM   13  C   UNL     1      39.926 -14.682   3.512  1.00  0.00     0.048 A 
BRANCH  10  14
HETATM   14  C   UNL     1      42.407 -18.188   2.961  1.00  0.00     0.068 C 
BRANCH  14  15
HETATM   15  C   UNL     1      43.802 -17.818   2.541  1.00  0.00    -0.032 C 
HETATM   16  C   UNL     1      44.136 -17.370   1.323  1.00  0.00     0.007 C 
ENDBRANCH  14  15
ENDBRANCH  10  14
BRANCH  11  17
HETATM   17  O   UNL     1      40.439 -17.358   1.058  1.00  0.00    -0.357 OA
HETATM   18  H   UNL     1      40.844 -16.839   0.339  1.00  0.00     0.218 HD
ENDBRANCH  11  17
BRANCH  12  19
HETATM   19  O   UNL     1      38.787 -15.153   1.486  1.00  0.00    -0.353 OA
HETATM   20  C   UNL     1      38.563 -13.738   1.516  1.00  0.00     0.210 C 
ENDBRANCH  12  19
ENDBRANCH   7   8
ENDBRANCH   1   7
BRANCH   4  21
HETATM   21  N   UNL     1      41.794 -11.366   7.991  1.00  0.00    -0.337 N 
HETATM   22  C   UNL     1      41.901 -10.552   9.110  1.00  0.00     0.321 C 
HETATM   23  N   UNL     1      42.268 -11.270  10.222  1.00  0.00    -0.309 N 
HETATM   24  O   UNL     1      41.707  -9.348   9.030  1.00  0.00    -0.247 OA
HETATM   25  H   UNL     1      42.464 -12.251  10.094  1.00  0.00     0.170 HD
HETATM   26  H   UNL     1      41.469 -12.294   8.240  1.00  0.00     0.164 HD
BRANCH  23  27
HETATM   27  C   UNL     1      42.428 -10.783  11.538  1.00  0.00     0.036 A 
HETATM   28  C   UNL     1      43.502  -9.987  11.952  1.00  0.00     0.032 A 
HETATM   29  C   UNL     1      43.584  -9.540  13.275  1.00  0.00     0.044 A 
HETATM   30  C   UNL     1      42.592  -9.885  14.182  1.00  0.00     0.116 A 
HETATM   31  F   UNL     1      42.672  -9.453  15.447  1.00  0.00    -0.206 F 
HETATM   32  C   UNL     1      41.517 -10.671  13.792  1.00  0.00     0.044 A 
HETATM   33  C   UNL     1      41.436 -11.122  12.472  1.00  0.00     0.032 A 
ENDBRANCH  23  27
ENDBRANCH   4  21
TORSDOF 8
ENDMDL
MODEL 4
REMARK VINA RESULT:      -8.2      3.157      4.569
REMARK  8 active torsions:
REMARK  status: ('A' for Active; 'I' for Inactive)
REMARK    1  A    between atoms: O_2  and  C_3 
REMARK    2  A    between atoms: C_4  and  O_5 
REMARK    3  A    between atoms: C_6  and  C_7 
REMARK    4  A    between atoms: C_7  and  C_8 
REMARK    5  A    between atoms: C_11  and  C_12 
REMARK    6  A    between atoms: C_12  and  N_13 
REMARK    7  A    between atoms: C_16  and  N_17 
REMARK       I    between atoms: N_17  and  C_18 
REMARK       I    between atoms: C_18  and  N_19 
REMARK    8  A    between atoms: N_19  and  C_20 
ROOT
HETATM    1  N   UNL     1      41.987 -14.830   4.482  1.00  0.00    -0.065 N 
HETATM    2  H   UNL     1      42.074 -15.217   5.430  1.00  0.00     0.280 HD
HETATM    3  C   UNL     1      40.537 -14.999   4.053  1.00  0.00     0.260 C 
HETATM    4  C   UNL     1      40.131 -13.629   3.479  1.00  0.00     0.113 C 
HETATM    5  C   UNL     1      40.887 -12.689   4.409  1.00  0.00     0.054 C 
HETATM    6  C   UNL     1      42.254 -13.343   4.548  1.00  0.00     0.237 C 
ENDROOT
BRANCH   1   7
HETATM    7  C   UNL     1      42.962 -15.600   3.626  1.00  0.00     0.273 C 
BRANCH   7   8
HETATM    8  C   UNL     1      43.381 -16.883   4.295  1.00  0.00    -0.029 A 
HETATM    9  C   UNL     1      43.905 -17.937   3.522  1.00  0.00     0.019 A 
HETATM   10  C   UNL     1      44.222 -19.181   4.099  1.00  0.00    -0.018 A 
HETATM   11  C   UNL     1      43.981 -19.362   5.462  1.00  0.00     0.105 A 
HETATM   12  C   UNL     1      43.509 -18.308   6.246  1.00  0.00     0.102 A 
HETATM   13  C   UNL     1      43.192 -17.079   5.669  1.00  0.00     0.048 A 
BRANCH  10  14
HETATM   14  C   UNL     1      44.760 -20.297   3.231  1.00  0.00     0.068 C 
BRANCH  14  15
HETATM   15  C   UNL     1      43.813 -20.657   2.121  1.00  0.00    -0.032 C 
HETATM   16  C   UNL     1      43.783 -21.844   1.501  1.00  0.00     0.007 C 
ENDBRANCH  14  15
ENDBRANCH  10  14
BRANCH  11  17
HETATM   17  O   UNL     1      44.181 -20.593   6.017  1.00  0.00    -0.357 OA
HETATM   18  H   UNL     1      43.829 -20.560   6.926  1.00  0.00     0.218 HD
ENDBRANCH  11  17
BRANCH  12  19
HETATM   19  O   UNL     1      43.266 -18.476   7.584  1.00  0.00    -0.353 OA
HETATM   20  C   UNL     1      43.307 -17.216   8.265  1.00  0.00     0.210 C 
ENDBRANCH  12  19
ENDBRANCH   7   8
ENDBRANCH   1   7
BRANCH   4  21
HETATM   21  N   UNL     1      40.508 -13.386   2.082  1.00  0.00    -0.337 N 
HETATM   22  C   UNL     1      40.091 -14.286   1.112  1.00  0.00     0.321 C 
HETATM   23  N   UNL     1      40.328 -13.810  -0.153  1.00  0.00    -0.309 N 
HETATM   24  O   UNL     1      39.609 -15.365   1.425  1.00  0.00    -0.247 OA
HETATM   25  H   UNL     1      40.808 -12.925  -0.232  1.00  0.00     0.170 HD
HETATM   26  H   UNL     1      40.392 -12.428   1.771  1.00  0.00     0.164 HD
BRANCH  23  27
HETATM   27  C   UNL     1      39.996 -14.432  -1.377  1.00  0.00     0.036 A 
HETATM   28  C   UNL     1      40.799 -15.384  -2.013  1.00  0.00     0.032 A 
HETATM   29  C   UNL     1      40.394 -15.959  -3.223  1.00  0.00     0.044 A 
HETATM   30  C   UNL     1      39.186 -15.585  -3.793  1.00  0.00     0.116 A 
HETATM   31  F   UNL     1      38.800 -16.139  -4.950  1.00  0.00    -0.206 F 
HETATM   32  C   UNL     1      38.372 -14.644  -3.178  1.00  0.00     0.044 A 
HETATM   33  C   UNL     1      38.778 -14.066  -1.972  1.00  0.00     0.032 A 
ENDBRANCH  23  27
ENDBRANCH   4  21
TORSDOF 8
ENDMDL
MODEL 5
REMARK VINA RESULT:      -8.1      4.303      7.946
REMARK  8 active torsions:
REMARK  status: ('A' for Active; 'I' for Inactive)
REMARK    1  A    between atoms: O_2  and  C_3 
REMARK    2  A    between atoms: C_4  and  O_5 
REMARK    3  A    between atoms: C_6  and  C_7 
REMARK    4  A    between atoms: C_7  and  C_8 
REMARK    5  A    between atoms: C_11  and  C_12 
REMARK    6  A    between atoms: C_12  and  N_13 
REMARK    7  A    between atoms: C_16  and  N_17 
REMARK       I    between atoms: N_17  and  C_18 
REMARK       I    between atoms: C_18  and  N_19 
REMARK    8  A    between atoms: N_19  and  C_20 
ROOT
HETATM    1  N   UNL     1      41.125 -13.616   0.596  1.00  0.00    -0.065 N 
HETATM    2  H   UNL     1      40.403 -12.885   0.537  1.00  0.00     0.280 HD
HETATM    3  C   UNL     1      40.421 -14.922   0.936  1.00  0.00     0.260 C 
HETATM    4  C   UNL     1      40.999 -15.952  -0.054  1.00  0.00     0.113 C 
HETATM    5  C   UNL     1      41.158 -15.096  -1.303  1.00  0.00     0.054 C 
HETATM    6  C   UNL     1      41.737 -13.792  -0.775  1.00  0.00     0.237 C 
ENDROOT
BRANCH   1   7
HETATM    7  C   UNL     1      42.094 -13.161   1.658  1.00  0.00     0.273 C 
BRANCH   7   8
HETATM    8  C   UNL     1      41.650 -13.601   3.029  1.00  0.00    -0.029 A 
HETATM    9  C   UNL     1      42.226 -14.741   3.620  1.00  0.00     0.019 A 
HETATM   10  C   UNL     1      41.773 -15.234   4.857  1.00  0.00    -0.018 A 
HETATM   11  C   UNL     1      40.712 -14.577   5.485  1.00  0.00     0.105 A 
HETATM   12  C   UNL     1      40.168 -13.418   4.932  1.00  0.00     0.102 A 
HETATM   13  C   UNL     1      40.617 -12.937   3.703  1.00  0.00     0.048 A 
BRANCH  10  14
HETATM   14  C   UNL     1      42.400 -16.477   5.448  1.00  0.00     0.068 C 
BRANCH  14  15
HETATM   15  C   UNL     1      43.780 -16.214   5.984  1.00  0.00    -0.032 C 
HETATM   16  C   UNL     1      44.054 -15.407   7.017  1.00  0.00     0.007 C 
ENDBRANCH  14  15
ENDBRANCH  10  14
BRANCH  11  17
HETATM   17  O   UNL     1      40.188 -15.102   6.632  1.00  0.00    -0.357 OA
HETATM   18  H   UNL     1      40.360 -16.062   6.613  1.00  0.00     0.218 HD
ENDBRANCH  11  17
BRANCH  12  19
HETATM   19  O   UNL     1      39.125 -12.769   5.539  1.00  0.00    -0.353 OA
HETATM   20  C   UNL     1      39.593 -11.614   6.246  1.00  0.00     0.210 C 
ENDBRANCH  12  19
ENDBRANCH   7   8
ENDBRANCH   1   7
BRANCH   4  21
HETATM   21  N   UNL     1      42.282 -16.552   0.328  1.00  0.00    -0.337 N 
HETATM   22  C   UNL     1      42.288 -17.572   1.268  1.00  0.00     0.321 C 
HETATM   23  N   UNL     1      43.520 -18.173   1.352  1.00  0.00    -0.309 N 
HETATM   24  O   UNL     1      41.289 -17.825   1.925  1.00  0.00    -0.247 OA
HETATM   25  H   UNL     1      44.262 -17.786   0.788  1.00  0.00     0.170 HD
HETATM   26  H   UNL     1      42.901 -16.761  -0.448  1.00  0.00     0.164 HD
BRANCH  23  27
HETATM   27  C   UNL     1      43.883 -19.270   2.164  1.00  0.00     0.036 A 
HETATM   28  C   UNL     1      43.878 -20.600   1.729  1.00  0.00     0.032 A 
HETATM   29  C   UNL     1      44.258 -21.631   2.595  1.00  0.00     0.044 A 
HETATM   30  C   UNL     1      44.647 -21.332   3.893  1.00  0.00     0.116 A 
HETATM   31  F   UNL     1      45.013 -22.320   4.719  1.00  0.00    -0.206 F 
HETATM   32  C   UNL     1      44.662 -20.020   4.344  1.00  0.00     0.044 A 
HETATM   33  C   UNL     1      44.279 -18.990   3.481  1.00  0.00     0.032 A 
ENDBRANCH  23  27
ENDBRANCH   4  21
TORSDOF 8
ENDMDL
MODEL 6
REMARK VINA RESULT:      -7.8      6.570      9.462
REMARK  8 active torsions:
REMARK  status: ('A' for Active; 'I' for Inactive)
REMARK    1  A    between atoms: O_2  and  C_3 
REMARK    2  A    between atoms: C_4  and  O_5 
REMARK    3  A    between atoms: C_6  and  C_7 
REMARK    4  A    between atoms: C_7  and  C_8 
REMARK    5  A    between atoms: C_11  and  C_12 
REMARK    6  A    between atoms: C_12  and  N_13 
REMARK    7  A    between atoms: C_16  and  N_17 
REMARK       I    between atoms: N_17  and  C_18 
REMARK       I    between atoms: C_18  and  N_19 
REMARK    8  A    between atoms: N_19  and  C_20 
ROOT
HETATM    1  N   UNL     1      40.411 -13.461   5.018  1.00  0.00    -0.065 N 
HETATM    2  H   UNL     1      40.466 -13.723   4.025  1.00  0.00     0.280 HD
HETATM    3  C   UNL     1      41.550 -12.491   5.295  1.00  0.00     0.260 C 
HETATM    4  C   UNL     1      40.902 -11.329   6.071  1.00  0.00     0.113 C 
HETATM    5  C   UNL     1      39.545 -11.245   5.385  1.00  0.00     0.054 C 
HETATM    6  C   UNL     1      39.124 -12.699   5.239  1.00  0.00     0.237 C 
ENDROOT
BRANCH   1   7
HETATM    7  C   UNL     1      40.514 -14.749   5.796  1.00  0.00     0.273 C 
BRANCH   7   8
HETATM    8  C   UNL     1      41.023 -15.872   4.930  1.00  0.00    -0.029 A 
HETATM    9  C   UNL     1      41.828 -16.881   5.492  1.00  0.00     0.019 A 
HETATM   10  C   UNL     1      42.395 -17.893   4.697  1.00  0.00    -0.018 A 
HETATM   11  C   UNL     1      42.163 -17.866   3.320  1.00  0.00     0.105 A 
HETATM   12  C   UNL     1      41.325 -16.900   2.761  1.00  0.00     0.102 A 
HETATM   13  C   UNL     1      40.770 -15.895   3.552  1.00  0.00     0.048 A 
BRANCH  10  14
HETATM   14  C   UNL     1      43.276 -18.945   5.333  1.00  0.00     0.068 C 
BRANCH  14  15
HETATM   15  C   UNL     1      44.699 -18.482   5.475  1.00  0.00    -0.032 C 
HETATM   16  C   UNL     1      45.234 -18.003   6.606  1.00  0.00     0.007 C 
ENDBRANCH  14  15
ENDBRANCH  10  14
BRANCH  11  17
HETATM   17  O   UNL     1      42.791 -18.776   2.519  1.00  0.00    -0.357 OA
HETATM   18  H   UNL     1      43.193 -18.280   1.782  1.00  0.00     0.218 HD
ENDBRANCH  11  17
BRANCH  12  19
HETATM   19  O   UNL     1      41.094 -16.862   1.411  1.00  0.00    -0.353 OA
HETATM   20  C   UNL     1      41.512 -15.606   0.863  1.00  0.00     0.210 C 
ENDBRANCH  12  19
ENDBRANCH   7   8
ENDBRANCH   1   7
BRANCH   4  21
HETATM   21  N   UNL     1      40.739 -11.539   7.513  1.00  0.00    -0.337 N 
HETATM   22  C   UNL     1      41.624 -10.917   8.382  1.00  0.00     0.321 C 
HETATM   23  N   UNL     1      41.211 -11.027   9.687  1.00  0.00    -0.309 N 
HETATM   24  O   UNL     1      42.642 -10.384   7.965  1.00  0.00    -0.247 OA
HETATM   25  H   UNL     1      40.380 -11.571   9.864  1.00  0.00     0.170 HD
HETATM   26  H   UNL     1      39.785 -11.471   7.848  1.00  0.00     0.164 HD
BRANCH  23  27
HETATM   27  C   UNL     1      41.835 -10.481  10.830  1.00  0.00     0.036 A 
HETATM   28  C   UNL     1      41.381  -9.337  11.497  1.00  0.00     0.032 A 
HETATM   29  C   UNL     1      42.052  -8.863  12.629  1.00  0.00     0.044 A 
HETATM   30  C   UNL     1      43.174  -9.534  13.096  1.00  0.00     0.116 A 
HETATM   31  F   UNL     1      43.813  -9.079  14.181  1.00  0.00    -0.206 F 
HETATM   32  C   UNL     1      43.639 -10.671  12.453  1.00  0.00     0.044 A 
HETATM   33  C   UNL     1      42.971 -11.143  11.319  1.00  0.00     0.032 A 
ENDBRANCH  23  27
ENDBRANCH   4  21
TORSDOF 8
ENDMDL
MODEL 7
REMARK VINA RESULT:      -7.7      3.960      9.319
REMARK  8 active torsions:
REMARK  status: ('A' for Active; 'I' for Inactive)
REMARK    1  A    between atoms: O_2  and  C_3 
REMARK    2  A    between atoms: C_4  and  O_5 
REMARK    3  A    between atoms: C_6  and  C_7 
REMARK    4  A    between atoms: C_7  and  C_8 
REMARK    5  A    between atoms: C_11  and  C_12 
REMARK    6  A    between atoms: C_12  and  N_13 
REMARK    7  A    between atoms: C_16  and  N_17 
REMARK       I    between atoms: N_17  and  C_18 
REMARK       I    between atoms: C_18  and  N_19 
REMARK    8  A    between atoms: N_19  and  C_20 
ROOT
HETATM    1  N   UNL     1      41.002 -12.896   2.895  1.00  0.00    -0.065 N 
HETATM    2  H   UNL     1      40.981 -11.903   2.628  1.00  0.00     0.280 HD
HETATM    3  C   UNL     1      42.461 -13.322   2.948  1.00  0.00     0.260 C 
HETATM    4  C   UNL     1      42.604 -14.079   4.282  1.00  0.00     0.113 C 
HETATM    5  C   UNL     1      41.674 -13.271   5.176  1.00  0.00     0.054 C 
HETATM    6  C   UNL     1      40.456 -13.024   4.299  1.00  0.00     0.237 C 
ENDROOT
BRANCH   1   7
HETATM    7  C   UNL     1      40.200 -13.626   1.846  1.00  0.00     0.273 C 
BRANCH   7   8
HETATM    8  C   UNL     1      40.845 -13.516   0.489  1.00  0.00    -0.029 A 
HETATM    9  C   UNL     1      40.603 -14.504  -0.484  1.00  0.00     0.019 A 
HETATM   10  C   UNL     1      41.258 -14.483  -1.729  1.00  0.00    -0.018 A 
HETATM   11  C   UNL     1      42.184 -13.467  -1.974  1.00  0.00     0.105 A 
HETATM   12  C   UNL     1      42.395 -12.456  -1.036  1.00  0.00     0.102 A 
HETATM   13  C   UNL     1      41.746 -12.484   0.197  1.00  0.00     0.048 A 
BRANCH  10  14
HETATM   14  C   UNL     1      40.990 -15.576  -2.739  1.00  0.00     0.068 C 
BRANCH  14  15
HETATM   15  C   UNL     1      39.844 -15.235  -3.650  1.00  0.00    -0.032 C 
HETATM   16  C   UNL     1      38.968 -16.124  -4.137  1.00  0.00     0.007 C 
ENDBRANCH  14  15
ENDBRANCH  10  14
BRANCH  11  17
HETATM   17  O   UNL     1      42.909 -13.491  -3.132  1.00  0.00    -0.357 OA
HETATM   18  H   UNL     1      42.504 -12.844  -3.738  1.00  0.00     0.218 HD
ENDBRANCH  11  17
BRANCH  12  19
HETATM   19  O   UNL     1      43.303 -11.457  -1.267  1.00  0.00    -0.353 OA
HETATM   20  C   UNL     1      42.635 -10.246  -1.645  1.00  0.00     0.210 C 
ENDBRANCH  12  19
ENDBRANCH   7   8
ENDBRANCH   1   7
BRANCH   4  21
HETATM   21  N   UNL     1      42.201 -15.489   4.260  1.00  0.00    -0.337 N 
HETATM   22  C   UNL     1      43.040 -16.414   3.654  1.00  0.00     0.321 C 
HETATM   23  N   UNL     1      42.638 -17.702   3.909  1.00  0.00    -0.309 N 
HETATM   24  O   UNL     1      43.983 -16.049   2.968  1.00  0.00    -0.247 OA
HETATM   25  H   UNL     1      41.786 -17.825   4.435  1.00  0.00     0.170 HD
HETATM   26  H   UNL     1      41.837 -15.841   5.138  1.00  0.00     0.164 HD
BRANCH  23  27
HETATM   27  C   UNL     1      43.273 -18.894   3.495  1.00  0.00     0.036 A 
HETATM   28  C   UNL     1      44.199 -19.598   4.274  1.00  0.00     0.032 A 
HETATM   29  C   UNL     1      44.779 -20.776   3.793  1.00  0.00     0.044 A 
HETATM   30  C   UNL     1      44.432 -21.253   2.536  1.00  0.00     0.116 A 
HETATM   31  F   UNL     1      44.987 -22.382   2.080  1.00  0.00    -0.206 F 
HETATM   32  C   UNL     1      43.514 -20.572   1.749  1.00  0.00     0.044 A 
HETATM   33  C   UNL     1      42.937 -19.393   2.227  1.00  0.00     0.032 A 
ENDBRANCH  23  27
ENDBRANCH   4  21
TORSDOF 8
ENDMDL
MODEL 8
REMARK VINA RESULT:      -7.6      4.700      6.887
REMARK  8 active torsions:
REMARK  status: ('A' for Active; 'I' for Inactive)
REMARK    1  A    between atoms: O_2  and  C_3 
REMARK    2  A    between atoms: C_4  and  O_5 
REMARK    3  A    between atoms: C_6  and  C_7 
REMARK    4  A    between atoms: C_7  and  C_8 
REMARK    5  A    between atoms: C_11  and  C_12 
REMARK    6  A    between atoms: C_12  and  N_13 
REMARK    7  A    between atoms: C_16  and  N_17 
REMARK       I    between atoms: N_17  and  C_18 
REMARK       I    between atoms: C_18  and  N_19 
REMARK    8  A    between atoms: N_19  and  C_20 
ROOT
HETATM    1  N   UNL     1      41.950 -15.976   1.732  1.00  0.00    -0.065 N 
HETATM    2  H   UNL     1      42.623 -16.527   1.183  1.00  0.00     0.280 HD
HETATM    3  C   UNL     1      42.742 -14.934   2.508  1.00  0.00     0.260 C 
HETATM    4  C   UNL     1      41.987 -13.611   2.278  1.00  0.00     0.113 C 
HETATM    5  C   UNL     1      41.537 -13.781   0.834  1.00  0.00     0.054 C 
HETATM    6  C   UNL     1      41.056 -15.223   0.773  1.00  0.00     0.237 C 
ENDROOT
BRANCH   1   7
HETATM    7  C   UNL     1      41.226 -16.962   2.615  1.00  0.00     0.273 C 
BRANCH   7   8
HETATM    8  C   UNL     1      42.189 -17.723   3.490  1.00  0.00    -0.029 A 
HETATM    9  C   UNL     1      43.132 -18.589   2.905  1.00  0.00     0.019 A 
HETATM   10  C   UNL     1      43.985 -19.383   3.693  1.00  0.00    -0.018 A 
HETATM   11  C   UNL     1      43.861 -19.314   5.082  1.00  0.00     0.105 A 
HETATM   12  C   UNL     1      42.964 -18.423   5.672  1.00  0.00     0.102 A 
HETATM   13  C   UNL     1      42.117 -17.642   4.886  1.00  0.00     0.048 A 
BRANCH  10  14
HETATM   14  C   UNL     1      44.968 -20.320   3.028  1.00  0.00     0.068 C 
BRANCH  14  15
HETATM   15  C   UNL     1      44.335 -21.630   2.651  1.00  0.00    -0.032 C 
HETATM   16  C   UNL     1      43.931 -21.951   1.414  1.00  0.00     0.007 C 
ENDBRANCH  14  15
ENDBRANCH  10  14
BRANCH  11  17
HETATM   17  O   UNL     1      44.604 -20.155   5.861  1.00  0.00    -0.357 OA
HETATM   18  H   UNL     1      45.247 -19.605   6.345  1.00  0.00     0.218 HD
ENDBRANCH  11  17
BRANCH  12  19
HETATM   19  O   UNL     1      42.832 -18.350   7.034  1.00  0.00    -0.353 OA
HETATM   20  C   UNL     1      42.928 -16.991   7.477  1.00  0.00     0.210 C 
ENDBRANCH  12  19
ENDBRANCH   7   8
ENDBRANCH   1   7
BRANCH   4  21
HETATM   21  N   UNL     1      40.833 -13.377   3.154  1.00  0.00    -0.337 N 
HETATM   22  C   UNL     1      41.014 -12.633   4.311  1.00  0.00     0.321 C 
HETATM   23  N   UNL     1      39.815 -12.315   4.899  1.00  0.00    -0.309 N 
HETATM   24  O   UNL     1      42.136 -12.361   4.711  1.00  0.00    -0.247 OA
HETATM   25  H   UNL     1      38.979 -12.688   4.475  1.00  0.00     0.170 HD
HETATM   26  H   UNL     1      39.982 -13.108   2.672  1.00  0.00     0.164 HD
BRANCH  23  27
HETATM   27  C   UNL     1      39.611 -11.535   6.059  1.00  0.00     0.036 A 
HETATM   28  C   UNL     1      39.503 -12.066   7.349  1.00  0.00     0.032 A 
HETATM   29  C   UNL     1      39.309 -11.224   8.448  1.00  0.00     0.044 A 
HETATM   30  C   UNL     1      39.226  -9.851   8.259  1.00  0.00     0.116 A 
HETATM   31  F   UNL     1      39.043  -9.047   9.314  1.00  0.00    -0.206 F 
HETATM   32  C   UNL     1      39.334  -9.303   6.989  1.00  0.00     0.044 A 
HETATM   33  C   UNL     1      39.524 -10.145   5.889  1.00  0.00     0.032 A 
ENDBRANCH  23  27
ENDBRANCH   4  21
TORSDOF 8
ENDMDL
MODEL 9
REMARK VINA RESULT:      -7.5      2.001      3.759
REMARK  8 active torsions:
REMARK  status: ('A' for Active; 'I' for Inactive)
REMARK    1  A    between atoms: O_2  and  C_3 
REMARK    2  A    between atoms: C_4  and  O_5 
REMARK    3  A    between atoms: C_6  and  C_7 
REMARK    4  A    between atoms: C_7  and  C_8 
REMARK    5  A    between atoms: C_11  and  C_12 
REMARK    6  A    between atoms: C_12  and  N_13 
REMARK    7  A    between atoms: C_16  and  N_17 
REMARK       I    between atoms: N_17  and  C_18 
REMARK       I    between atoms: C_18  and  N_19 
REMARK    8  A    between atoms: N_19  and  C_20 
ROOT
HETATM    1  N   UNL     1      41.411 -15.189   5.329  1.00  0.00    -0.065 N 
HETATM    2  H   UNL     1      41.212 -15.224   6.337  1.00  0.00     0.280 HD
HETATM    3  C   UNL     1      40.593 -14.048   4.743  1.00  0.00     0.260 C 
HETATM    4  C   UNL     1      41.583 -13.260   3.864  1.00  0.00     0.113 C 
HETATM    5  C   UNL     1      42.856 -13.372   4.691  1.00  0.00     0.054 C 
HETATM    6  C   UNL     1      42.866 -14.825   5.143  1.00  0.00     0.237 C 
ENDROOT
BRANCH   1   7
HETATM    7  C   UNL     1      41.033 -16.543   4.782  1.00  0.00     0.273 C 
BRANCH   7   8
HETATM    8  C   UNL     1      42.206 -17.489   4.805  1.00  0.00    -0.029 A 
HETATM    9  C   UNL     1      42.724 -17.993   3.597  1.00  0.00     0.019 A 
HETATM   10  C   UNL     1      43.758 -18.947   3.585  1.00  0.00    -0.018 A 
HETATM   11  C   UNL     1      44.251 -19.408   4.807  1.00  0.00     0.105 A 
HETATM   12  C   UNL     1      43.779 -18.878   6.008  1.00  0.00     0.102 A 
HETATM   13  C   UNL     1      42.751 -17.937   6.015  1.00  0.00     0.048 A 
BRANCH  10  14
HETATM   14  C   UNL     1      44.271 -19.483   2.267  1.00  0.00     0.068 C 
BRANCH  14  15
HETATM   15  C   UNL     1      43.520 -20.708   1.824  1.00  0.00    -0.032 C 
HETATM   16  C   UNL     1      44.024 -21.949   1.819  1.00  0.00     0.007 C 
ENDBRANCH  14  15
ENDBRANCH  10  14
BRANCH  11  17
HETATM   17  O   UNL     1      45.178 -20.411   4.817  1.00  0.00    -0.357 OA
HETATM   18  H   UNL     1      45.883 -20.157   4.193  1.00  0.00     0.218 HD
ENDBRANCH  11  17
BRANCH  12  19
HETATM   19  O   UNL     1      44.254 -19.327   7.213  1.00  0.00    -0.353 OA
HETATM   20  C   UNL     1      43.989 -18.370   8.246  1.00  0.00     0.210 C 
ENDBRANCH  12  19
ENDBRANCH   7   8
ENDBRANCH   1   7
BRANCH   4  21
HETATM   21  N   UNL     1      41.796 -13.791   2.514  1.00  0.00    -0.337 N 
HETATM   22  C   UNL     1      41.427 -13.013   1.425  1.00  0.00     0.321 C 
HETATM   23  N   UNL     1      41.890 -13.544   0.246  1.00  0.00    -0.309 N 
HETATM   24  O   UNL     1      40.746 -12.010   1.575  1.00  0.00    -0.247 OA
HETATM   25  H   UNL     1      42.374 -14.428   0.296  1.00  0.00     0.170 HD
HETATM   26  H   UNL     1      42.700 -14.226   2.366  1.00  0.00     0.164 HD
BRANCH  23  27
HETATM   27  C   UNL     1      41.745 -13.003  -1.050  1.00  0.00     0.036 A 
HETATM   28  C   UNL     1      40.706 -13.339  -1.926  1.00  0.00     0.032 A 
HETATM   29  C   UNL     1      40.630 -12.752  -3.193  1.00  0.00     0.044 A 
HETATM   30  C   UNL     1      41.588 -11.826  -3.583  1.00  0.00     0.116 A 
HETATM   31  F   UNL     1      41.510 -11.264  -4.796  1.00  0.00    -0.206 F 
HETATM   32  C   UNL     1      42.624 -11.476  -2.729  1.00  0.00     0.044 A 
HETATM   33  C   UNL     1      42.704 -12.065  -1.464  1.00  0.00     0.032 A 
ENDBRANCH  23  27
ENDBRANCH   4  21
TORSDOF 8
ENDMDL
MODEL 10
REMARK VINA RESULT:      -7.5      3.904      9.285
REMARK  8 active torsions:
REMARK  status: ('A' for Active; 'I' for Inactive)
REMARK    1  A    between atoms: O_2  and  C_3 
REMARK    2  A    between atoms: C_4  and  O_5 
REMARK    3  A    between atoms: C_6  and  C_7 
REMARK    4  A    between atoms: C_7  and  C_8 
REMARK    5  A    between atoms: C_11  and  C_12 
REMARK    6  A    between atoms: C_12  and  N_13 
REMARK    7  A    between atoms: C_16  and  N_17 
REMARK       I    between atoms: N_17  and  C_18 
REMARK       I    between atoms: C_18  and  N_19 
REMARK    8  A    between atoms: N_19  and  C_20 
ROOT
HETATM    1  N   UNL     1      41.195 -13.042   2.296  1.00  0.00    -0.065 N 
HETATM    2  H   UNL     1      41.205 -12.078   1.938  1.00  0.00     0.280 HD
HETATM    3  C   UNL     1      42.642 -13.491   2.435  1.00  0.00     0.260 C 
HETATM    4  C   UNL     1      42.728 -14.123   3.836  1.00  0.00     0.113 C 
HETATM    5  C   UNL     1      41.791 -13.216   4.622  1.00  0.00     0.054 C 
HETATM    6  C   UNL     1      40.605 -13.027   3.688  1.00  0.00     0.237 C 
ENDROOT
BRANCH   1   7
HETATM    7  C   UNL     1      40.407 -13.850   1.295  1.00  0.00     0.273 C 
BRANCH   7   8
HETATM    8  C   UNL     1      40.899 -13.611  -0.109  1.00  0.00    -0.029 A 
HETATM    9  C   UNL     1      41.237 -12.308  -0.521  1.00  0.00     0.019 A 
HETATM   10  C   UNL     1      41.613 -12.032  -1.848  1.00  0.00    -0.018 A 
HETATM   11  C   UNL     1      41.620 -13.084  -2.768  1.00  0.00     0.105 A 
HETATM   12  C   UNL     1      41.335 -14.387  -2.359  1.00  0.00     0.102 A 
HETATM   13  C   UNL     1      40.959 -14.653  -1.043  1.00  0.00     0.048 A 
BRANCH  10  14
HETATM   14  C   UNL     1      41.944 -10.615  -2.258  1.00  0.00     0.068 C 
BRANCH  14  15
HETATM   15  C   UNL     1      43.360 -10.244  -1.916  1.00  0.00    -0.032 C 
HETATM   16  C   UNL     1      43.721  -9.118  -1.286  1.00  0.00     0.007 C 
ENDBRANCH  14  15
ENDBRANCH  10  14
BRANCH  11  17
HETATM   17  O   UNL     1      41.877 -12.818  -4.083  1.00  0.00    -0.357 OA
HETATM   18  H   UNL     1      42.838 -12.914  -4.213  1.00  0.00     0.218 HD
ENDBRANCH  11  17
BRANCH  12  19
HETATM   19  O   UNL     1      41.337 -15.424  -3.254  1.00  0.00    -0.353 OA
HETATM   20  C   UNL     1      39.998 -15.855  -3.528  1.00  0.00     0.210 C 
ENDBRANCH  12  19
ENDBRANCH   7   8
ENDBRANCH   1   7
BRANCH   4  21
HETATM   21  N   UNL     1      42.292 -15.521   3.932  1.00  0.00    -0.337 N 
HETATM   22  C   UNL     1      43.064 -16.503   3.328  1.00  0.00     0.321 C 
HETATM   23  N   UNL     1      42.653 -17.762   3.691  1.00  0.00    -0.309 N 
HETATM   24  O   UNL     1      43.962 -16.206   2.554  1.00  0.00    -0.247 OA
HETATM   25  H   UNL     1      41.839 -17.829   4.284  1.00  0.00     0.170 HD
HETATM   26  H   UNL     1      41.986 -15.808   4.855  1.00  0.00     0.164 HD
BRANCH  23  27
HETATM   27  C   UNL     1      43.229 -18.993   3.309  1.00  0.00     0.036 A 
HETATM   28  C   UNL     1      42.989 -19.621   2.082  1.00  0.00     0.032 A 
HETATM   29  C   UNL     1      43.606 -20.839   1.776  1.00  0.00     0.044 A 
HETATM   30  C   UNL     1      44.465 -21.426   2.694  1.00  0.00     0.116 A 
HETATM   31  F   UNL     1      45.056 -22.590   2.397  1.00  0.00    -0.206 F 
HETATM   32  C   UNL     1      44.720 -20.819   3.915  1.00  0.00     0.044 A 
HETATM   33  C   UNL     1      44.101 -19.604   4.223  1.00  0.00     0.032 A 
ENDBRANCH  23  27
ENDBRANCH   4  21
TORSDOF 8
ENDMDL
