MODEL 1
REMARK VINA RESULT:      -8.3      0.000      0.000
REMARK  4 active torsions:
REMARK  status: ('A' for Active; 'I' for Inactive)
REMARK    1  A    between atoms: C_5  and  N_6 
REMARK       I    between atoms: N_6  and  C_7 
REMARK    2  A    between atoms: C_7  and  C_8 
REMARK    3  A    between atoms: C_12  and  O_13 
REMARK    4  A    between atoms: C_19  and  C_20 
ROOT
HETATM    1  C   UNL     1      43.623 -19.589   7.457  1.00  0.00     0.015 C 
HETATM    2  C   UNL     1      43.884 -18.386   6.532  1.00  0.00    -0.040 C 
HETATM    3  C   UNL     1      45.206 -18.641   5.781  1.00  0.00     0.015 C 
HETATM    4  C   UNL     1      43.962 -17.102   7.384  1.00  0.00     0.039 C 
HETATM    5  C   UNL     1      44.165 -15.828   6.543  1.00  0.00     0.122 C 
HETATM    6  C   UNL     1      43.309 -15.807   5.307  1.00  0.00     0.007 A 
HETATM    7  C   UNL     1      42.662 -16.928   4.816  1.00  0.00     0.047 A 
HETATM    8  N   UNL     1      41.921 -16.903   3.686  1.00  0.00    -0.237 NA
HETATM    9  C   UNL     1      41.856 -15.746   2.996  1.00  0.00     0.133 A 
HETATM   10  N   UNL     1      42.465 -14.614   3.391  1.00  0.00    -0.244 NA
HETATM   11  C   UNL     1      43.189 -14.677   4.522  1.00  0.00     0.130 A 
HETATM   12  C   UNL     1      42.707 -18.248   5.541  1.00  0.00     0.069 C 
ENDROOT
BRANCH   5  13
HETATM   13  N   UNL     1      43.918 -14.654   7.368  1.00  0.00    -0.347 N 
HETATM   14  C   UNL     1      44.822 -13.624   7.455  1.00  0.00     0.270 C 
HETATM   15  O   UNL     1      45.874 -13.612   6.825  1.00  0.00    -0.266 OA
HETATM   16  H   UNL     1      43.137 -14.677   8.010  1.00  0.00     0.163 HD
BRANCH  14  17
HETATM   17  C   UNL     1      44.447 -12.549   8.333  1.00  0.00     0.122 A 
HETATM   18  N   UNL     1      43.299 -11.822   8.120  1.00  0.00    -0.270 N 
HETATM   19  H   UNL     1      42.631 -11.949   7.366  1.00  0.00     0.189 HD
HETATM   20  N   UNL     1      43.080 -10.861   9.041  1.00  0.00    -0.149 NA
HETATM   21  C   UNL     1      44.121 -11.003   9.844  1.00  0.00     0.183 A 
HETATM   22  C   UNL     1      45.008 -12.014   9.480  1.00  0.00     0.096 A 
BRANCH  21  23
HETATM   23  O   UNL     1      44.166 -10.170  10.877  1.00  0.00    -0.344 OA
HETATM   24  H   UNL     1      44.197  -9.284  10.478  1.00  0.00     0.219 HD
ENDBRANCH  21  23
ENDBRANCH  14  17
ENDBRANCH   5  13
BRANCH   9  25
HETATM   25  C   UNL     1      40.979 -15.702   1.747  1.00  0.00     0.011 C 
HETATM   26  C   UNL     1      41.040 -17.076   1.062  1.00  0.00     0.023 C 
HETATM   27  C   UNL     1      39.515 -15.379   2.103  1.00  0.00     0.023 C 
HETATM   28  C   UNL     1      41.480 -14.620   0.770  1.00  0.00     0.023 C 
ENDBRANCH   9  25
TORSDOF 4
ENDMDL
MODEL 2
REMARK VINA RESULT:      -7.9      5.067      8.689
REMARK  4 active torsions:
REMARK  status: ('A' for Active; 'I' for Inactive)
REMARK    1  A    between atoms: C_5  and  N_6 
REMARK       I    between atoms: N_6  and  C_7 
REMARK    2  A    between atoms: C_7  and  C_8 
REMARK    3  A    between atoms: C_12  and  O_13 
REMARK    4  A    between atoms: C_19  and  C_20 
ROOT
HETATM    1  C   UNL     1      39.881 -14.650   4.923  1.00  0.00     0.015 C 
HETATM    2  C   UNL     1      40.971 -15.105   3.935  1.00  0.00    -0.040 C 
HETATM    3  C   UNL     1      42.190 -14.178   4.112  1.00  0.00     0.015 C 
HETATM    4  C   UNL     1      40.413 -15.031   2.498  1.00  0.00     0.039 C 
HETATM    5  C   UNL     1      41.413 -15.521   1.434  1.00  0.00     0.122 C 
HETATM    6  C   UNL     1      42.133 -16.774   1.850  1.00  0.00     0.007 A 
HETATM    7  C   UNL     1      42.140 -17.246   3.151  1.00  0.00     0.047 A 
HETATM    8  N   UNL     1      42.818 -18.357   3.518  1.00  0.00    -0.237 NA
HETATM    9  C   UNL     1      43.549 -18.992   2.579  1.00  0.00     0.133 A 
HETATM   10  N   UNL     1      43.613 -18.594   1.296  1.00  0.00    -0.244 NA
HETATM   11  C   UNL     1      42.921 -17.488   0.969  1.00  0.00     0.130 A 
HETATM   12  C   UNL     1      41.347 -16.572   4.241  1.00  0.00     0.069 C 
ENDROOT
BRANCH   5  13
HETATM   13  N   UNL     1      40.721 -15.714   0.168  1.00  0.00    -0.347 N 
HETATM   14  C   UNL     1      40.964 -14.914  -0.922  1.00  0.00     0.270 C 
HETATM   15  O   UNL     1      41.794 -14.012  -0.907  1.00  0.00    -0.266 OA
HETATM   16  H   UNL     1      39.934 -16.349   0.145  1.00  0.00     0.163 HD
BRANCH  14  17
HETATM   17  C   UNL     1      40.180 -15.211  -2.090  1.00  0.00     0.122 A 
HETATM   18  N   UNL     1      38.922 -14.681  -2.258  1.00  0.00    -0.270 N 
HETATM   19  H   UNL     1      38.432 -14.064  -1.617  1.00  0.00     0.189 HD
HETATM   20  N   UNL     1      38.325 -15.042  -3.412  1.00  0.00    -0.149 NA
HETATM   21  C   UNL     1      39.242 -15.814  -3.970  1.00  0.00     0.183 A 
HETATM   22  C   UNL     1      40.408 -15.971  -3.224  1.00  0.00     0.096 A 
BRANCH  21  23
HETATM   23  O   UNL     1      38.923 -16.319  -5.156  1.00  0.00    -0.344 OA
HETATM   24  H   UNL     1      38.037 -15.964  -5.345  1.00  0.00     0.219 HD
ENDBRANCH  21  23
ENDBRANCH  14  17
ENDBRANCH   5  13
BRANCH   9  25
HETATM   25  C   UNL     1      44.275 -20.273   2.979  1.00  0.00     0.011 C 
HETATM   26  C   UNL     1      43.620 -21.453   2.244  1.00  0.00     0.023 C 
HETATM   27  C   UNL     1      45.768 -20.210   2.602  1.00  0.00     0.023 C 
HETATM   28  C   UNL     1      44.179 -20.500   4.500  1.00  0.00     0.023 C 
ENDBRANCH   9  25
TORSDOF 4
ENDMDL
MODEL 3
REMARK VINA RESULT:      -7.7      4.286      7.150
REMARK  4 active torsions:
REMARK  status: ('A' for Active; 'I' for Inactive)
REMARK    1  A    between atoms: C_5  and  N_6 
REMARK       I    between atoms: N_6  and  C_7 
REMARK    2  A    between atoms: C_7  and  C_8 
REMARK    3  A    between atoms: C_12  and  O_13 
REMARK    4  A    between atoms: C_19  and  C_20 
ROOT
HETATM    1  C   UNL     1      43.983 -14.042   5.620  1.00  0.00     0.015 C 
HETATM    2  C   UNL     1      42.875 -14.711   4.786  1.00  0.00    -0.040 C 
HETATM    3  C   UNL     1      41.517 -14.329   5.407  1.00  0.00     0.015 C 
HETATM    4  C   UNL     1      43.088 -16.239   4.796  1.00  0.00     0.039 C 
HETATM    5  C   UNL     1      42.059 -17.000   3.940  1.00  0.00     0.122 C 
HETATM    6  C   UNL     1      41.797 -16.331   2.619  1.00  0.00     0.007 A 
HETATM    7  C   UNL     1      42.181 -15.031   2.340  1.00  0.00     0.047 A 
HETATM    8  N   UNL     1      41.912 -14.430   1.160  1.00  0.00    -0.237 NA
HETATM    9  C   UNL     1      41.200 -15.120   0.246  1.00  0.00     0.133 A 
HETATM   10  N   UNL     1      40.772 -16.380   0.438  1.00  0.00    -0.244 NA
HETATM   11  C   UNL     1      41.064 -16.946   1.623  1.00  0.00     0.130 A 
HETATM   12  C   UNL     1      42.972 -14.211   3.328  1.00  0.00     0.069 C 
ENDROOT
BRANCH   5  13
HETATM   13  N   UNL     1      42.504 -18.373   3.749  1.00  0.00    -0.347 N 
HETATM   14  C   UNL     1      43.633 -18.677   3.028  1.00  0.00     0.270 C 
HETATM   15  O   UNL     1      44.350 -17.817   2.529  1.00  0.00    -0.266 OA
HETATM   16  H   UNL     1      41.878 -19.120   4.019  1.00  0.00     0.163 HD
BRANCH  14  17
HETATM   17  C   UNL     1      43.924 -20.080   2.904  1.00  0.00     0.122 A 
HETATM   18  N   UNL     1      43.608 -20.775   1.759  1.00  0.00    -0.270 N 
HETATM   19  H   UNL     1      43.159 -20.403   0.928  1.00  0.00     0.189 HD
HETATM   20  N   UNL     1      43.961 -22.076   1.794  1.00  0.00    -0.149 NA
HETATM   21  C   UNL     1      44.510 -22.183   2.992  1.00  0.00     0.183 A 
HETATM   22  C   UNL     1      44.526 -21.006   3.737  1.00  0.00     0.096 A 
BRANCH  21  23
HETATM   23  O   UNL     1      44.970 -23.389   3.306  1.00  0.00    -0.344 OA
HETATM   24  H   UNL     1      45.731 -23.524   2.714  1.00  0.00     0.219 HD
ENDBRANCH  21  23
ENDBRANCH  14  17
ENDBRANCH   5  13
BRANCH   9  25
HETATM   25  C   UNL     1      40.937 -14.462  -1.106  1.00  0.00     0.011 C 
HETATM   26  C   UNL     1      41.996 -13.371  -1.330  1.00  0.00     0.023 C 
HETATM   27  C   UNL     1      41.019 -15.488  -2.253  1.00  0.00     0.023 C 
HETATM   28  C   UNL     1      39.533 -13.827  -1.138  1.00  0.00     0.023 C 
ENDBRANCH   9  25
TORSDOF 4
ENDMDL
MODEL 4
REMARK VINA RESULT:      -7.4      4.115      8.089
REMARK  4 active torsions:
REMARK  status: ('A' for Active; 'I' for Inactive)
REMARK    1  A    between atoms: C_5  and  N_6 
REMARK       I    between atoms: N_6  and  C_7 
REMARK    2  A    between atoms: C_7  and  C_8 
REMARK    3  A    between atoms: C_12  and  O_13 
REMARK    4  A    between atoms: C_19  and  C_20 
ROOT
HETATM    1  C   UNL     1      39.422 -12.796   5.169  1.00  0.00     0.015 C 
HETATM    2  C   UNL     1      40.732 -13.358   4.586  1.00  0.00    -0.040 C 
HETATM    3  C   UNL     1      41.875 -12.400   4.977  1.00  0.00     0.015 C 
HETATM    4  C   UNL     1      40.594 -13.473   3.054  1.00  0.00     0.039 C 
HETATM    5  C   UNL     1      41.837 -14.081   2.378  1.00  0.00     0.122 C 
HETATM    6  C   UNL     1      42.387 -15.261   3.129  1.00  0.00     0.007 A 
HETATM    7  C   UNL     1      42.023 -15.566   4.430  1.00  0.00     0.047 A 
HETATM    8  N   UNL     1      42.548 -16.612   5.105  1.00  0.00    -0.237 NA
HETATM    9  C   UNL     1      43.495 -17.351   4.493  1.00  0.00     0.133 A 
HETATM   10  N   UNL     1      43.920 -17.117   3.239  1.00  0.00    -0.244 NA
HETATM   11  C   UNL     1      43.371 -16.071   2.597  1.00  0.00     0.130 A 
HETATM   12  C   UNL     1      40.975 -14.769   5.165  1.00  0.00     0.069 C 
ENDROOT
BRANCH   5  13
HETATM   13  N   UNL     1      41.518 -14.441   1.004  1.00  0.00    -0.347 N 
HETATM   14  C   UNL     1      41.822 -13.617  -0.053  1.00  0.00     0.270 C 
HETATM   15  O   UNL     1      42.405 -12.548   0.090  1.00  0.00    -0.266 OA
HETATM   16  H   UNL     1      40.919 -15.240   0.846  1.00  0.00     0.163 HD
BRANCH  14  17
HETATM   17  C   UNL     1      41.416 -14.099  -1.345  1.00  0.00     0.122 A 
HETATM   18  N   UNL     1      42.185 -13.873  -2.464  1.00  0.00    -0.270 N 
HETATM   19  H   UNL     1      43.066 -13.369  -2.504  1.00  0.00     0.189 HD
HETATM   20  N   UNL     1      41.676 -14.403  -3.594  1.00  0.00    -0.149 NA
HETATM   21  C   UNL     1      40.565 -14.973  -3.158  1.00  0.00     0.183 A 
HETATM   22  C   UNL     1      40.331 -14.831  -1.792  1.00  0.00     0.096 A 
BRANCH  21  23
HETATM   23  O   UNL     1      39.842 -15.599  -4.080  1.00  0.00    -0.344 OA
HETATM   24  H   UNL     1      39.084 -15.010  -4.240  1.00  0.00     0.219 HD
ENDBRANCH  21  23
ENDBRANCH  14  17
ENDBRANCH   5  13
BRANCH   9  25
HETATM   25  C   UNL     1      44.054 -18.562   5.235  1.00  0.00     0.011 C 
HETATM   26  C   UNL     1      44.441 -19.630   4.200  1.00  0.00     0.023 C 
HETATM   27  C   UNL     1      45.298 -18.186   6.062  1.00  0.00     0.023 C 
HETATM   28  C   UNL     1      43.001 -19.142   6.199  1.00  0.00     0.023 C 
ENDBRANCH   9  25
TORSDOF 4
ENDMDL
MODEL 5
REMARK VINA RESULT:      -7.2      3.610      4.633
REMARK  4 active torsions:
REMARK  status: ('A' for Active; 'I' for Inactive)
REMARK    1  A    between atoms: C_5  and  N_6 
REMARK       I    between atoms: N_6  and  C_7 
REMARK    2  A    between atoms: C_7  and  C_8 
REMARK    3  A    between atoms: C_12  and  O_13 
REMARK    4  A    between atoms: C_19  and  C_20 
ROOT
HETATM    1  C   UNL     1      42.832 -18.909   2.697  1.00  0.00     0.015 C 
HETATM    2  C   UNL     1      42.833 -17.470   2.146  1.00  0.00    -0.040 C 
HETATM    3  C   UNL     1      44.284 -17.104   1.774  1.00  0.00     0.015 C 
HETATM    4  C   UNL     1      42.271 -16.517   3.221  1.00  0.00     0.039 C 
HETATM    5  C   UNL     1      42.178 -15.056   2.746  1.00  0.00     0.122 C 
HETATM    6  C   UNL     1      41.644 -14.935   1.345  1.00  0.00     0.007 A 
HETATM    7  C   UNL     1      41.555 -16.007   0.475  1.00  0.00     0.047 A 
HETATM    8  N   UNL     1      41.103 -15.880  -0.792  1.00  0.00    -0.237 NA
HETATM    9  C   UNL     1      40.774 -14.646  -1.227  1.00  0.00     0.133 A 
HETATM   10  N   UNL     1      40.846 -13.547  -0.456  1.00  0.00    -0.244 NA
HETATM   11  C   UNL     1      41.295 -13.715   0.801  1.00  0.00     0.130 A 
HETATM   12  C   UNL     1      41.916 -17.407   0.905  1.00  0.00     0.069 C 
ENDROOT
BRANCH   5  13
HETATM   13  N   UNL     1      41.365 -14.290   3.680  1.00  0.00    -0.347 N 
HETATM   14  C   UNL     1      41.923 -13.567   4.706  1.00  0.00     0.270 C 
HETATM   15  O   UNL     1      43.135 -13.495   4.881  1.00  0.00    -0.266 OA
HETATM   16  H   UNL     1      40.363 -14.427   3.665  1.00  0.00     0.163 HD
BRANCH  14  17
HETATM   17  C   UNL     1      40.987 -12.889   5.561  1.00  0.00     0.122 A 
HETATM   18  N   UNL     1      40.065 -13.589   6.305  1.00  0.00    -0.270 N 
HETATM   19  H   UNL     1      39.944 -14.597   6.331  1.00  0.00     0.189 HD
HETATM   20  N   UNL     1      39.272 -12.810   7.068  1.00  0.00    -0.149 NA
HETATM   21  C   UNL     1      39.719 -11.598   6.786  1.00  0.00     0.183 A 
HETATM   22  C   UNL     1      40.769 -11.558   5.871  1.00  0.00     0.096 A 
BRANCH  21  23
HETATM   23  O   UNL     1      39.112 -10.600   7.419  1.00  0.00    -0.344 OA
HETATM   24  H   UNL     1      39.733  -9.855   7.357  1.00  0.00     0.219 HD
ENDBRANCH  21  23
ENDBRANCH  14  17
ENDBRANCH   5  13
BRANCH   9  25
HETATM   25  C   UNL     1      40.218 -14.506  -2.641  1.00  0.00     0.011 C 
HETATM   26  C   UNL     1      40.195 -15.898  -3.294  1.00  0.00     0.023 C 
HETATM   27  C   UNL     1      38.787 -13.933  -2.625  1.00  0.00     0.023 C 
HETATM   28  C   UNL     1      41.098 -13.561  -3.481  1.00  0.00     0.023 C 
ENDBRANCH   9  25
TORSDOF 4
ENDMDL
MODEL 6
REMARK VINA RESULT:      -7.1      3.044      5.189
REMARK  4 active torsions:
REMARK  status: ('A' for Active; 'I' for Inactive)
REMARK    1  A    between atoms: C_5  and  N_6 
REMARK       I    between atoms: N_6  and  C_7 
REMARK    2  A    between atoms: C_7  and  C_8 
REMARK    3  A    between atoms: C_12  and  O_13 
REMARK    4  A    between atoms: C_19  and  C_20 
ROOT
HETATM    1  C   UNL     1      41.091 -13.510   1.363  1.00  0.00     0.015 C 
HETATM    2  C   UNL     1      40.869 -14.413   2.591  1.00  0.00    -0.040 C 
HETATM    3  C   UNL     1      39.645 -15.307   2.309  1.00  0.00     0.015 C 
HETATM    4  C   UNL     1      40.644 -13.528   3.835  1.00  0.00     0.039 C 
HETATM    5  C   UNL     1      40.467 -14.340   5.132  1.00  0.00     0.122 C 
HETATM    6  C   UNL     1      41.444 -15.478   5.241  1.00  0.00     0.007 A 
HETATM    7  C   UNL     1      42.190 -15.939   4.170  1.00  0.00     0.047 A 
HETATM    8  N   UNL     1      43.041 -16.984   4.273  1.00  0.00    -0.237 NA
HETATM    9  C   UNL     1      43.121 -17.621   5.459  1.00  0.00     0.133 A 
HETATM   10  N   UNL     1      42.422 -17.252   6.547  1.00  0.00    -0.244 NA
HETATM   11  C   UNL     1      41.589 -16.205   6.406  1.00  0.00     0.130 A 
HETATM   12  C   UNL     1      42.134 -15.270   2.820  1.00  0.00     0.069 C 
ENDROOT
BRANCH   5  13
HETATM   13  N   UNL     1      40.573 -13.452   6.280  1.00  0.00    -0.347 N 
HETATM   14  C   UNL     1      39.598 -12.530   6.578  1.00  0.00     0.270 C 
HETATM   15  O   UNL     1      38.571 -12.419   5.919  1.00  0.00    -0.266 OA
HETATM   16  H   UNL     1      41.455 -13.408   6.772  1.00  0.00     0.163 HD
BRANCH  14  17
HETATM   17  C   UNL     1      39.861 -11.707   7.727  1.00  0.00     0.122 A 
HETATM   18  N   UNL     1      41.118 -11.202   7.970  1.00  0.00    -0.270 N 
HETATM   19  H   UNL     1      41.950 -11.348   7.406  1.00  0.00     0.189 HD
HETATM   20  N   UNL     1      41.196 -10.436   9.077  1.00  0.00    -0.149 NA
HETATM   21  C   UNL     1      39.953 -10.468   9.526  1.00  0.00     0.183 A 
HETATM   22  C   UNL     1      39.072 -11.226   8.757  1.00  0.00     0.096 A 
BRANCH  21  23
HETATM   23  O   UNL     1      39.725  -9.772  10.633  1.00  0.00    -0.344 OA
HETATM   24  H   UNL     1      39.574 -10.444  11.320  1.00  0.00     0.219 HD
ENDBRANCH  21  23
ENDBRANCH  14  17
ENDBRANCH   5  13
BRANCH   9  25
HETATM   25  C   UNL     1      44.118 -18.770   5.592  1.00  0.00     0.011 C 
HETATM   26  C   UNL     1      45.429 -18.211   6.168  1.00  0.00     0.023 C 
HETATM   27  C   UNL     1      43.582 -19.869   6.530  1.00  0.00     0.023 C 
HETATM   28  C   UNL     1      44.395 -19.411   4.219  1.00  0.00     0.023 C 
ENDBRANCH   9  25
TORSDOF 4
ENDMDL
MODEL 7
REMARK VINA RESULT:      -7.0      5.297      9.252
REMARK  4 active torsions:
REMARK  status: ('A' for Active; 'I' for Inactive)
REMARK    1  A    between atoms: C_5  and  N_6 
REMARK       I    between atoms: N_6  and  C_7 
REMARK    2  A    between atoms: C_7  and  C_8 
REMARK    3  A    between atoms: C_12  and  O_13 
REMARK    4  A    between atoms: C_19  and  C_20 
ROOT
HETATM    1  C   UNL     1      39.165 -12.676   4.211  1.00  0.00     0.015 C 
HETATM    2  C   UNL     1      40.135 -13.318   3.202  1.00  0.00    -0.040 C 
HETATM    3  C   UNL     1      41.385 -12.422   3.107  1.00  0.00     0.015 C 
HETATM    4  C   UNL     1      39.430 -13.446   1.835  1.00  0.00     0.039 C 
HETATM    5  C   UNL     1      40.301 -14.132   0.767  1.00  0.00     0.122 C 
HETATM    6  C   UNL     1      41.034 -15.332   1.299  1.00  0.00     0.007 A 
HETATM    7  C   UNL     1      41.168 -15.597   2.651  1.00  0.00     0.047 A 
HETATM    8  N   UNL     1      41.857 -16.662   3.118  1.00  0.00    -0.237 NA
HETATM    9  C   UNL     1      42.472 -17.462   2.223  1.00  0.00     0.133 A 
HETATM   10  N   UNL     1      42.408 -17.270   0.893  1.00  0.00    -0.244 NA
HETATM   11  C   UNL     1      41.709 -16.202   0.467  1.00  0.00     0.130 A 
HETATM   12  C   UNL     1      40.509 -14.733   3.696  1.00  0.00     0.069 C 
ENDROOT
BRANCH   5  13
HETATM   13  N   UNL     1      39.475 -14.493  -0.377  1.00  0.00    -0.347 N 
HETATM   14  C   UNL     1      39.698 -13.970  -1.628  1.00  0.00     0.270 C 
HETATM   15  O   UNL     1      40.619 -13.196  -1.866  1.00  0.00    -0.266 OA
HETATM   16  H   UNL     1      38.625 -15.014  -0.208  1.00  0.00     0.163 HD
BRANCH  14  17
HETATM   17  C   UNL     1      38.780 -14.400  -2.647  1.00  0.00     0.122 A 
HETATM   18  N   UNL     1      38.922 -15.621  -3.265  1.00  0.00    -0.270 N 
HETATM   19  H   UNL     1      39.645 -16.312  -3.087  1.00  0.00     0.189 HD
HETATM   20  N   UNL     1      37.971 -15.883  -4.185  1.00  0.00    -0.149 NA
HETATM   21  C   UNL     1      37.223 -14.794  -4.130  1.00  0.00     0.183 A 
HETATM   22  C   UNL     1      37.651 -13.835  -3.214  1.00  0.00     0.096 A 
BRANCH  21  23
HETATM   23  O   UNL     1      36.176 -14.776  -4.946  1.00  0.00    -0.344 OA
HETATM   24  H   UNL     1      35.454 -14.401  -4.412  1.00  0.00     0.219 HD
ENDBRANCH  21  23
ENDBRANCH  14  17
ENDBRANCH   5  13
BRANCH   9  25
HETATM   25  C   UNL     1      43.209 -18.692   2.744  1.00  0.00     0.011 C 
HETATM   26  C   UNL     1      42.640 -19.934   2.040  1.00  0.00     0.023 C 
HETATM   27  C   UNL     1      44.721 -18.600   2.461  1.00  0.00     0.023 C 
HETATM   28  C   UNL     1      43.019 -18.835   4.267  1.00  0.00     0.023 C 
ENDBRANCH   9  25
TORSDOF 4
ENDMDL
MODEL 8
REMARK VINA RESULT:      -6.9      4.203      6.949
REMARK  4 active torsions:
REMARK  status: ('A' for Active; 'I' for Inactive)
REMARK    1  A    between atoms: C_5  and  N_6 
REMARK       I    between atoms: N_6  and  C_7 
REMARK    2  A    between atoms: C_7  and  C_8 
REMARK    3  A    between atoms: C_12  and  O_13 
REMARK    4  A    between atoms: C_19  and  C_20 
ROOT
HETATM    1  C   UNL     1      41.882 -12.109   4.982  1.00  0.00     0.015 C 
HETATM    2  C   UNL     1      41.356 -13.089   3.916  1.00  0.00    -0.040 C 
HETATM    3  C   UNL     1      39.820 -13.143   4.037  1.00  0.00     0.015 C 
HETATM    4  C   UNL     1      41.987 -14.477   4.151  1.00  0.00     0.039 C 
HETATM    5  C   UNL     1      41.566 -15.520   3.099  1.00  0.00     0.122 C 
HETATM    6  C   UNL     1      41.573 -14.967   1.701  1.00  0.00     0.007 A 
HETATM    7  C   UNL     1      41.633 -13.612   1.423  1.00  0.00     0.047 A 
HETATM    8  N   UNL     1      41.607 -13.127   0.162  1.00  0.00    -0.237 NA
HETATM    9  C   UNL     1      41.469 -14.004  -0.852  1.00  0.00     0.133 A 
HETATM   10  N   UNL     1      41.387 -15.335  -0.674  1.00  0.00    -0.244 NA
HETATM   11  C   UNL     1      41.422 -15.780   0.595  1.00  0.00     0.130 A 
HETATM   12  C   UNL     1      41.780 -12.586   2.518  1.00  0.00     0.069 C 
ENDROOT
BRANCH   5  13
HETATM   13  N   UNL     1      42.427 -16.689   3.201  1.00  0.00    -0.347 N 
HETATM   14  C   UNL     1      42.154 -17.719   4.068  1.00  0.00     0.270 C 
HETATM   15  O   UNL     1      41.159 -17.734   4.784  1.00  0.00    -0.266 OA
HETATM   16  H   UNL     1      43.325 -16.663   2.738  1.00  0.00     0.163 HD
BRANCH  14  17
HETATM   17  C   UNL     1      43.113 -18.789   4.073  1.00  0.00     0.122 A 
HETATM   18  N   UNL     1      43.513 -19.395   2.904  1.00  0.00    -0.270 N 
HETATM   19  H   UNL     1      43.194 -19.173   1.966  1.00  0.00     0.189 HD
HETATM   20  N   UNL     1      44.430 -20.368   3.077  1.00  0.00    -0.149 NA
HETATM   21  C   UNL     1      44.601 -20.360   4.388  1.00  0.00     0.183 A 
HETATM   22  C   UNL     1      43.830 -19.423   5.073  1.00  0.00     0.096 A 
BRANCH  21  23
HETATM   23  O   UNL     1      45.481 -21.236   4.858  1.00  0.00    -0.344 OA
HETATM   24  H   UNL     1      46.121 -21.354   4.134  1.00  0.00     0.219 HD
ENDBRANCH  21  23
ENDBRANCH  14  17
ENDBRANCH   5  13
BRANCH   9  25
HETATM   25  C   UNL     1      41.488 -13.463  -2.279  1.00  0.00     0.011 C 
HETATM   26  C   UNL     1      42.832 -12.754  -2.511  1.00  0.00     0.023 C 
HETATM   27  C   UNL     1      41.332 -14.598  -3.310  1.00  0.00     0.023 C 
HETATM   28  C   UNL     1      40.337 -12.462  -2.497  1.00  0.00     0.023 C 
ENDBRANCH   9  25
TORSDOF 4
ENDMDL
MODEL 9
REMARK VINA RESULT:      -6.9      3.357      5.522
REMARK  4 active torsions:
REMARK  status: ('A' for Active; 'I' for Inactive)
REMARK    1  A    between atoms: C_5  and  N_6 
REMARK       I    between atoms: N_6  and  C_7 
REMARK    2  A    between atoms: C_7  and  C_8 
REMARK    3  A    between atoms: C_12  and  O_13 
REMARK    4  A    between atoms: C_19  and  C_20 
ROOT
HETATM    1  C   UNL     1      41.880 -15.693  -0.142  1.00  0.00     0.015 C 
HETATM    2  C   UNL     1      41.473 -16.375   1.178  1.00  0.00    -0.040 C 
HETATM    3  C   UNL     1      40.596 -17.595   0.832  1.00  0.00     0.015 C 
HETATM    4  C   UNL     1      40.706 -15.362   2.054  1.00  0.00     0.039 C 
HETATM    5  C   UNL     1      40.302 -15.932   3.426  1.00  0.00     0.122 C 
HETATM    6  C   UNL     1      41.401 -16.732   4.068  1.00  0.00     0.007 A 
HETATM    7  C   UNL     1      42.516 -17.175   3.377  1.00  0.00     0.047 A 
HETATM    8  N   UNL     1      43.482 -17.921   3.958  1.00  0.00    -0.237 NA
HETATM    9  C   UNL     1      43.317 -18.279   5.247  1.00  0.00     0.133 A 
HETATM   10  N   UNL     1      42.258 -17.908   5.989  1.00  0.00    -0.244 NA
HETATM   11  C   UNL     1      41.321 -17.162   5.377  1.00  0.00     0.130 A 
HETATM   12  C   UNL     1      42.748 -16.811   1.933  1.00  0.00     0.069 C 
ENDROOT
BRANCH   5  13
HETATM   13  N   UNL     1      39.872 -14.847   4.297  1.00  0.00    -0.347 N 
HETATM   14  C   UNL     1      40.722 -13.834   4.670  1.00  0.00     0.270 C 
HETATM   15  O   UNL     1      41.879 -13.763   4.272  1.00  0.00    -0.266 OA
HETATM   16  H   UNL     1      38.977 -14.932   4.760  1.00  0.00     0.163 HD
BRANCH  14  17
HETATM   17  C   UNL     1      40.158 -12.853   5.556  1.00  0.00     0.122 A 
HETATM   18  N   UNL     1      39.620 -13.215   6.770  1.00  0.00    -0.270 N 
HETATM   19  H   UNL     1      39.559 -14.154   7.152  1.00  0.00     0.189 HD
HETATM   20  N   UNL     1      39.148 -12.178   7.491  1.00  0.00    -0.149 NA
HETATM   21  C   UNL     1      39.404 -11.150   6.699  1.00  0.00     0.183 A 
HETATM   22  C   UNL     1      40.020 -11.478   5.494  1.00  0.00     0.096 A 
BRANCH  21  23
HETATM   23  O   UNL     1      39.044  -9.960   7.169  1.00  0.00    -0.344 OA
HETATM   24  H   UNL     1      39.505  -9.883   8.022  1.00  0.00     0.219 HD
ENDBRANCH  21  23
ENDBRANCH  14  17
ENDBRANCH   5  13
BRANCH   9  25
HETATM   25  C   UNL     1      44.429 -19.080   5.919  1.00  0.00     0.011 C 
HETATM   26  C   UNL     1      45.039 -20.033   4.879  1.00  0.00     0.023 C 
HETATM   27  C   UNL     1      45.534 -18.154   6.464  1.00  0.00     0.023 C 
HETATM   28  C   UNL     1      43.873 -19.899   7.100  1.00  0.00     0.023 C 
ENDBRANCH   9  25
TORSDOF 4
ENDMDL
MODEL 10
REMARK VINA RESULT:      -6.8      4.293      7.878
REMARK  4 active torsions:
REMARK  status: ('A' for Active; 'I' for Inactive)
REMARK    1  A    between atoms: C_5  and  N_6 
REMARK       I    between atoms: N_6  and  C_7 
REMARK    2  A    between atoms: C_7  and  C_8 
REMARK    3  A    between atoms: C_12  and  O_13 
REMARK    4  A    between atoms: C_19  and  C_20 
ROOT
HETATM    1  C   UNL     1      43.860 -18.142   3.762  1.00  0.00     0.015 C 
HETATM    2  C   UNL     1      42.542 -17.347   3.820  1.00  0.00    -0.040 C 
HETATM    3  C   UNL     1      41.576 -18.096   4.759  1.00  0.00     0.015 C 
HETATM    4  C   UNL     1      41.962 -17.227   2.396  1.00  0.00     0.039 C 
HETATM    5  C   UNL     1      40.666 -16.396   2.337  1.00  0.00     0.122 C 
HETATM    6  C   UNL     1      40.737 -15.153   3.180  1.00  0.00     0.007 A 
HETATM    7  C   UNL     1      41.712 -14.944   4.139  1.00  0.00     0.047 A 
HETATM    8  N   UNL     1      41.746 -13.835   4.912  1.00  0.00    -0.237 NA
HETATM    9  C   UNL     1      40.758 -12.929   4.764  1.00  0.00     0.133 A 
HETATM   10  N   UNL     1      39.763 -13.059   3.869  1.00  0.00    -0.244 NA
HETATM   11  C   UNL     1      39.766 -14.173   3.115  1.00  0.00     0.130 A 
HETATM   12  C   UNL     1      42.835 -15.927   4.353  1.00  0.00     0.069 C 
ENDROOT
BRANCH   5  13
HETATM   13  N   UNL     1      40.358 -16.070   0.952  1.00  0.00    -0.347 N 
HETATM   14  C   UNL     1      41.232 -15.365   0.161  1.00  0.00     0.270 C 
HETATM   15  O   UNL     1      42.332 -14.995   0.557  1.00  0.00    -0.266 OA
HETATM   16  H   UNL     1      39.416 -16.229   0.622  1.00  0.00     0.163 HD
BRANCH  14  17
HETATM   17  C   UNL     1      40.772 -15.096  -1.174  1.00  0.00     0.122 A 
HETATM   18  N   UNL     1      41.355 -15.699  -2.265  1.00  0.00    -0.270 N 
HETATM   19  H   UNL     1      42.130 -16.357  -2.254  1.00  0.00     0.189 HD
HETATM   20  N   UNL     1      40.799 -15.356  -3.444  1.00  0.00    -0.149 NA
HETATM   21  C   UNL     1      39.846 -14.520  -3.069  1.00  0.00     0.183 A 
HETATM   22  C   UNL     1      39.763 -14.305  -1.694  1.00  0.00     0.096 A 
BRANCH  21  23
HETATM   23  O   UNL     1      39.106 -14.015  -4.049  1.00  0.00    -0.344 OA
HETATM   24  H   UNL     1      39.033 -14.736  -4.699  1.00  0.00     0.219 HD
ENDBRANCH  21  23
ENDBRANCH  14  17
ENDBRANCH   5  13
BRANCH   9  25
HETATM   25  C   UNL     1      40.821 -11.654   5.601  1.00  0.00     0.011 C 
HETATM   26  C   UNL     1      39.472 -11.475   6.316  1.00  0.00     0.023 C 
HETATM   27  C   UNL     1      41.944 -11.731   6.653  1.00  0.00     0.023 C 
HETATM   28  C   UNL     1      41.092 -10.429   4.706  1.00  0.00     0.023 C 
ENDBRANCH   9  25
TORSDOF 4
ENDMDL
