MODEL 1
REMARK VINA RESULT:      -7.2      0.000      0.000
REMARK  4 active torsions:
REMARK  status: ('A' for Active; 'I' for Inactive)
REMARK    1  A    between atoms: C_6  and  C_7 
REMARK    2  A    between atoms: C_7  and  N_8 
REMARK    3  A    between atoms: N_8  and  C_9 
REMARK    4  A    between atoms: C_9  and  C_10 
ROOT
HETATM    1  C   UNL     1      43.593 -17.763   0.924  1.00  0.00     0.327 C 
ENDROOT
BRANCH   1   2
HETATM    2  N   UNL     1      44.170 -17.886   2.272  1.00  0.00     0.097 N 
HETATM    3  H   UNL     1      45.127 -17.521   2.245  1.00  0.00     0.317 HD
BRANCH   2   4
HETATM    4  C   UNL     1      44.301 -19.295   2.703  1.00  0.00     0.252 C 
HETATM    5  C   UNL     1      43.317 -20.235   2.004  1.00  0.00     0.048 C 
BRANCH   4   6
HETATM    6  C   UNL     1      44.124 -19.295   4.195  1.00  0.00     0.006 A 
HETATM    7  C   UNL     1      44.410 -20.297   5.111  1.00  0.00     0.058 A 
HETATM    8  O   UNL     1      44.086 -19.899   6.372  1.00  0.00    -0.320 OA
HETATM    9  C   UNL     1      44.981 -21.656   5.002  1.00  0.00     0.077 C 
HETATM   10  C   UNL     1      43.600 -18.633   6.286  1.00  0.00     0.050 A 
HETATM   11  C   UNL     1      43.194 -17.994   7.555  1.00  0.00     0.076 C 
HETATM   12  C   UNL     1      43.599 -18.218   4.975  1.00  0.00     0.044 A 
ENDBRANCH   4   6
ENDBRANCH   2   4
ENDBRANCH   1   2
BRANCH   1  13
HETATM   13  C   UNL     1      42.431 -16.785   0.965  1.00  0.00     0.044 A 
HETATM   14  N   UNL     1      42.113 -16.204  -0.248  1.00  0.00    -0.338 N 
HETATM   15  H   UNL     1      42.650 -16.467  -1.076  1.00  0.00     0.168 HD
HETATM   16  C   UNL     1      41.117 -15.360  -0.341  1.00  0.00     0.158 A 
HETATM   17  N   UNL     1      40.391 -15.033   0.706  1.00  0.00    -0.269 N 
HETATM   18  S   UNL     1      40.628 -14.585  -1.816  1.00  0.00    -0.064 SA
HETATM   19  C   UNL     1      40.607 -15.554   1.998  1.00  0.00     0.255 A 
HETATM   20  C   UNL     1      39.388 -14.133   0.401  1.00  0.00     0.109 A 
HETATM   21  O   UNL     1      39.914 -15.232   2.944  1.00  0.00    -0.268 OA
HETATM   22  C   UNL     1      41.726 -16.509   2.070  1.00  0.00     0.101 A 
HETATM   23  C   UNL     1      39.369 -13.787  -0.895  1.00  0.00     0.071 A 
ENDBRANCH   1  13
TORSDOF 4
ENDMDL
MODEL 2
REMARK VINA RESULT:      -7.2      2.151      3.305
REMARK  4 active torsions:
REMARK  status: ('A' for Active; 'I' for Inactive)
REMARK    1  A    between atoms: C_6  and  C_7 
REMARK    2  A    between atoms: C_7  and  N_8 
REMARK    3  A    between atoms: N_8  and  C_9 
REMARK    4  A    between atoms: C_9  and  C_10 
ROOT
HETATM    1  C   UNL     1      40.719 -16.208   2.209  1.00  0.00     0.327 C 
ENDROOT
BRANCH   1   2
HETATM    2  N   UNL     1      41.582 -17.399   2.160  1.00  0.00     0.097 N 
HETATM    3  H   UNL     1      40.981 -18.230   2.142  1.00  0.00     0.317 HD
BRANCH   2   4
HETATM    4  C   UNL     1      42.413 -17.543   3.374  1.00  0.00     0.252 C 
HETATM    5  C   UNL     1      43.337 -16.350   3.621  1.00  0.00     0.048 C 
BRANCH   4   6
HETATM    6  C   UNL     1      43.176 -18.828   3.209  1.00  0.00     0.006 A 
HETATM    7  C   UNL     1      44.091 -19.419   4.068  1.00  0.00     0.058 A 
HETATM    8  O   UNL     1      44.569 -20.577   3.534  1.00  0.00    -0.320 OA
HETATM    9  C   UNL     1      44.627 -19.068   5.399  1.00  0.00     0.077 C 
HETATM   10  C   UNL     1      43.961 -20.751   2.331  1.00  0.00     0.050 A 
HETATM   11  C   UNL     1      44.327 -21.967   1.575  1.00  0.00     0.076 C 
HETATM   12  C   UNL     1      43.101 -19.707   2.083  1.00  0.00     0.044 A 
ENDBRANCH   4   6
ENDBRANCH   2   4
ENDBRANCH   1   2
BRANCH   1  13
HETATM   13  C   UNL     1      41.090 -15.274   1.071  1.00  0.00     0.044 A 
HETATM   14  N   UNL     1      40.792 -15.747  -0.194  1.00  0.00    -0.338 N 
HETATM   15  H   UNL     1      40.342 -16.658  -0.285  1.00  0.00     0.168 HD
HETATM   16  C   UNL     1      41.048 -15.022  -1.253  1.00  0.00     0.158 A 
HETATM   17  N   UNL     1      41.597 -13.830  -1.157  1.00  0.00    -0.269 N 
HETATM   18  S   UNL     1      40.702 -15.515  -2.881  1.00  0.00    -0.064 SA
HETATM   19  C   UNL     1      41.947 -13.231   0.071  1.00  0.00     0.255 A 
HETATM   20  C   UNL     1      41.782 -13.226  -2.384  1.00  0.00     0.109 A 
HETATM   21  O   UNL     1      42.451 -12.125   0.124  1.00  0.00    -0.268 OA
HETATM   22  C   UNL     1      41.638 -14.064   1.245  1.00  0.00     0.101 A 
HETATM   23  C   UNL     1      41.363 -13.981  -3.410  1.00  0.00     0.071 A 
ENDBRANCH   1  13
TORSDOF 4
ENDMDL
MODEL 3
REMARK VINA RESULT:      -7.0      1.855      2.809
REMARK  4 active torsions:
REMARK  status: ('A' for Active; 'I' for Inactive)
REMARK    1  A    between atoms: C_6  and  C_7 
REMARK    2  A    between atoms: C_7  and  N_8 
REMARK    3  A    between atoms: N_8  and  C_9 
REMARK    4  A    between atoms: C_9  and  C_10 
ROOT
HETATM    1  C   UNL     1      40.884 -16.548   2.293  1.00  0.00     0.327 C 
ENDROOT
BRANCH   1   2
HETATM    2  N   UNL     1      41.744 -17.729   2.108  1.00  0.00     0.097 N 
HETATM    3  H   UNL     1      41.424 -18.461   2.751  1.00  0.00     0.317 HD
BRANCH   2   4
HETATM    4  C   UNL     1      43.150 -17.466   2.482  1.00  0.00     0.252 C 
HETATM    5  C   UNL     1      44.108 -17.494   1.290  1.00  0.00     0.048 C 
BRANCH   4   6
HETATM    6  C   UNL     1      43.506 -18.493   3.520  1.00  0.00     0.006 A 
HETATM    7  C   UNL     1      43.155 -18.540   4.861  1.00  0.00     0.058 A 
HETATM    8  O   UNL     1      43.699 -19.635   5.459  1.00  0.00    -0.320 OA
HETATM    9  C   UNL     1      42.336 -17.679   5.740  1.00  0.00     0.077 C 
HETATM   10  C   UNL     1      44.395 -20.314   4.511  1.00  0.00     0.050 A 
HETATM   11  C   UNL     1      45.064 -21.557   4.944  1.00  0.00     0.076 C 
HETATM   12  C   UNL     1      44.312 -19.655   3.306  1.00  0.00     0.044 A 
ENDBRANCH   4   6
ENDBRANCH   2   4
ENDBRANCH   1   2
BRANCH   1  13
HETATM   13  C   UNL     1      41.196 -15.529   1.213  1.00  0.00     0.044 A 
HETATM   14  N   UNL     1      40.917 -15.940  -0.078  1.00  0.00    -0.338 N 
HETATM   15  H   UNL     1      40.517 -16.868  -0.223  1.00  0.00     0.168 HD
HETATM   16  C   UNL     1      41.125 -15.140  -1.092  1.00  0.00     0.158 A 
HETATM   17  N   UNL     1      41.608 -13.927  -0.925  1.00  0.00    -0.269 N 
HETATM   18  S   UNL     1      40.797 -15.553  -2.746  1.00  0.00    -0.064 SA
HETATM   19  C   UNL     1      41.932 -13.384   0.336  1.00  0.00     0.255 A 
HETATM   20  C   UNL     1      41.752 -13.241  -2.114  1.00  0.00     0.109 A 
HETATM   21  O   UNL     1      42.375 -12.257   0.454  1.00  0.00    -0.268 OA
HETATM   22  C   UNL     1      41.677 -14.303   1.458  1.00  0.00     0.101 A 
HETATM   23  C   UNL     1      41.369 -13.955  -3.183  1.00  0.00     0.071 A 
ENDBRANCH   1  13
TORSDOF 4
ENDMDL
MODEL 4
REMARK VINA RESULT:      -7.0      1.925      2.218
REMARK  4 active torsions:
REMARK  status: ('A' for Active; 'I' for Inactive)
REMARK    1  A    between atoms: C_6  and  C_7 
REMARK    2  A    between atoms: C_7  and  N_8 
REMARK    3  A    between atoms: N_8  and  C_9 
REMARK    4  A    between atoms: C_9  and  C_10 
ROOT
HETATM    1  C   UNL     1      43.197 -17.938   1.191  1.00  0.00     0.327 C 
ENDROOT
BRANCH   1   2
HETATM    2  N   UNL     1      44.282 -18.159   2.161  1.00  0.00     0.097 N 
HETATM    3  H   UNL     1      45.175 -17.987   1.686  1.00  0.00     0.317 HD
BRANCH   2   4
HETATM    4  C   UNL     1      44.350 -19.562   2.623  1.00  0.00     0.252 C 
HETATM    5  C   UNL     1      43.320 -20.470   1.950  1.00  0.00     0.048 C 
BRANCH   4   6
HETATM    6  C   UNL     1      44.180 -19.519   4.116  1.00  0.00     0.006 A 
HETATM    7  C   UNL     1      44.461 -20.499   5.057  1.00  0.00     0.058 A 
HETATM    8  O   UNL     1      44.147 -20.063   6.308  1.00  0.00    -0.320 OA
HETATM    9  C   UNL     1      45.019 -21.865   4.984  1.00  0.00     0.077 C 
HETATM   10  C   UNL     1      43.672 -18.796   6.191  1.00  0.00     0.050 A 
HETATM   11  C   UNL     1      43.277 -18.118   7.443  1.00  0.00     0.076 C 
HETATM   12  C   UNL     1      43.668 -18.416   4.868  1.00  0.00     0.044 A 
ENDBRANCH   4   6
ENDBRANCH   2   4
ENDBRANCH   1   2
BRANCH   1  13
HETATM   13  C   UNL     1      42.285 -16.839   1.705  1.00  0.00     0.044 A 
HETATM   14  N   UNL     1      42.923 -15.824   2.395  1.00  0.00    -0.338 N 
HETATM   15  H   UNL     1      43.937 -15.865   2.503  1.00  0.00     0.168 HD
HETATM   16  C   UNL     1      42.243 -14.811   2.868  1.00  0.00     0.158 A 
HETATM   17  N   UNL     1      40.940 -14.722   2.711  1.00  0.00    -0.269 N 
HETATM   18  S   UNL     1      42.947 -13.483   3.736  1.00  0.00    -0.064 SA
HETATM   19  C   UNL     1      40.169 -15.685   2.027  1.00  0.00     0.255 A 
HETATM   20  C   UNL     1      40.410 -13.580   3.279  1.00  0.00     0.109 A 
HETATM   21  O   UNL     1      38.966 -15.569   1.898  1.00  0.00    -0.268 OA
HETATM   22  C   UNL     1      40.962 -16.807   1.496  1.00  0.00     0.101 A 
HETATM   23  C   UNL     1      41.335 -12.807   3.867  1.00  0.00     0.071 A 
ENDBRANCH   1  13
TORSDOF 4
ENDMDL
MODEL 5
REMARK VINA RESULT:      -6.9      2.553      3.660
REMARK  4 active torsions:
REMARK  status: ('A' for Active; 'I' for Inactive)
REMARK    1  A    between atoms: C_6  and  C_7 
REMARK    2  A    between atoms: C_7  and  N_8 
REMARK    3  A    between atoms: N_8  and  C_9 
REMARK    4  A    between atoms: C_9  and  C_10 
ROOT
HETATM    1  C   UNL     1      41.447 -16.800   4.655  1.00  0.00     0.327 C 
ENDROOT
BRANCH   1   2
HETATM    2  N   UNL     1      41.799 -17.474   3.395  1.00  0.00     0.097 N 
HETATM    3  H   UNL     1      41.599 -18.475   3.501  1.00  0.00     0.317 HD
BRANCH   2   4
HETATM    4  C   UNL     1      43.245 -17.394   3.097  1.00  0.00     0.252 C 
HETATM    5  C   UNL     1      43.552 -16.700   1.769  1.00  0.00     0.048 C 
BRANCH   4   6
HETATM    6  C   UNL     1      43.758 -18.807   3.131  1.00  0.00     0.006 A 
HETATM    7  C   UNL     1      44.382 -19.486   4.167  1.00  0.00     0.058 A 
HETATM    8  O   UNL     1      44.706 -20.751   3.782  1.00  0.00    -0.320 OA
HETATM    9  C   UNL     1      44.746 -19.134   5.556  1.00  0.00     0.077 C 
HETATM   10  C   UNL     1      44.286 -20.906   2.499  1.00  0.00     0.050 A 
HETATM   11  C   UNL     1      44.528 -22.224   1.878  1.00  0.00     0.076 C 
HETATM   12  C   UNL     1      43.702 -19.743   2.053  1.00  0.00     0.044 A 
ENDBRANCH   4   6
ENDBRANCH   2   4
ENDBRANCH   1   2
BRANCH   1  13
HETATM   13  C   UNL     1      40.832 -15.447   4.342  1.00  0.00     0.044 A 
HETATM   14  N   UNL     1      40.124 -15.387   3.155  1.00  0.00    -0.338 N 
HETATM   15  H   UNL     1      40.046 -16.231   2.586  1.00  0.00     0.168 HD
HETATM   16  C   UNL     1      39.532 -14.279   2.789  1.00  0.00     0.158 A 
HETATM   17  N   UNL     1      39.591 -13.190   3.524  1.00  0.00    -0.269 N 
HETATM   18  S   UNL     1      38.610 -14.102   1.328  1.00  0.00    -0.064 SA
HETATM   19  C   UNL     1      40.276 -13.117   4.755  1.00  0.00     0.255 A 
HETATM   20  C   UNL     1      38.901 -12.131   2.968  1.00  0.00     0.109 A 
HETATM   21  O   UNL     1      40.308 -12.094   5.411  1.00  0.00    -0.268 OA
HETATM   22  C   UNL     1      40.922 -14.380   5.147  1.00  0.00     0.101 A 
HETATM   23  C   UNL     1      38.319 -12.439   1.799  1.00  0.00     0.071 A 
ENDBRANCH   1  13
TORSDOF 4
ENDMDL
MODEL 6
REMARK VINA RESULT:      -6.8      2.266      3.446
REMARK  4 active torsions:
REMARK  status: ('A' for Active; 'I' for Inactive)
REMARK    1  A    between atoms: C_6  and  C_7 
REMARK    2  A    between atoms: C_7  and  N_8 
REMARK    3  A    between atoms: N_8  and  C_9 
REMARK    4  A    between atoms: C_9  and  C_10 
ROOT
HETATM    1  C   UNL     1      40.514 -16.404   2.643  1.00  0.00     0.327 C 
ENDROOT
BRANCH   1   2
HETATM    2  N   UNL     1      41.497 -17.448   2.311  1.00  0.00     0.097 N 
HETATM    3  H   UNL     1      41.063 -18.362   2.482  1.00  0.00     0.317 HD
BRANCH   2   4
HETATM    4  C   UNL     1      42.682 -17.408   3.194  1.00  0.00     0.252 C 
HETATM    5  C   UNL     1      43.641 -16.262   2.867  1.00  0.00     0.048 C 
BRANCH   4   6
HETATM    6  C   UNL     1      43.342 -18.753   3.070  1.00  0.00     0.006 A 
HETATM    7  C   UNL     1      44.201 -19.391   3.954  1.00  0.00     0.058 A 
HETATM    8  O   UNL     1      44.589 -20.597   3.456  1.00  0.00    -0.320 OA
HETATM    9  C   UNL     1      44.754 -19.046   5.280  1.00  0.00     0.077 C 
HETATM   10  C   UNL     1      43.977 -20.756   2.253  1.00  0.00     0.050 A 
HETATM   11  C   UNL     1      44.250 -22.017   1.534  1.00  0.00     0.076 C 
HETATM   12  C   UNL     1      43.205 -19.654   1.969  1.00  0.00     0.044 A 
ENDBRANCH   4   6
ENDBRANCH   2   4
ENDBRANCH   1   2
BRANCH   1  13
HETATM   13  C   UNL     1      40.227 -15.576   1.402  1.00  0.00     0.044 A 
HETATM   14  N   UNL     1      39.057 -14.842   1.447  1.00  0.00    -0.338 N 
HETATM   15  H   UNL     1      38.480 -14.886   2.289  1.00  0.00     0.168 HD
HETATM   16  C   UNL     1      38.713 -14.074   0.445  1.00  0.00     0.158 A 
HETATM   17  N   UNL     1      39.458 -13.976  -0.635  1.00  0.00    -0.269 N 
HETATM   18  S   UNL     1      37.274 -13.104   0.406  1.00  0.00    -0.064 SA
HETATM   19  C   UNL     1      40.675 -14.668  -0.808  1.00  0.00     0.255 A 
HETATM   20  C   UNL     1      38.927 -13.115  -1.575  1.00  0.00     0.109 A 
HETATM   21  O   UNL     1      41.341 -14.552  -1.819  1.00  0.00    -0.268 OA
HETATM   22  C   UNL     1      41.041 -15.515   0.340  1.00  0.00     0.101 A 
HETATM   23  C   UNL     1      37.768 -12.564  -1.187  1.00  0.00     0.071 A 
ENDBRANCH   1  13
TORSDOF 4
ENDMDL
MODEL 7
REMARK VINA RESULT:      -6.7      3.618      7.036
REMARK  4 active torsions:
REMARK  status: ('A' for Active; 'I' for Inactive)
REMARK    1  A    between atoms: C_6  and  C_7 
REMARK    2  A    between atoms: C_7  and  N_8 
REMARK    3  A    between atoms: N_8  and  C_9 
REMARK    4  A    between atoms: C_9  and  C_10 
ROOT
HETATM    1  C   UNL     1      44.055 -17.153   5.942  1.00  0.00     0.327 C 
ENDROOT
BRANCH   1   2
HETATM    2  N   UNL     1      43.353 -15.989   5.378  1.00  0.00     0.097 N 
HETATM    3  H   UNL     1      43.934 -15.159   5.533  1.00  0.00     0.317 HD
BRANCH   2   4
HETATM    4  C   UNL     1      42.077 -15.709   6.072  1.00  0.00     0.252 C 
HETATM    5  C   UNL     1      41.519 -16.919   6.824  1.00  0.00     0.048 C 
BRANCH   4   6
HETATM    6  C   UNL     1      41.129 -15.207   5.019  1.00  0.00     0.006 A 
HETATM    7  C   UNL     1      40.227 -14.155   5.083  1.00  0.00     0.058 A 
HETATM    8  O   UNL     1      39.543 -14.041   3.912  1.00  0.00    -0.320 OA
HETATM    9  C   UNL     1      39.877 -13.163   6.121  1.00  0.00     0.077 C 
HETATM   10  C   UNL     1      40.002 -15.008   3.076  1.00  0.00     0.050 A 
HETATM   11  C   UNL     1      39.397 -15.060   1.729  1.00  0.00     0.076 C 
HETATM   12  C   UNL     1      40.972 -15.753   3.707  1.00  0.00     0.044 A 
ENDBRANCH   4   6
ENDBRANCH   2   4
ENDBRANCH   1   2
BRANCH   1  13
HETATM   13  C   UNL     1      44.120 -18.253   4.897  1.00  0.00     0.044 A 
HETATM   14  N   UNL     1      44.459 -19.502   5.384  1.00  0.00    -0.338 N 
HETATM   15  H   UNL     1      44.626 -19.611   6.385  1.00  0.00     0.168 HD
HETATM   16  C   UNL     1      44.526 -20.533   4.581  1.00  0.00     0.158 A 
HETATM   17  N   UNL     1      44.281 -20.422   3.293  1.00  0.00    -0.269 N 
HETATM   18  S   UNL     1      44.930 -22.143   5.091  1.00  0.00    -0.064 SA
HETATM   19  C   UNL     1      43.923 -19.208   2.671  1.00  0.00     0.255 A 
HETATM   20  C   UNL     1      44.402 -21.621   2.620  1.00  0.00     0.109 A 
HETATM   21  O   UNL     1      43.700 -19.140   1.477  1.00  0.00    -0.268 OA
HETATM   22  C   UNL     1      43.844 -18.068   3.600  1.00  0.00     0.101 A 
HETATM   23  C   UNL     1      44.741 -22.642   3.421  1.00  0.00     0.071 A 
ENDBRANCH   1  13
TORSDOF 4
ENDMDL
MODEL 8
REMARK VINA RESULT:      -6.6      3.297      4.341
REMARK  4 active torsions:
REMARK  status: ('A' for Active; 'I' for Inactive)
REMARK    1  A    between atoms: C_6  and  C_7 
REMARK    2  A    between atoms: C_7  and  N_8 
REMARK    3  A    between atoms: N_8  and  C_9 
REMARK    4  A    between atoms: C_9  and  C_10 
ROOT
HETATM    1  C   UNL     1      41.439 -16.721   4.607  1.00  0.00     0.327 C 
ENDROOT
BRANCH   1   2
HETATM    2  N   UNL     1      41.799 -17.428   3.367  1.00  0.00     0.097 N 
HETATM    3  H   UNL     1      41.601 -18.426   3.499  1.00  0.00     0.317 HD
BRANCH   2   4
HETATM    4  C   UNL     1      43.246 -17.352   3.074  1.00  0.00     0.252 C 
HETATM    5  C   UNL     1      43.559 -16.670   1.741  1.00  0.00     0.048 C 
BRANCH   4   6
HETATM    6  C   UNL     1      43.758 -18.764   3.123  1.00  0.00     0.006 A 
HETATM    7  C   UNL     1      44.393 -19.429   4.163  1.00  0.00     0.058 A 
HETATM    8  O   UNL     1      44.711 -20.700   3.792  1.00  0.00    -0.320 OA
HETATM    9  C   UNL     1      44.773 -19.058   5.541  1.00  0.00     0.077 C 
HETATM   10  C   UNL     1      44.276 -20.873   2.517  1.00  0.00     0.050 A 
HETATM   11  C   UNL     1      44.510 -22.201   1.913  1.00  0.00     0.076 C 
HETATM   12  C   UNL     1      43.689 -19.717   2.060  1.00  0.00     0.044 A 
ENDBRANCH   4   6
ENDBRANCH   2   4
ENDBRANCH   1   2
BRANCH   1  13
HETATM   13  C   UNL     1      40.736 -15.422   4.255  1.00  0.00     0.044 A 
HETATM   14  N   UNL     1      40.581 -14.538   5.307  1.00  0.00    -0.338 N 
HETATM   15  H   UNL     1      40.947 -14.795   6.224  1.00  0.00     0.168 HD
HETATM   16  C   UNL     1      40.008 -13.376   5.121  1.00  0.00     0.158 A 
HETATM   17  N   UNL     1      39.558 -13.010   3.940  1.00  0.00    -0.269 N 
HETATM   18  S   UNL     1      39.774 -12.192   6.369  1.00  0.00    -0.064 SA
HETATM   19  C   UNL     1      39.656 -13.814   2.785  1.00  0.00     0.255 A 
HETATM   20  C   UNL     1      38.991 -11.751   3.950  1.00  0.00     0.109 A 
HETATM   21  O   UNL     1      39.233 -13.443   1.708  1.00  0.00    -0.268 OA
HETATM   22  C   UNL     1      40.315 -15.110   3.022  1.00  0.00     0.101 A 
HETATM   23  C   UNL     1      39.021 -11.171   5.159  1.00  0.00     0.071 A 
ENDBRANCH   1  13
TORSDOF 4
ENDMDL
MODEL 9
REMARK VINA RESULT:      -6.5      1.555      2.247
REMARK  4 active torsions:
REMARK  status: ('A' for Active; 'I' for Inactive)
REMARK    1  A    between atoms: C_6  and  C_7 
REMARK    2  A    between atoms: C_7  and  N_8 
REMARK    3  A    between atoms: N_8  and  C_9 
REMARK    4  A    between atoms: C_9  and  C_10 
ROOT
HETATM    1  C   UNL     1      40.848 -16.581   2.802  1.00  0.00     0.327 C 
ENDROOT
BRANCH   1   2
HETATM    2  N   UNL     1      41.832 -17.417   2.095  1.00  0.00     0.097 N 
HETATM    3  H   UNL     1      41.666 -18.395   2.356  1.00  0.00     0.317 HD
BRANCH   2   4
HETATM    4  C   UNL     1      43.220 -17.130   2.515  1.00  0.00     0.252 C 
HETATM    5  C   UNL     1      44.234 -17.247   1.375  1.00  0.00     0.048 C 
BRANCH   4   6
HETATM    6  C   UNL     1      43.521 -18.079   3.642  1.00  0.00     0.006 A 
HETATM    7  C   UNL     1      43.856 -19.424   3.588  1.00  0.00     0.058 A 
HETATM    8  O   UNL     1      44.034 -19.923   4.842  1.00  0.00    -0.320 OA
HETATM    9  C   UNL     1      44.059 -20.390   2.488  1.00  0.00     0.077 C 
HETATM   10  C   UNL     1      43.829 -18.905   5.718  1.00  0.00     0.050 A 
HETATM   11  C   UNL     1      43.985 -19.224   7.152  1.00  0.00     0.076 C 
HETATM   12  C   UNL     1      43.508 -17.755   5.035  1.00  0.00     0.044 A 
ENDBRANCH   4   6
ENDBRANCH   2   4
ENDBRANCH   1   2
BRANCH   1  13
HETATM   13  C   UNL     1      40.180 -15.648   1.807  1.00  0.00     0.044 A 
HETATM   14  N   UNL     1      40.974 -15.265   0.742  1.00  0.00    -0.338 N 
HETATM   15  H   UNL     1      41.925 -15.629   0.681  1.00  0.00     0.168 HD
HETATM   16  C   UNL     1      40.502 -14.478  -0.191  1.00  0.00     0.158 A 
HETATM   17  N   UNL     1      39.267 -14.023  -0.151  1.00  0.00    -0.269 N 
HETATM   18  S   UNL     1      41.408 -13.948  -1.573  1.00  0.00    -0.064 SA
HETATM   19  C   UNL     1      38.354 -14.340   0.877  1.00  0.00     0.255 A 
HETATM   20  C   UNL     1      38.960 -13.214  -1.226  1.00  0.00     0.109 A 
HETATM   21  O   UNL     1      37.219 -13.904   0.882  1.00  0.00    -0.268 OA
HETATM   22  C   UNL     1      38.910 -15.235   1.906  1.00  0.00     0.101 A 
HETATM   23  C   UNL     1      39.982 -13.064  -2.081  1.00  0.00     0.071 A 
ENDBRANCH   1  13
TORSDOF 4
ENDMDL
MODEL 10
REMARK VINA RESULT:      -6.4      4.125      6.363
REMARK  4 active torsions:
REMARK  status: ('A' for Active; 'I' for Inactive)
REMARK    1  A    between atoms: C_6  and  C_7 
REMARK    2  A    between atoms: C_7  and  N_8 
REMARK    3  A    between atoms: N_8  and  C_9 
REMARK    4  A    between atoms: C_9  and  C_10 
ROOT
HETATM    1  C   UNL     1      44.917 -18.215   6.494  1.00  0.00     0.327 C 
ENDROOT
BRANCH   1   2
HETATM    2  N   UNL     1      44.970 -16.746   6.425  1.00  0.00     0.097 N 
HETATM    3  H   UNL     1      45.901 -16.445   6.732  1.00  0.00     0.317 HD
BRANCH   2   4
HETATM    4  C   UNL     1      44.023 -16.102   7.360  1.00  0.00     0.252 C 
HETATM    5  C   UNL     1      43.275 -17.099   8.246  1.00  0.00     0.048 C 
BRANCH   4   6
HETATM    6  C   UNL     1      43.089 -15.284   6.512  1.00  0.00     0.006 A 
HETATM    7  C   UNL     1      41.851 -15.630   5.990  1.00  0.00     0.058 A 
HETATM    8  O   UNL     1      41.337 -14.603   5.260  1.00  0.00    -0.320 OA
HETATM    9  C   UNL     1      41.004 -16.839   6.067  1.00  0.00     0.077 C 
HETATM   10  C   UNL     1      42.228 -13.579   5.313  1.00  0.00     0.050 A 
HETATM   11  C   UNL     1      41.861 -12.344   4.591  1.00  0.00     0.076 C 
HETATM   12  C   UNL     1      43.321 -13.946   6.064  1.00  0.00     0.044 A 
ENDBRANCH   4   6
ENDBRANCH   2   4
ENDBRANCH   1   2
BRANCH   1  13
HETATM   13  C   UNL     1      44.546 -18.766   5.129  1.00  0.00     0.044 A 
HETATM   14  N   UNL     1      44.796 -20.115   4.956  1.00  0.00    -0.338 N 
HETATM   15  H   UNL     1      45.188 -20.647   5.734  1.00  0.00     0.168 HD
HETATM   16  C   UNL     1      44.500 -20.708   3.827  1.00  0.00     0.158 A 
HETATM   17  N   UNL     1      43.962 -20.049   2.823  1.00  0.00    -0.269 N 
HETATM   18  S   UNL     1      44.760 -22.395   3.512  1.00  0.00    -0.064 SA
HETATM   19  C   UNL     1      43.654 -18.674   2.869  1.00  0.00     0.255 A 
HETATM   20  C   UNL     1      43.722 -20.851   1.725  1.00  0.00     0.109 A 
HETATM   21  O   UNL     1      43.155 -18.096   1.923  1.00  0.00    -0.268 OA
HETATM   22  C   UNL     1      43.988 -18.036   4.154  1.00  0.00     0.101 A 
HETATM   23  C   UNL     1      44.086 -22.128   1.917  1.00  0.00     0.071 A 
ENDBRANCH   1  13
TORSDOF 4
ENDMDL
