MODEL 1
REMARK VINA RESULT:      -9.4      0.000      0.000
REMARK  8 active torsions:
REMARK  status: ('A' for Active; 'I' for Inactive)
REMARK    1  A    between atoms: C_3  and  C_4 
REMARK       I    between atoms: C_4  and  N_5 
REMARK    2  A    between atoms: N_5  and  C_6 
REMARK    3  A    between atoms: C_14  and  N_15 
REMARK       I    between atoms: N_15  and  C_16 
REMARK    4  A    between atoms: C_16  and  C_17 
REMARK       I    between atoms: C_17  and  N_18 
REMARK    5  A    between atoms: N_18  and  N_19 
REMARK    6  A    between atoms: C_20  and  C_21 
REMARK    7  A    between atoms: C_22  and  O_23 
REMARK    8  A    between atoms: C_25  and  O_26 
ROOT
HETATM    1  N   UNL     1      43.691 -18.406   5.240  1.00  0.00    -0.318 N 
HETATM    2  C   UNL     1      44.598 -17.855   6.118  1.00  0.00     0.315 C 
HETATM    3  O   UNL     1      45.815 -17.996   6.149  1.00  0.00    -0.262 OA
HETATM    4  H   UNL     1      42.719 -18.093   5.355  1.00  0.00     0.169 HD
ENDROOT
BRANCH   1   5
HETATM    5  C   UNL     1      43.932 -19.358   4.223  1.00  0.00     0.051 A 
HETATM    6  C   UNL     1      43.580 -19.063   2.887  1.00  0.00     0.059 A 
HETATM    7  C   UNL     1      43.747 -20.029   1.877  1.00  0.00     0.019 A 
HETATM    8  C   UNL     1      44.299 -21.271   2.179  1.00  0.00     0.001 A 
HETATM    9  C   UNL     1      44.683 -21.555   3.486  1.00  0.00     0.002 A 
HETATM   10  C   UNL     1      44.497 -20.610   4.500  1.00  0.00     0.030 A 
BRANCH   6  11
HETATM   11  C   UNL     1      43.054 -17.714   2.524  1.00  0.00     0.258 C 
HETATM   12  N   UNL     1      41.830 -17.723   1.876  1.00  0.00    -0.323 N 
HETATM   13  H   UNL     1      41.441 -18.628   1.643  1.00  0.00     0.169 HD
HETATM   14  O   UNL     1      43.752 -16.737   2.762  1.00  0.00    -0.267 OA
BRANCH  12  15
HETATM   15  C   UNL     1      41.103 -16.611   1.404  1.00  0.00     0.035 A 
HETATM   16  C   UNL     1      41.422 -15.902   0.243  1.00  0.00     0.031 A 
HETATM   17  C   UNL     1      40.644 -14.810  -0.158  1.00  0.00     0.026 A 
HETATM   18  C   UNL     1      39.547 -14.419   0.603  1.00  0.00     0.034 A 
HETATM   19 CL   UNL     1      38.591 -13.078   0.109  1.00  0.00    -0.084 Cl
HETATM   20  C   UNL     1      39.219 -15.113   1.765  1.00  0.00     0.026 A 
HETATM   21  C   UNL     1      39.996 -16.204   2.163  1.00  0.00     0.031 A 
ENDBRANCH  12  15
ENDBRANCH   6  11
ENDBRANCH   1   5
BRANCH   2  22
HETATM   22  C   UNL     1      43.955 -16.896   7.134  1.00  0.00     0.329 C 
HETATM   23  N   UNL     1      44.446 -15.609   7.003  1.00  0.00    -0.239 N 
HETATM   24  H   UNL     1      45.157 -15.444   6.291  1.00  0.00     0.192 HD
HETATM   25  O   UNL     1      43.105 -17.299   7.915  1.00  0.00    -0.261 OA
BRANCH  23  26
HETATM   26  N   UNL     1      44.028 -14.612   7.827  1.00  0.00    -0.183 NA
HETATM   27  C   UNL     1      44.829 -13.597   7.911  1.00  0.00     0.153 C 
BRANCH  27  28
HETATM   28  C   UNL     1      44.523 -12.454   8.792  1.00  0.00     0.016 A 
HETATM   29  C   UNL     1      43.384 -11.658   8.614  1.00  0.00     0.080 A 
HETATM   30  C   UNL     1      43.118 -10.603   9.484  1.00  0.00     0.074 A 
HETATM   31  C   UNL     1      44.002 -10.342  10.527  1.00  0.00     0.068 A 
HETATM   32  C   UNL     1      45.142 -11.119  10.712  1.00  0.00     0.037 A 
HETATM   33  C   UNL     1      45.404 -12.182   9.845  1.00  0.00     0.018 A 
BRANCH  29  34
HETATM   34  O   UNL     1      42.477 -11.859   7.609  1.00  0.00    -0.360 OA
HETATM   35  H   UNL     1      42.368 -11.013   7.117  1.00  0.00     0.217 HD
ENDBRANCH  29  34
BRANCH  31  36
HETATM   36  O   UNL     1      43.784  -9.320  11.403  1.00  0.00    -0.361 OA
HETATM   37  H   UNL     1      43.663  -9.696  12.292  1.00  0.00     0.217 HD
ENDBRANCH  31  36
ENDBRANCH  27  28
ENDBRANCH  23  26
ENDBRANCH   2  22
TORSDOF 8
ENDMDL
MODEL 2
REMARK VINA RESULT:      -9.2      3.093      8.712
REMARK  8 active torsions:
REMARK  status: ('A' for Active; 'I' for Inactive)
REMARK    1  A    between atoms: C_3  and  C_4 
REMARK       I    between atoms: C_4  and  N_5 
REMARK    2  A    between atoms: N_5  and  C_6 
REMARK    3  A    between atoms: C_14  and  N_15 
REMARK       I    between atoms: N_15  and  C_16 
REMARK    4  A    between atoms: C_16  and  C_17 
REMARK       I    between atoms: C_17  and  N_18 
REMARK    5  A    between atoms: N_18  and  N_19 
REMARK    6  A    between atoms: C_20  and  C_21 
REMARK    7  A    between atoms: C_22  and  O_23 
REMARK    8  A    between atoms: C_25  and  O_26 
ROOT
HETATM    1  N   UNL     1      43.779 -12.068   9.815  1.00  0.00    -0.318 N 
HETATM    2  C   UNL     1      44.943 -11.693   9.183  1.00  0.00     0.315 C 
HETATM    3  O   UNL     1      45.622 -10.689   9.362  1.00  0.00    -0.262 OA
HETATM    4  H   UNL     1      43.413 -12.993   9.558  1.00  0.00     0.169 HD
ENDROOT
BRANCH   1   5
HETATM    5  C   UNL     1      43.021 -11.329  10.754  1.00  0.00     0.051 A 
HETATM    6  C   UNL     1      42.029 -10.431  10.303  1.00  0.00     0.059 A 
HETATM    7  C   UNL     1      41.318  -9.636  11.221  1.00  0.00     0.019 A 
HETATM    8  C   UNL     1      41.557  -9.759  12.588  1.00  0.00     0.001 A 
HETATM    9  C   UNL     1      42.506 -10.671  13.042  1.00  0.00     0.002 A 
HETATM   10  C   UNL     1      43.235 -11.445  12.133  1.00  0.00     0.030 A 
BRANCH   6  11
HETATM   11  C   UNL     1      41.702 -10.331   8.850  1.00  0.00     0.258 C 
HETATM   12  N   UNL     1      40.569 -11.026   8.460  1.00  0.00    -0.323 N 
HETATM   13  H   UNL     1      40.112 -11.590   9.165  1.00  0.00     0.169 HD
HETATM   14  O   UNL     1      42.471  -9.714   8.124  1.00  0.00    -0.267 OA
BRANCH  12  15
HETATM   15  C   UNL     1      40.031 -11.125   7.161  1.00  0.00     0.035 A 
HETATM   16  C   UNL     1      39.613 -10.030   6.400  1.00  0.00     0.031 A 
HETATM   17  C   UNL     1      39.094 -10.216   5.113  1.00  0.00     0.026 A 
HETATM   18  C   UNL     1      38.984 -11.499   4.585  1.00  0.00     0.034 A 
HETATM   19 CL   UNL     1      38.346 -11.726   3.005  1.00  0.00    -0.084 Cl
HETATM   20  C   UNL     1      39.391 -12.600   5.333  1.00  0.00     0.026 A 
HETATM   21  C   UNL     1      39.911 -12.412   6.617  1.00  0.00     0.031 A 
ENDBRANCH  12  15
ENDBRANCH   6  11
ENDBRANCH   1   5
BRANCH   2  22
HETATM   22  C   UNL     1      45.449 -12.737   8.172  1.00  0.00     0.329 C 
HETATM   23  N   UNL     1      44.463 -13.652   7.847  1.00  0.00    -0.239 N 
HETATM   24  H   UNL     1      43.555 -13.551   8.300  1.00  0.00     0.192 HD
HETATM   25  O   UNL     1      46.591 -12.680   7.742  1.00  0.00    -0.261 OA
BRANCH  23  26
HETATM   26  N   UNL     1      44.713 -14.677   6.989  1.00  0.00    -0.183 NA
HETATM   27  C   UNL     1      43.826 -15.621   6.989  1.00  0.00     0.153 C 
BRANCH  27  28
HETATM   28  C   UNL     1      43.981 -16.813   6.133  1.00  0.00     0.016 A 
HETATM   29  C   UNL     1      43.248 -16.984   4.951  1.00  0.00     0.080 A 
HETATM   30  C   UNL     1      43.444 -18.113   4.158  1.00  0.00     0.074 A 
HETATM   31  C   UNL     1      44.367 -19.074   4.558  1.00  0.00     0.068 A 
HETATM   32  C   UNL     1      45.096 -18.922   5.734  1.00  0.00     0.037 A 
HETATM   33  C   UNL     1      44.908 -17.787   6.525  1.00  0.00     0.018 A 
BRANCH  29  34
HETATM   34  O   UNL     1      42.324 -16.079   4.503  1.00  0.00    -0.360 OA
HETATM   35  H   UNL     1      42.601 -15.771   3.610  1.00  0.00     0.217 HD
ENDBRANCH  29  34
BRANCH  31  36
HETATM   36  O   UNL     1      44.591 -20.195   3.816  1.00  0.00    -0.361 OA
HETATM   37  H   UNL     1      44.185 -20.953   4.270  1.00  0.00     0.217 HD
ENDBRANCH  31  36
ENDBRANCH  27  28
ENDBRANCH  23  26
ENDBRANCH   2  22
TORSDOF 8
ENDMDL
MODEL 3
REMARK VINA RESULT:      -9.2      1.551      1.880
REMARK  8 active torsions:
REMARK  status: ('A' for Active; 'I' for Inactive)
REMARK    1  A    between atoms: C_3  and  C_4 
REMARK       I    between atoms: C_4  and  N_5 
REMARK    2  A    between atoms: N_5  and  C_6 
REMARK    3  A    between atoms: C_14  and  N_15 
REMARK       I    between atoms: N_15  and  C_16 
REMARK    4  A    between atoms: C_16  and  C_17 
REMARK       I    between atoms: C_17  and  N_18 
REMARK    5  A    between atoms: N_18  and  N_19 
REMARK    6  A    between atoms: C_20  and  C_21 
REMARK    7  A    between atoms: C_22  and  O_23 
REMARK    8  A    between atoms: C_25  and  O_26 
ROOT
HETATM    1  N   UNL     1      43.963 -18.982   4.955  1.00  0.00    -0.318 N 
HETATM    2  C   UNL     1      42.798 -18.356   5.337  1.00  0.00     0.315 C 
HETATM    3  O   UNL     1      41.652 -18.574   4.960  1.00  0.00    -0.262 OA
HETATM    4  H   UNL     1      44.810 -18.686   5.456  1.00  0.00     0.169 HD
ENDROOT
BRANCH   1   5
HETATM    5  C   UNL     1      44.136 -19.961   3.948  1.00  0.00     0.051 A 
HETATM    6  C   UNL     1      43.800 -19.658   2.610  1.00  0.00     0.059 A 
HETATM    7  C   UNL     1      43.898 -20.645   1.612  1.00  0.00     0.019 A 
HETATM    8  C   UNL     1      44.367 -21.918   1.927  1.00  0.00     0.001 A 
HETATM    9  C   UNL     1      44.736 -22.211   3.236  1.00  0.00     0.002 A 
HETATM   10  C   UNL     1      44.617 -21.243   4.238  1.00  0.00     0.030 A 
BRANCH   6  11
HETATM   11  C   UNL     1      43.363 -18.282   2.232  1.00  0.00     0.258 C 
HETATM   12  N   UNL     1      42.060 -18.192   1.770  1.00  0.00    -0.323 N 
HETATM   13  H   UNL     1      41.551 -19.060   1.660  1.00  0.00     0.169 HD
HETATM   14  O   UNL     1      44.183 -17.375   2.297  1.00  0.00    -0.267 OA
BRANCH  12  15
HETATM   15  C   UNL     1      41.386 -17.034   1.330  1.00  0.00     0.035 A 
HETATM   16  C   UNL     1      41.612 -16.416   0.097  1.00  0.00     0.031 A 
HETATM   17  C   UNL     1      40.895 -15.270  -0.264  1.00  0.00     0.026 A 
HETATM   18  C   UNL     1      39.952 -14.734   0.608  1.00  0.00     0.034 A 
HETATM   19 CL   UNL     1      39.072 -13.327   0.162  1.00  0.00    -0.084 Cl
HETATM   20  C   UNL     1      39.719 -15.335   1.841  1.00  0.00     0.026 A 
HETATM   21  C   UNL     1      40.435 -16.481   2.200  1.00  0.00     0.031 A 
ENDBRANCH  12  15
ENDBRANCH   6  11
ENDBRANCH   1   5
BRANCH   2  22
HETATM   22  C   UNL     1      43.009 -17.293   6.430  1.00  0.00     0.329 C 
HETATM   23  N   UNL     1      44.272 -16.731   6.358  1.00  0.00    -0.239 N 
HETATM   24  H   UNL     1      44.902 -17.074   5.634  1.00  0.00     0.192 HD
HETATM   25  O   UNL     1      42.111 -17.023   7.213  1.00  0.00    -0.261 OA
BRANCH  23  26
HETATM   26  N   UNL     1      44.672 -15.789   7.253  1.00  0.00    -0.183 NA
HETATM   27  C   UNL     1      44.684 -14.574   6.802  1.00  0.00     0.153 C 
BRANCH  27  28
HETATM   28  C   UNL     1      45.126 -13.450   7.649  1.00  0.00     0.016 A 
HETATM   29  C   UNL     1      46.299 -12.732   7.384  1.00  0.00     0.080 A 
HETATM   30  C   UNL     1      46.666 -11.659   8.195  1.00  0.00     0.074 A 
HETATM   31  C   UNL     1      45.861 -11.317   9.277  1.00  0.00     0.068 A 
HETATM   32  C   UNL     1      44.697 -12.027   9.557  1.00  0.00     0.037 A 
HETATM   33  C   UNL     1      44.322 -13.096   8.740  1.00  0.00     0.018 A 
BRANCH  29  34
HETATM   34  O   UNL     1      47.135 -13.018   6.340  1.00  0.00    -0.360 OA
HETATM   35  H   UNL     1      47.633 -13.839   6.558  1.00  0.00     0.217 HD
ENDBRANCH  29  34
BRANCH  31  36
HETATM   36  O   UNL     1      46.180 -10.277  10.098  1.00  0.00    -0.361 OA
HETATM   37  H   UNL     1      45.840 -10.470  10.989  1.00  0.00     0.217 HD
ENDBRANCH  31  36
ENDBRANCH  27  28
ENDBRANCH  23  26
ENDBRANCH   2  22
TORSDOF 8
ENDMDL
MODEL 4
REMARK VINA RESULT:      -8.7      3.216      5.728
REMARK  8 active torsions:
REMARK  status: ('A' for Active; 'I' for Inactive)
REMARK    1  A    between atoms: C_3  and  C_4 
REMARK       I    between atoms: C_4  and  N_5 
REMARK    2  A    between atoms: N_5  and  C_6 
REMARK    3  A    between atoms: C_14  and  N_15 
REMARK       I    between atoms: N_15  and  C_16 
REMARK    4  A    between atoms: C_16  and  C_17 
REMARK       I    between atoms: C_17  and  N_18 
REMARK    5  A    between atoms: N_18  and  N_19 
REMARK    6  A    between atoms: C_20  and  C_21 
REMARK    7  A    between atoms: C_22  and  O_23 
REMARK    8  A    between atoms: C_25  and  O_26 
ROOT
HETATM    1  N   UNL     1      42.578 -13.412   3.807  1.00  0.00    -0.318 N 
HETATM    2  C   UNL     1      41.784 -12.953   4.834  1.00  0.00     0.315 C 
HETATM    3  O   UNL     1      40.583 -12.707   4.821  1.00  0.00    -0.262 OA
HETATM    4  H   UNL     1      43.552 -13.620   4.060  1.00  0.00     0.169 HD
ENDROOT
BRANCH   1   5
HETATM    5  C   UNL     1      42.222 -13.609   2.452  1.00  0.00     0.051 A 
HETATM    6  C   UNL     1      42.131 -14.920   1.934  1.00  0.00     0.059 A 
HETATM    7  C   UNL     1      41.849 -15.129   0.571  1.00  0.00     0.019 A 
HETATM    8  C   UNL     1      41.617 -14.044  -0.271  1.00  0.00     0.001 A 
HETATM    9  C   UNL     1      41.667 -12.751   0.241  1.00  0.00     0.002 A 
HETATM   10  C   UNL     1      41.972 -12.536   1.589  1.00  0.00     0.030 A 
BRANCH   6  11
HETATM   11  C   UNL     1      42.304 -16.102   2.830  1.00  0.00     0.258 C 
HETATM   12  N   UNL     1      43.425 -16.871   2.566  1.00  0.00    -0.323 N 
HETATM   13  H   UNL     1      43.978 -16.615   1.759  1.00  0.00     0.169 HD
HETATM   14  O   UNL     1      41.436 -16.330   3.662  1.00  0.00    -0.267 OA
BRANCH  12  15
HETATM   15  C   UNL     1      43.833 -18.045   3.233  1.00  0.00     0.035 A 
HETATM   16  C   UNL     1      44.070 -18.122   4.608  1.00  0.00     0.031 A 
HETATM   17  C   UNL     1      44.469 -19.330   5.192  1.00  0.00     0.026 A 
HETATM   18  C   UNL     1      44.638 -20.464   4.403  1.00  0.00     0.034 A 
HETATM   19 CL   UNL     1      45.128 -21.946   5.122  1.00  0.00    -0.084 Cl
HETATM   20  C   UNL     1      44.410 -20.401   3.031  1.00  0.00     0.026 A 
HETATM   21  C   UNL     1      44.010 -19.195   2.450  1.00  0.00     0.031 A 
ENDBRANCH  12  15
ENDBRANCH   6  11
ENDBRANCH   1   5
BRANCH   2  22
HETATM   22  C   UNL     1      42.539 -12.805   6.166  1.00  0.00     0.329 C 
HETATM   23  N   UNL     1      42.075 -11.726   6.898  1.00  0.00    -0.239 N 
HETATM   24  H   UNL     1      41.330 -11.163   6.491  1.00  0.00     0.192 HD
HETATM   25  O   UNL     1      43.414 -13.601   6.474  1.00  0.00    -0.261 OA
BRANCH  23  26
HETATM   26  N   UNL     1      42.630 -11.403   8.097  1.00  0.00    -0.183 NA
HETATM   27  C   UNL     1      41.828 -10.822   8.933  1.00  0.00     0.153 C 
BRANCH  27  28
HETATM   28  C   UNL     1      42.297 -10.385  10.262  1.00  0.00     0.016 A 
HETATM   29  C   UNL     1      43.123 -11.184  11.063  1.00  0.00     0.080 A 
HETATM   30  C   UNL     1      43.565 -10.722  12.300  1.00  0.00     0.074 A 
HETATM   31  C   UNL     1      43.169  -9.461  12.737  1.00  0.00     0.068 A 
HETATM   32  C   UNL     1      42.342  -8.659  11.956  1.00  0.00     0.037 A 
HETATM   33  C   UNL     1      41.906  -9.117  10.711  1.00  0.00     0.018 A 
BRANCH  29  34
HETATM   34  O   UNL     1      43.546 -12.432  10.694  1.00  0.00    -0.360 OA
HETATM   35  H   UNL     1      44.106 -12.344   9.890  1.00  0.00     0.217 HD
ENDBRANCH  29  34
BRANCH  31  36
HETATM   36  O   UNL     1      43.575  -8.967  13.941  1.00  0.00    -0.361 OA
HETATM   37  H   UNL     1      42.793  -8.651  14.425  1.00  0.00     0.217 HD
ENDBRANCH  31  36
ENDBRANCH  27  28
ENDBRANCH  23  26
ENDBRANCH   2  22
TORSDOF 8
ENDMDL
MODEL 5
REMARK VINA RESULT:      -8.7      2.556      3.276
REMARK  8 active torsions:
REMARK  status: ('A' for Active; 'I' for Inactive)
REMARK    1  A    between atoms: C_3  and  C_4 
REMARK       I    between atoms: C_4  and  N_5 
REMARK    2  A    between atoms: N_5  and  C_6 
REMARK    3  A    between atoms: C_14  and  N_15 
REMARK       I    between atoms: N_15  and  C_16 
REMARK    4  A    between atoms: C_16  and  C_17 
REMARK       I    between atoms: C_17  and  N_18 
REMARK    5  A    between atoms: N_18  and  N_19 
REMARK    6  A    between atoms: C_20  and  C_21 
REMARK    7  A    between atoms: C_22  and  O_23 
REMARK    8  A    between atoms: C_25  and  O_26 
ROOT
HETATM    1  N   UNL     1      43.656 -18.219   4.742  1.00  0.00    -0.318 N 
HETATM    2  C   UNL     1      44.337 -17.709   5.825  1.00  0.00     0.315 C 
HETATM    3  O   UNL     1      45.398 -18.087   6.308  1.00  0.00    -0.262 OA
HETATM    4  H   UNL     1      42.815 -17.698   4.463  1.00  0.00     0.169 HD
ENDROOT
BRANCH   1   5
HETATM    5  C   UNL     1      43.960 -19.376   3.988  1.00  0.00     0.051 A 
HETATM    6  C   UNL     1      43.784 -19.367   2.587  1.00  0.00     0.059 A 
HETATM    7  C   UNL     1      44.013 -20.533   1.833  1.00  0.00     0.019 A 
HETATM    8  C   UNL     1      44.456 -21.696   2.458  1.00  0.00     0.001 A 
HETATM    9  C   UNL     1      44.669 -21.701   3.833  1.00  0.00     0.002 A 
HETATM   10  C   UNL     1      44.419 -20.553   4.592  1.00  0.00     0.030 A 
BRANCH   6  11
HETATM   11  C   UNL     1      43.379 -18.114   1.882  1.00  0.00     0.258 C 
HETATM   12  N   UNL     1      42.015 -17.877   1.858  1.00  0.00    -0.323 N 
HETATM   13  H   UNL     1      41.416 -18.595   2.246  1.00  0.00     0.169 HD
HETATM   14  O   UNL     1      44.251 -17.446   1.342  1.00  0.00    -0.267 OA
BRANCH  12  15
HETATM   15  C   UNL     1      41.346 -16.790   1.257  1.00  0.00     0.035 A 
HETATM   16  C   UNL     1      41.577 -16.355  -0.051  1.00  0.00     0.031 A 
HETATM   17  C   UNL     1      40.864 -15.269  -0.573  1.00  0.00     0.026 A 
HETATM   18  C   UNL     1      39.923 -14.611   0.212  1.00  0.00     0.034 A 
HETATM   19 CL   UNL     1      39.049 -13.278  -0.431  1.00  0.00    -0.084 Cl
HETATM   20  C   UNL     1      39.686 -15.030   1.518  1.00  0.00     0.026 A 
HETATM   21  C   UNL     1      40.397 -16.115   2.037  1.00  0.00     0.031 A 
ENDBRANCH  12  15
ENDBRANCH   6  11
ENDBRANCH   1   5
BRANCH   2  22
HETATM   22  C   UNL     1      43.669 -16.463   6.432  1.00  0.00     0.329 C 
HETATM   23  N   UNL     1      42.589 -16.043   5.674  1.00  0.00    -0.239 N 
HETATM   24  H   UNL     1      42.371 -16.569   4.829  1.00  0.00     0.192 HD
HETATM   25  O   UNL     1      44.090 -15.978   7.471  1.00  0.00    -0.261 OA
BRANCH  23  26
HETATM   26  N   UNL     1      41.876 -14.939   6.023  1.00  0.00    -0.183 NA
HETATM   27  C   UNL     1      41.514 -14.185   5.034  1.00  0.00     0.153 C 
BRANCH  27  28
HETATM   28  C   UNL     1      40.762 -12.936   5.262  1.00  0.00     0.016 A 
HETATM   29  C   UNL     1      41.153 -11.994   6.222  1.00  0.00     0.080 A 
HETATM   30  C   UNL     1      40.430 -10.814   6.387  1.00  0.00     0.074 A 
HETATM   31  C   UNL     1      39.309 -10.587   5.595  1.00  0.00     0.068 A 
HETATM   32  C   UNL     1      38.903 -11.518   4.643  1.00  0.00     0.037 A 
HETATM   33  C   UNL     1      39.633 -12.696   4.470  1.00  0.00     0.018 A 
BRANCH  29  34
HETATM   34  O   UNL     1      42.243 -12.157   7.034  1.00  0.00    -0.360 OA
HETATM   35  H   UNL     1      42.280 -13.099   7.316  1.00  0.00     0.217 HD
ENDBRANCH  29  34
BRANCH  31  36
HETATM   36  O   UNL     1      38.569  -9.449   5.721  1.00  0.00    -0.361 OA
HETATM   37  H   UNL     1      38.269  -9.176   4.837  1.00  0.00     0.217 HD
ENDBRANCH  31  36
ENDBRANCH  27  28
ENDBRANCH  23  26
ENDBRANCH   2  22
TORSDOF 8
ENDMDL
MODEL 6
REMARK VINA RESULT:      -8.5      3.776      9.559
REMARK  8 active torsions:
REMARK  status: ('A' for Active; 'I' for Inactive)
REMARK    1  A    between atoms: C_3  and  C_4 
REMARK       I    between atoms: C_4  and  N_5 
REMARK    2  A    between atoms: N_5  and  C_6 
REMARK    3  A    between atoms: C_14  and  N_15 
REMARK       I    between atoms: N_15  and  C_16 
REMARK    4  A    between atoms: C_16  and  C_17 
REMARK       I    between atoms: C_17  and  N_18 
REMARK    5  A    between atoms: N_18  and  N_19 
REMARK    6  A    between atoms: C_20  and  C_21 
REMARK    7  A    between atoms: C_22  and  O_23 
REMARK    8  A    between atoms: C_25  and  O_26 
ROOT
HETATM    1  N   UNL     1      40.850 -13.744   3.573  1.00  0.00    -0.318 N 
HETATM    2  C   UNL     1      42.142 -13.881   3.118  1.00  0.00     0.315 C 
HETATM    3  O   UNL     1      42.801 -13.103   2.439  1.00  0.00    -0.262 OA
HETATM    4  H   UNL     1      40.517 -14.494   4.193  1.00  0.00     0.169 HD
ENDROOT
BRANCH   1   5
HETATM    5  C   UNL     1      39.926 -12.715   3.276  1.00  0.00     0.051 A 
HETATM    6  C   UNL     1      39.353 -11.962   4.324  1.00  0.00     0.059 A 
HETATM    7  C   UNL     1      38.378 -10.985   4.047  1.00  0.00     0.019 A 
HETATM    8  C   UNL     1      38.001 -10.723   2.732  1.00  0.00     0.001 A 
HETATM    9  C   UNL     1      38.590 -11.435   1.692  1.00  0.00     0.002 A 
HETATM   10  C   UNL     1      39.541 -12.425   1.961  1.00  0.00     0.030 A 
BRANCH   6  11
HETATM   11  C   UNL     1      39.792 -12.172   5.735  1.00  0.00     0.258 C 
HETATM   12  N   UNL     1      40.165 -11.020   6.405  1.00  0.00    -0.323 N 
HETATM   13  H   UNL     1      40.180 -10.161   5.869  1.00  0.00     0.169 HD
HETATM   14  O   UNL     1      39.846 -13.319   6.160  1.00  0.00    -0.267 OA
BRANCH  12  15
HETATM   15  C   UNL     1      40.634 -10.914   7.731  1.00  0.00     0.035 A 
HETATM   16  C   UNL     1      39.821 -11.033   8.861  1.00  0.00     0.031 A 
HETATM   17  C   UNL     1      40.368 -10.919  10.144  1.00  0.00     0.026 A 
HETATM   18  C   UNL     1      41.730 -10.682  10.302  1.00  0.00     0.034 A 
HETATM   19 CL   UNL     1      42.401 -10.543  11.879  1.00  0.00    -0.084 Cl
HETATM   20  C   UNL     1      42.552 -10.557   9.186  1.00  0.00     0.026 A 
HETATM   21  C   UNL     1      42.004 -10.672   7.906  1.00  0.00     0.031 A 
ENDBRANCH  12  15
ENDBRANCH   6  11
ENDBRANCH   1   5
BRANCH   2  22
HETATM   22  C   UNL     1      42.825 -15.171   3.607  1.00  0.00     0.329 C 
HETATM   23  N   UNL     1      43.308 -15.924   2.551  1.00  0.00    -0.239 N 
HETATM   24  H   UNL     1      43.155 -15.570   1.607  1.00  0.00     0.192 HD
HETATM   25  O   UNL     1      42.908 -15.414   4.801  1.00  0.00    -0.261 OA
BRANCH  23  26
HETATM   26  N   UNL     1      43.922 -17.118   2.766  1.00  0.00    -0.183 NA
HETATM   27  C   UNL     1      43.159 -18.158   2.641  1.00  0.00     0.153 C 
BRANCH  27  28
HETATM   28  C   UNL     1      43.679 -19.518   2.876  1.00  0.00     0.016 A 
HETATM   29  C   UNL     1      44.373 -19.861   4.044  1.00  0.00     0.080 A 
HETATM   30  C   UNL     1      44.824 -21.165   4.238  1.00  0.00     0.074 A 
HETATM   31  C   UNL     1      44.588 -22.120   3.254  1.00  0.00     0.068 A 
HETATM   32  C   UNL     1      43.908 -21.792   2.085  1.00  0.00     0.037 A 
HETATM   33  C   UNL     1      43.446 -20.488   1.894  1.00  0.00     0.018 A 
BRANCH  29  34
HETATM   34  O   UNL     1      44.640 -18.970   5.048  1.00  0.00    -0.360 OA
HETATM   35  H   UNL     1      45.594 -19.041   5.278  1.00  0.00     0.217 HD
ENDBRANCH  29  34
BRANCH  31  36
HETATM   36  O   UNL     1      45.012 -23.408   3.399  1.00  0.00    -0.361 OA
HETATM   37  H   UNL     1      44.939 -23.654   4.337  1.00  0.00     0.217 HD
ENDBRANCH  31  36
ENDBRANCH  27  28
ENDBRANCH  23  26
ENDBRANCH   2  22
TORSDOF 8
ENDMDL
MODEL 7
REMARK VINA RESULT:      -8.4      3.265      8.062
REMARK  8 active torsions:
REMARK  status: ('A' for Active; 'I' for Inactive)
REMARK    1  A    between atoms: C_3  and  C_4 
REMARK       I    between atoms: C_4  and  N_5 
REMARK    2  A    between atoms: N_5  and  C_6 
REMARK    3  A    between atoms: C_14  and  N_15 
REMARK       I    between atoms: N_15  and  C_16 
REMARK    4  A    between atoms: C_16  and  C_17 
REMARK       I    between atoms: C_17  and  N_18 
REMARK    5  A    between atoms: N_18  and  N_19 
REMARK    6  A    between atoms: C_20  and  C_21 
REMARK    7  A    between atoms: C_22  and  O_23 
REMARK    8  A    between atoms: C_25  and  O_26 
ROOT
HETATM    1  N   UNL     1      41.254 -13.586   5.807  1.00  0.00    -0.318 N 
HETATM    2  C   UNL     1      42.554 -13.823   5.419  1.00  0.00     0.315 C 
HETATM    3  O   UNL     1      43.352 -13.049   4.904  1.00  0.00    -0.262 OA
HETATM    4  H   UNL     1      40.786 -14.364   6.288  1.00  0.00     0.169 HD
ENDROOT
BRANCH   1   5
HETATM    5  C   UNL     1      40.484 -12.416   5.604  1.00  0.00     0.051 A 
HETATM    6  C   UNL     1      39.854 -12.198   4.359  1.00  0.00     0.059 A 
HETATM    7  C   UNL     1      39.146 -11.006   4.119  1.00  0.00     0.019 A 
HETATM    8  C   UNL     1      39.025 -10.048   5.123  1.00  0.00     0.001 A 
HETATM    9  C   UNL     1      39.611 -10.273   6.365  1.00  0.00     0.002 A 
HETATM   10  C   UNL     1      40.337 -11.445   6.602  1.00  0.00     0.030 A 
BRANCH   6  11
HETATM   11  C   UNL     1      39.907 -13.239   3.290  1.00  0.00     0.258 C 
HETATM   12  N   UNL     1      40.350 -12.787   2.060  1.00  0.00    -0.323 N 
HETATM   13  H   UNL     1      40.526 -11.794   1.971  1.00  0.00     0.169 HD
HETATM   14  O   UNL     1      39.506 -14.365   3.559  1.00  0.00    -0.267 OA
BRANCH  12  15
HETATM   15  C   UNL     1      40.488 -13.535   0.872  1.00  0.00     0.035 A 
HETATM   16  C   UNL     1      41.370 -14.607   0.719  1.00  0.00     0.031 A 
HETATM   17  C   UNL     1      41.441 -15.301  -0.495  1.00  0.00     0.026 A 
HETATM   18  C   UNL     1      40.634 -14.920  -1.563  1.00  0.00     0.034 A 
HETATM   19 CL   UNL     1      40.722 -15.773  -3.053  1.00  0.00    -0.084 Cl
HETATM   20  C   UNL     1      39.753 -13.850  -1.427  1.00  0.00     0.026 A 
HETATM   21  C   UNL     1      39.683 -13.160  -0.214  1.00  0.00     0.031 A 
ENDBRANCH  12  15
ENDBRANCH   6  11
ENDBRANCH   1   5
BRANCH   2  22
HETATM   22  C   UNL     1      43.039 -15.243   5.757  1.00  0.00     0.329 C 
HETATM   23  N   UNL     1      42.788 -16.127   4.723  1.00  0.00    -0.239 N 
HETATM   24  H   UNL     1      42.318 -15.766   3.894  1.00  0.00     0.192 HD
HETATM   25  O   UNL     1      43.589 -15.473   6.824  1.00  0.00    -0.261 OA
BRANCH  23  26
HETATM   26  N   UNL     1      43.115 -17.443   4.831  1.00  0.00    -0.183 NA
HETATM   27  C   UNL     1      43.647 -17.965   3.772  1.00  0.00     0.153 C 
BRANCH  27  28
HETATM   28  C   UNL     1      44.024 -19.391   3.730  1.00  0.00     0.016 A 
HETATM   29  C   UNL     1      44.510 -20.068   4.856  1.00  0.00     0.080 A 
HETATM   30  C   UNL     1      44.829 -21.422   4.781  1.00  0.00     0.074 A 
HETATM   31  C   UNL     1      44.671 -22.092   3.571  1.00  0.00     0.068 A 
HETATM   32  C   UNL     1      44.196 -21.431   2.442  1.00  0.00     0.037 A 
HETATM   33  C   UNL     1      43.867 -20.076   2.519  1.00  0.00     0.018 A 
BRANCH  29  34
HETATM   34  O   UNL     1      44.692 -19.468   6.072  1.00  0.00    -0.360 OA
HETATM   35  H   UNL     1      44.840 -18.506   5.924  1.00  0.00     0.217 HD
ENDBRANCH  29  34
BRANCH  31  36
HETATM   36  O   UNL     1      44.971 -23.416   3.448  1.00  0.00    -0.361 OA
HETATM   37  H   UNL     1      44.185 -23.935   3.690  1.00  0.00     0.217 HD
ENDBRANCH  31  36
ENDBRANCH  27  28
ENDBRANCH  23  26
ENDBRANCH   2  22
TORSDOF 8
ENDMDL
MODEL 8
REMARK VINA RESULT:      -8.3      3.576      6.295
REMARK  8 active torsions:
REMARK  status: ('A' for Active; 'I' for Inactive)
REMARK    1  A    between atoms: C_3  and  C_4 
REMARK       I    between atoms: C_4  and  N_5 
REMARK    2  A    between atoms: N_5  and  C_6 
REMARK    3  A    between atoms: C_14  and  N_15 
REMARK       I    between atoms: N_15  and  C_16 
REMARK    4  A    between atoms: C_16  and  C_17 
REMARK       I    between atoms: C_17  and  N_18 
REMARK    5  A    between atoms: N_18  and  N_19 
REMARK    6  A    between atoms: C_20  and  C_21 
REMARK    7  A    between atoms: C_22  and  O_23 
REMARK    8  A    between atoms: C_25  and  O_26 
ROOT
HETATM    1  N   UNL     1      40.230 -12.689   4.375  1.00  0.00    -0.318 N 
HETATM    2  C   UNL     1      39.710 -12.255   5.574  1.00  0.00     0.315 C 
HETATM    3  O   UNL     1      38.538 -12.215   5.930  1.00  0.00    -0.262 OA
HETATM    4  H   UNL     1      41.256 -12.703   4.317  1.00  0.00     0.169 HD
ENDROOT
BRANCH   1   5
HETATM    5  C   UNL     1      39.526 -13.094   3.217  1.00  0.00     0.051 A 
HETATM    6  C   UNL     1      39.723 -14.392   2.694  1.00  0.00     0.059 A 
HETATM    7  C   UNL     1      39.086 -14.783   1.502  1.00  0.00     0.019 A 
HETATM    8  C   UNL     1      38.222 -13.907   0.848  1.00  0.00     0.001 A 
HETATM    9  C   UNL     1      37.994 -12.640   1.378  1.00  0.00     0.002 A 
HETATM   10  C   UNL     1      38.644 -12.236   2.549  1.00  0.00     0.030 A 
BRANCH   6  11
HETATM   11  C   UNL     1      40.586 -15.375   3.414  1.00  0.00     0.258 C 
HETATM   12  N   UNL     1      41.420 -16.120   2.599  1.00  0.00    -0.323 N 
HETATM   13  H   UNL     1      41.323 -15.991   1.599  1.00  0.00     0.169 HD
HETATM   14  O   UNL     1      40.449 -15.488   4.625  1.00  0.00    -0.267 OA
BRANCH  12  15
HETATM   15  C   UNL     1      42.327 -17.126   2.993  1.00  0.00     0.035 A 
HETATM   16  C   UNL     1      43.115 -17.062   4.145  1.00  0.00     0.031 A 
HETATM   17  C   UNL     1      43.988 -18.108   4.467  1.00  0.00     0.026 A 
HETATM   18  C   UNL     1      44.080 -19.220   3.635  1.00  0.00     0.034 A 
HETATM   19 CL   UNL     1      45.151 -20.504   4.032  1.00  0.00    -0.084 Cl
HETATM   20  C   UNL     1      43.304 -19.296   2.482  1.00  0.00     0.026 A 
HETATM   21  C   UNL     1      42.432 -18.251   2.163  1.00  0.00     0.031 A 
ENDBRANCH  12  15
ENDBRANCH   6  11
ENDBRANCH   1   5
BRANCH   2  22
HETATM   22  C   UNL     1      40.788 -11.835   6.588  1.00  0.00     0.329 C 
HETATM   23  N   UNL     1      40.229 -11.319   7.744  1.00  0.00    -0.239 N 
HETATM   24  H   UNL     1      39.212 -11.262   7.793  1.00  0.00     0.192 HD
HETATM   25  O   UNL     1      41.973 -11.992   6.333  1.00  0.00    -0.261 OA
BRANCH  23  26
HETATM   26  N   UNL     1      41.012 -10.862   8.757  1.00  0.00    -0.183 NA
HETATM   27  C   UNL     1      40.536 -11.053   9.947  1.00  0.00     0.153 C 
BRANCH  27  28
HETATM   28  C   UNL     1      41.259 -10.581  11.143  1.00  0.00     0.016 A 
HETATM   29  C   UNL     1      41.028 -11.119  12.416  1.00  0.00     0.080 A 
HETATM   30  C   UNL     1      41.752 -10.663  13.515  1.00  0.00     0.074 A 
HETATM   31  C   UNL     1      42.699  -9.659  13.337  1.00  0.00     0.068 A 
HETATM   32  C   UNL     1      42.934  -9.109  12.080  1.00  0.00     0.037 A 
HETATM   33  C   UNL     1      42.216  -9.572  10.976  1.00  0.00     0.018 A 
BRANCH  29  34
HETATM   34  O   UNL     1      40.111 -12.105  12.659  1.00  0.00    -0.360 OA
HETATM   35  H   UNL     1      40.534 -12.787  13.229  1.00  0.00     0.217 HD
ENDBRANCH  29  34
BRANCH  31  36
HETATM   36  O   UNL     1      43.431  -9.180  14.383  1.00  0.00    -0.361 OA
HETATM   37  H   UNL     1      42.832  -9.021  15.133  1.00  0.00     0.217 HD
ENDBRANCH  31  36
ENDBRANCH  27  28
ENDBRANCH  23  26
ENDBRANCH   2  22
TORSDOF 8
ENDMDL
MODEL 9
REMARK VINA RESULT:      -8.3      4.692      8.719
REMARK  8 active torsions:
REMARK  status: ('A' for Active; 'I' for Inactive)
REMARK    1  A    between atoms: C_3  and  C_4 
REMARK       I    between atoms: C_4  and  N_5 
REMARK    2  A    between atoms: N_5  and  C_6 
REMARK    3  A    between atoms: C_14  and  N_15 
REMARK       I    between atoms: N_15  and  C_16 
REMARK    4  A    between atoms: C_16  and  C_17 
REMARK       I    between atoms: C_17  and  N_18 
REMARK    5  A    between atoms: N_18  and  N_19 
REMARK    6  A    between atoms: C_20  and  C_21 
REMARK    7  A    between atoms: C_22  and  O_23 
REMARK    8  A    between atoms: C_25  and  O_26 
ROOT
HETATM    1  N   UNL     1      40.662 -15.365  -0.284  1.00  0.00    -0.318 N 
HETATM    2  C   UNL     1      41.711 -14.796   0.403  1.00  0.00     0.315 C 
HETATM    3  O   UNL     1      42.151 -13.656   0.320  1.00  0.00    -0.262 OA
HETATM    4  H   UNL     1      40.416 -16.322  -0.003  1.00  0.00     0.169 HD
ENDROOT
BRANCH   1   5
HETATM    5  C   UNL     1      39.904 -14.802  -1.338  1.00  0.00     0.051 A 
HETATM    6  C   UNL     1      38.834 -13.929  -1.043  1.00  0.00     0.059 A 
HETATM    7  C   UNL     1      38.026 -13.420  -2.077  1.00  0.00     0.019 A 
HETATM    8  C   UNL     1      38.300 -13.740  -3.404  1.00  0.00     0.001 A 
HETATM    9  C   UNL     1      39.377 -14.569  -3.704  1.00  0.00     0.002 A 
HETATM   10  C   UNL     1      40.168 -15.099  -2.680  1.00  0.00     0.030 A 
BRANCH   6  11
HETATM   11  C   UNL     1      38.562 -13.512   0.364  1.00  0.00     0.258 C 
HETATM   12  N   UNL     1      39.237 -12.374   0.773  1.00  0.00    -0.323 N 
HETATM   13  H   UNL     1      39.900 -11.973   0.121  1.00  0.00     0.169 HD
HETATM   14  O   UNL     1      37.836 -14.221   1.049  1.00  0.00    -0.267 OA
BRANCH  12  15
HETATM   15  C   UNL     1      39.188 -11.760   2.042  1.00  0.00     0.035 A 
HETATM   16  C   UNL     1      38.119 -10.983   2.496  1.00  0.00     0.031 A 
HETATM   17  C   UNL     1      38.149 -10.413   3.774  1.00  0.00     0.026 A 
HETATM   18  C   UNL     1      39.251 -10.612   4.601  1.00  0.00     0.034 A 
HETATM   19 CL   UNL     1      39.286  -9.911   6.170  1.00  0.00    -0.084 Cl
HETATM   20  C   UNL     1      40.326 -11.379   4.160  1.00  0.00     0.026 A 
HETATM   21  C   UNL     1      40.294 -11.949   2.885  1.00  0.00     0.031 A 
ENDBRANCH  12  15
ENDBRANCH   6  11
ENDBRANCH   1   5
BRANCH   2  22
HETATM   22  C   UNL     1      42.337 -15.739   1.445  1.00  0.00     0.329 C 
HETATM   23  N   UNL     1      43.206 -16.642   0.859  1.00  0.00    -0.239 N 
HETATM   24  H   UNL     1      43.323 -16.599  -0.153  1.00  0.00     0.192 HD
HETATM   25  O   UNL     1      42.062 -15.622   2.630  1.00  0.00    -0.261 OA
BRANCH  23  26
HETATM   26  N   UNL     1      43.844 -17.584   1.604  1.00  0.00    -0.183 NA
HETATM   27  C   UNL     1      43.227 -18.720   1.698  1.00  0.00     0.153 C 
BRANCH  27  28
HETATM   28  C   UNL     1      43.782 -19.826   2.500  1.00  0.00     0.016 A 
HETATM   29  C   UNL     1      44.270 -19.635   3.799  1.00  0.00     0.080 A 
HETATM   30  C   UNL     1      44.763 -20.713   4.533  1.00  0.00     0.074 A 
HETATM   31  C   UNL     1      44.775 -21.979   3.956  1.00  0.00     0.068 A 
HETATM   32  C   UNL     1      44.301 -22.183   2.664  1.00  0.00     0.037 A 
HETATM   33  C   UNL     1      43.798 -21.105   1.931  1.00  0.00     0.018 A 
BRANCH  29  34
HETATM   34  O   UNL     1      44.290 -18.417   4.423  1.00  0.00    -0.360 OA
HETATM   35  H   UNL     1      43.463 -18.326   4.949  1.00  0.00     0.217 HD
ENDBRANCH  29  34
BRANCH  31  36
HETATM   36  O   UNL     1      45.248 -23.063   4.634  1.00  0.00    -0.361 OA
HETATM   37  H   UNL     1      46.090 -23.336   4.232  1.00  0.00     0.217 HD
ENDBRANCH  31  36
ENDBRANCH  27  28
ENDBRANCH  23  26
ENDBRANCH   2  22
TORSDOF 8
ENDMDL
MODEL 10
REMARK VINA RESULT:      -8.3      3.245      8.764
REMARK  8 active torsions:
REMARK  status: ('A' for Active; 'I' for Inactive)
REMARK    1  A    between atoms: C_3  and  C_4 
REMARK       I    between atoms: C_4  and  N_5 
REMARK    2  A    between atoms: N_5  and  C_6 
REMARK    3  A    between atoms: C_14  and  N_15 
REMARK       I    between atoms: N_15  and  C_16 
REMARK    4  A    between atoms: C_16  and  C_17 
REMARK       I    between atoms: C_17  and  N_18 
REMARK    5  A    between atoms: N_18  and  N_19 
REMARK    6  A    between atoms: C_20  and  C_21 
REMARK    7  A    between atoms: C_22  and  O_23 
REMARK    8  A    between atoms: C_25  and  O_26 
ROOT
HETATM    1  N   UNL     1      42.708 -11.621   7.429  1.00  0.00    -0.318 N 
HETATM    2  C   UNL     1      41.364 -11.335   7.346  1.00  0.00     0.315 C 
HETATM    3  O   UNL     1      40.625 -10.874   8.208  1.00  0.00    -0.262 OA
HETATM    4  H   UNL     1      43.148 -11.936   6.555  1.00  0.00     0.169 HD
ENDROOT
BRANCH   1   5
HETATM    5  C   UNL     1      43.544 -11.554   8.568  1.00  0.00     0.051 A 
HETATM    6  C   UNL     1      44.570 -12.509   8.743  1.00  0.00     0.059 A 
HETATM    7  C   UNL     1      45.361 -12.499   9.906  1.00  0.00     0.019 A 
HETATM    8  C   UNL     1      45.167 -11.520  10.878  1.00  0.00     0.001 A 
HETATM    9  C   UNL     1      44.184 -10.553  10.695  1.00  0.00     0.002 A 
HETATM   10  C   UNL     1      43.376 -10.573   9.553  1.00  0.00     0.030 A 
BRANCH   6  11
HETATM   11  C   UNL     1      44.847 -13.525   7.684  1.00  0.00     0.258 C 
HETATM   12  N   UNL     1      43.947 -14.576   7.638  1.00  0.00    -0.323 N 
HETATM   13  H   UNL     1      43.237 -14.605   8.358  1.00  0.00     0.169 HD
HETATM   14  O   UNL     1      45.853 -13.388   7.000  1.00  0.00    -0.267 OA
BRANCH  12  15
HETATM   15  C   UNL     1      43.965 -15.680   6.760  1.00  0.00     0.035 A 
HETATM   16  C   UNL     1      44.612 -16.888   7.034  1.00  0.00     0.031 A 
HETATM   17  C   UNL     1      44.577 -17.938   6.109  1.00  0.00     0.026 A 
HETATM   18  C   UNL     1      43.900 -17.782   4.904  1.00  0.00     0.034 A 
HETATM   19 CL   UNL     1      43.857 -19.072   3.769  1.00  0.00    -0.084 Cl
HETATM   20  C   UNL     1      43.254 -16.583   4.615  1.00  0.00     0.026 A 
HETATM   21  C   UNL     1      43.289 -15.536   5.540  1.00  0.00     0.031 A 
ENDBRANCH  12  15
ENDBRANCH   6  11
ENDBRANCH   1   5
BRANCH   2  22
HETATM   22  C   UNL     1      40.774 -11.586   5.947  1.00  0.00     0.329 C 
HETATM   23  N   UNL     1      41.743 -12.004   5.052  1.00  0.00    -0.239 N 
HETATM   24  H   UNL     1      42.700 -12.083   5.394  1.00  0.00     0.192 HD
HETATM   25  O   UNL     1      39.579 -11.432   5.742  1.00  0.00    -0.261 OA
BRANCH  23  26
HETATM   26  N   UNL     1      41.435 -12.253   3.752  1.00  0.00    -0.183 NA
HETATM   27  C   UNL     1      42.217 -13.096   3.154  1.00  0.00     0.153 C 
BRANCH  27  28
HETATM   28  C   UNL     1      42.025 -13.439   1.733  1.00  0.00     0.016 A 
HETATM   29  C   UNL     1      42.137 -12.486   0.712  1.00  0.00     0.080 A 
HETATM   30  C   UNL     1      41.974 -12.858  -0.621  1.00  0.00     0.074 A 
HETATM   31  C   UNL     1      41.688 -14.185  -0.926  1.00  0.00     0.068 A 
HETATM   32  C   UNL     1      41.565 -15.142   0.077  1.00  0.00     0.037 A 
HETATM   33  C   UNL     1      41.738 -14.772   1.412  1.00  0.00     0.018 A 
BRANCH  29  34
HETATM   34  O   UNL     1      42.414 -11.166   0.944  1.00  0.00    -0.360 OA
HETATM   35  H   UNL     1      42.057 -10.638   0.194  1.00  0.00     0.217 HD
ENDBRANCH  29  34
BRANCH  31  36
HETATM   36  O   UNL     1      41.519 -14.596  -2.215  1.00  0.00    -0.361 OA
HETATM   37  H   UNL     1      42.114 -15.347  -2.381  1.00  0.00     0.217 HD
ENDBRANCH  31  36
ENDBRANCH  27  28
ENDBRANCH  23  26
ENDBRANCH   2  22
TORSDOF 8
ENDMDL
