MODEL 1
REMARK VINA RESULT:      -8.3      0.000      0.000
REMARK  7 active torsions:
REMARK  status: ('A' for Active; 'I' for Inactive)
REMARK    1  A    between atoms: C_3  and  N_4 
REMARK       I    between atoms: N_4  and  C_5 
REMARK    2  A    between atoms: C_5  and  C_6 
REMARK    3  A    between atoms: C_7  and  C_8 
REMARK    4  A    between atoms: C_20  and  C_21 
REMARK    5  A    between atoms: C_21  and  C_22 
REMARK    6  A    between atoms: C_22  and  C_23 
REMARK    7  A    between atoms: C_23  and  O_24 
ROOT
HETATM    1  C   UNL     1      41.345 -15.677   4.573  1.00  0.00     0.062 C 
HETATM    2  C   UNL     1      41.625 -14.415   3.749  1.00  0.00     0.202 C 
HETATM    3  N   UNL     1      41.431 -13.206   4.557  1.00  0.00    -0.083 N 
HETATM    4  C   UNL     1      40.806 -13.195   5.773  1.00  0.00     0.726 A 
HETATM    5  N   UNL     1      40.439 -14.360   6.334  1.00  0.00    -0.192 N 
HETATM    6  N   UNL     1      41.739 -11.956   4.151  1.00  0.00    -0.140 NA
HETATM    7  C   UNL     1      41.201 -11.233   5.144  1.00  0.00     0.166 A 
HETATM    8  N   UNL     1      40.646 -11.960   6.171  1.00  0.00    -0.046 NA
HETATM    9  C   UNL     1      40.719 -15.602   5.778  1.00  0.00     0.037 C 
HETATM   10  C   UNL     1      40.236 -16.786   6.579  1.00  0.00     0.070 C 
HETATM   11  H   UNL     1      39.962 -14.335   7.232  1.00  0.00     0.184 HD
ENDROOT
BRANCH   1  12
HETATM   12  C   UNL     1      41.790 -16.951   3.929  1.00  0.00     0.256 C 
HETATM   13  N   UNL     1      43.079 -17.316   4.242  1.00  0.00    -0.323 N 
HETATM   14  H   UNL     1      43.670 -16.579   4.606  1.00  0.00     0.169 HD
HETATM   15  O   UNL     1      41.076 -17.489   3.093  1.00  0.00    -0.267 OA
BRANCH  13  16
HETATM   16  C   UNL     1      43.735 -18.544   3.994  1.00  0.00     0.041 A 
HETATM   17  C   UNL     1      44.105 -19.057   2.735  1.00  0.00    -0.035 A 
HETATM   18  C   UNL     1      43.820 -18.400   1.413  1.00  0.00     0.050 C 
HETATM   19  C   UNL     1      44.760 -20.307   2.679  1.00  0.00     0.009 A 
HETATM   20  C   UNL     1      44.995 -21.062   3.826  1.00  0.00     0.001 A 
HETATM   21  C   UNL     1      44.578 -20.581   5.057  1.00  0.00     0.002 A 
HETATM   22  C   UNL     1      43.952 -19.336   5.138  1.00  0.00     0.030 A 
ENDBRANCH  13  16
ENDBRANCH   1  12
BRANCH   2  23
HETATM   23  C   UNL     1      40.758 -14.304   2.490  1.00  0.00    -0.026 A 
HETATM   24  C   UNL     1      41.329 -14.234   1.206  1.00  0.00     0.035 A 
HETATM   25  C   UNL     1      40.523 -14.135   0.067  1.00  0.00     0.056 A 
HETATM   26 CL   UNL     1      41.313 -14.042  -1.468  1.00  0.00    -0.083 Cl
HETATM   27  C   UNL     1      39.131 -14.109   0.196  1.00  0.00     0.055 A 
HETATM   28 CL   UNL     1      38.074 -13.984  -1.164  1.00  0.00    -0.083 Cl
HETATM   29  C   UNL     1      38.553 -14.185   1.465  1.00  0.00     0.026 A 
HETATM   30  C   UNL     1      39.359 -14.283   2.604  1.00  0.00     0.011 A 
ENDBRANCH   2  23
BRANCH   7  31
HETATM   31  C   UNL     1      41.110  -9.751   5.100  1.00  0.00     0.085 C 
BRANCH  31  32
HETATM   32  C   UNL     1      39.670  -9.245   5.200  1.00  0.00     0.034 C 
BRANCH  32  33
HETATM   33  C   UNL     1      38.760  -9.809   4.114  1.00  0.00     0.164 C 
BRANCH  33  34
HETATM   34  O   UNL     1      37.967 -10.861   4.651  1.00  0.00    -0.401 OA
HETATM   35  H   UNL     1      37.045 -10.705   4.385  1.00  0.00     0.209 HD
ENDBRANCH  33  34
ENDBRANCH  32  33
ENDBRANCH  31  32
ENDBRANCH   7  31
TORSDOF 7
ENDMDL
MODEL 2
REMARK VINA RESULT:      -8.1      1.428      2.207
REMARK  7 active torsions:
REMARK  status: ('A' for Active; 'I' for Inactive)
REMARK    1  A    between atoms: C_3  and  N_4 
REMARK       I    between atoms: N_4  and  C_5 
REMARK    2  A    between atoms: C_5  and  C_6 
REMARK    3  A    between atoms: C_7  and  C_8 
REMARK    4  A    between atoms: C_20  and  C_21 
REMARK    5  A    between atoms: C_21  and  C_22 
REMARK    6  A    between atoms: C_22  and  C_23 
REMARK    7  A    between atoms: C_23  and  O_24 
ROOT
HETATM    1  C   UNL     1      41.615 -15.128   4.902  1.00  0.00     0.062 C 
HETATM    2  C   UNL     1      41.539 -13.792   4.153  1.00  0.00     0.202 C 
HETATM    3  N   UNL     1      40.674 -12.841   4.861  1.00  0.00    -0.083 N 
HETATM    4  C   UNL     1      39.826 -13.191   5.873  1.00  0.00     0.726 A 
HETATM    5  N   UNL     1      39.848 -14.450   6.345  1.00  0.00    -0.192 N 
HETATM    6  N   UNL     1      40.526 -11.542   4.523  1.00  0.00    -0.140 NA
HETATM    7  C   UNL     1      39.515 -11.189   5.329  1.00  0.00     0.166 A 
HETATM    8  N   UNL     1      39.079 -12.167   6.193  1.00  0.00    -0.046 NA
HETATM    9  C   UNL     1      40.742 -15.419   5.903  1.00  0.00     0.037 C 
HETATM   10  C   UNL     1      40.613 -16.764   6.576  1.00  0.00     0.070 C 
HETATM   11  H   UNL     1      39.201 -14.700   7.088  1.00  0.00     0.184 HD
ENDROOT
BRANCH   1  12
HETATM   12  C   UNL     1      42.688 -16.051   4.419  1.00  0.00     0.256 C 
HETATM   13  N   UNL     1      42.331 -17.379   4.434  1.00  0.00    -0.323 N 
HETATM   14  H   UNL     1      41.542 -17.617   5.023  1.00  0.00     0.169 HD
HETATM   15  O   UNL     1      43.807 -15.612   4.190  1.00  0.00    -0.267 OA
BRANCH  13  16
HETATM   16  C   UNL     1      43.001 -18.481   3.853  1.00  0.00     0.041 A 
HETATM   17  C   UNL     1      44.039 -19.233   4.436  1.00  0.00    -0.035 A 
HETATM   18  C   UNL     1      44.656 -18.963   5.781  1.00  0.00     0.050 C 
HETATM   19  C   UNL     1      44.589 -20.308   3.705  1.00  0.00     0.009 A 
HETATM   20  C   UNL     1      44.173 -20.601   2.409  1.00  0.00     0.001 A 
HETATM   21  C   UNL     1      43.192 -19.823   1.815  1.00  0.00     0.002 A 
HETATM   22  C   UNL     1      42.615 -18.772   2.530  1.00  0.00     0.030 A 
ENDBRANCH  13  16
ENDBRANCH   1  12
BRANCH   2  23
HETATM   23  C   UNL     1      41.038 -13.928   2.712  1.00  0.00    -0.026 A 
HETATM   24  C   UNL     1      39.667 -14.055   2.417  1.00  0.00     0.035 A 
HETATM   25  C   UNL     1      39.226 -14.176   1.095  1.00  0.00     0.056 A 
HETATM   26 CL   UNL     1      37.525 -14.339   0.830  1.00  0.00    -0.083 Cl
HETATM   27  C   UNL     1      40.150 -14.166   0.046  1.00  0.00     0.055 A 
HETATM   28 CL   UNL     1      39.679 -14.315  -1.609  1.00  0.00    -0.083 Cl
HETATM   29  C   UNL     1      41.512 -14.033   0.326  1.00  0.00     0.026 A 
HETATM   30  C   UNL     1      41.953 -13.914   1.647  1.00  0.00     0.011 A 
ENDBRANCH   2  23
BRANCH   7  31
HETATM   31  C   UNL     1      38.834  -9.873   5.234  1.00  0.00     0.085 C 
BRANCH  31  32
HETATM   32  C   UNL     1      39.468  -8.814   6.137  1.00  0.00     0.034 C 
BRANCH  32  33
HETATM   33  C   UNL     1      38.642  -8.519   7.385  1.00  0.00     0.164 C 
BRANCH  33  34
HETATM   34  O   UNL     1      38.463  -9.716   8.135  1.00  0.00    -0.401 OA
HETATM   35  H   UNL     1      37.823  -9.531   8.842  1.00  0.00     0.209 HD
ENDBRANCH  33  34
ENDBRANCH  32  33
ENDBRANCH  31  32
ENDBRANCH   7  31
TORSDOF 7
ENDMDL
MODEL 3
REMARK VINA RESULT:      -8.1      3.382      5.553
REMARK  7 active torsions:
REMARK  status: ('A' for Active; 'I' for Inactive)
REMARK    1  A    between atoms: C_3  and  N_4 
REMARK       I    between atoms: N_4  and  C_5 
REMARK    2  A    between atoms: C_5  and  C_6 
REMARK    3  A    between atoms: C_7  and  C_8 
REMARK    4  A    between atoms: C_20  and  C_21 
REMARK    5  A    between atoms: C_21  and  C_22 
REMARK    6  A    between atoms: C_22  and  C_23 
REMARK    7  A    between atoms: C_23  and  O_24 
ROOT
HETATM    1  C   UNL     1      41.745 -16.586   2.229  1.00  0.00     0.062 C 
HETATM    2  C   UNL     1      40.564 -15.608   2.210  1.00  0.00     0.202 C 
HETATM    3  N   UNL     1      40.290 -15.141   0.846  1.00  0.00    -0.083 N 
HETATM    4  C   UNL     1      41.145 -15.317  -0.205  1.00  0.00     0.726 A 
HETATM    5  N   UNL     1      42.256 -16.054  -0.033  1.00  0.00    -0.192 N 
HETATM    6  N   UNL     1      39.226 -14.389   0.494  1.00  0.00    -0.140 NA
HETATM    7  C   UNL     1      39.545 -14.083  -0.771  1.00  0.00     0.166 A 
HETATM    8  N   UNL     1      40.701 -14.660  -1.244  1.00  0.00    -0.046 NA
HETATM    9  C   UNL     1      42.562 -16.717   1.150  1.00  0.00     0.037 C 
HETATM   10  C   UNL     1      43.848 -17.506   1.128  1.00  0.00     0.070 C 
HETATM   11  H   UNL     1      42.891 -16.163  -0.820  1.00  0.00     0.184 HD
ENDROOT
BRANCH   1  12
HETATM   12  C   UNL     1      41.915 -17.331   3.514  1.00  0.00     0.256 C 
HETATM   13  N   UNL     1      43.093 -17.054   4.169  1.00  0.00    -0.323 N 
HETATM   14  H   UNL     1      43.824 -16.638   3.605  1.00  0.00     0.169 HD
HETATM   15  O   UNL     1      41.112 -18.201   3.821  1.00  0.00    -0.267 OA
BRANCH  13  16
HETATM   16  C   UNL     1      43.474 -17.402   5.486  1.00  0.00     0.041 A 
HETATM   17  C   UNL     1      44.272 -18.498   5.866  1.00  0.00    -0.035 A 
HETATM   18  C   UNL     1      44.828 -19.533   4.927  1.00  0.00     0.050 C 
HETATM   19  C   UNL     1      44.555 -18.687   7.236  1.00  0.00     0.009 A 
HETATM   20  C   UNL     1      44.019 -17.855   8.215  1.00  0.00     0.001 A 
HETATM   21  C   UNL     1      43.187 -16.811   7.844  1.00  0.00     0.002 A 
HETATM   22  C   UNL     1      42.916 -16.590   6.493  1.00  0.00     0.030 A 
ENDBRANCH  13  16
ENDBRANCH   1  12
BRANCH   2  23
HETATM   23  C   UNL     1      40.769 -14.387   3.111  1.00  0.00    -0.026 A 
HETATM   24  C   UNL     1      39.926 -14.131   4.209  1.00  0.00     0.035 A 
HETATM   25  C   UNL     1      40.128 -13.011   5.023  1.00  0.00     0.056 A 
HETATM   26 CL   UNL     1      39.035 -12.771   6.342  1.00  0.00    -0.083 Cl
HETATM   27  C   UNL     1      41.182 -12.133   4.755  1.00  0.00     0.055 A 
HETATM   28 CL   UNL     1      41.490 -10.730   5.714  1.00  0.00    -0.083 Cl
HETATM   29  C   UNL     1      42.030 -12.381   3.673  1.00  0.00     0.026 A 
HETATM   30  C   UNL     1      41.827 -13.499   2.858  1.00  0.00     0.011 A 
ENDBRANCH   2  23
BRANCH   7  31
HETATM   31  C   UNL     1      38.771 -13.110  -1.583  1.00  0.00     0.085 C 
BRANCH  31  32
HETATM   32  C   UNL     1      38.618 -13.547  -3.041  1.00  0.00     0.034 C 
BRANCH  32  33
HETATM   33  C   UNL     1      37.694 -14.748  -3.212  1.00  0.00     0.164 C 
BRANCH  33  34
HETATM   34  O   UNL     1      38.469 -15.938  -3.316  1.00  0.00    -0.401 OA
HETATM   35  H   UNL     1      38.612 -16.117  -4.260  1.00  0.00     0.209 HD
ENDBRANCH  33  34
ENDBRANCH  32  33
ENDBRANCH  31  32
ENDBRANCH   7  31
TORSDOF 7
ENDMDL
MODEL 4
REMARK VINA RESULT:      -7.7      3.767      5.227
REMARK  7 active torsions:
REMARK  status: ('A' for Active; 'I' for Inactive)
REMARK    1  A    between atoms: C_3  and  N_4 
REMARK       I    between atoms: N_4  and  C_5 
REMARK    2  A    between atoms: C_5  and  C_6 
REMARK    3  A    between atoms: C_7  and  C_8 
REMARK    4  A    between atoms: C_20  and  C_21 
REMARK    5  A    between atoms: C_21  and  C_22 
REMARK    6  A    between atoms: C_22  and  C_23 
REMARK    7  A    between atoms: C_23  and  O_24 
ROOT
HETATM    1  C   UNL     1      41.707 -13.799   1.161  1.00  0.00     0.062 C 
HETATM    2  C   UNL     1      42.084 -13.611  -0.313  1.00  0.00     0.202 C 
HETATM    3  N   UNL     1      42.422 -12.211  -0.594  1.00  0.00    -0.083 N 
HETATM    4  C   UNL     1      42.152 -11.177   0.258  1.00  0.00     0.726 A 
HETATM    5  N   UNL     1      41.652 -11.442   1.477  1.00  0.00    -0.192 N 
HETATM    6  N   UNL     1      42.929 -11.765  -1.763  1.00  0.00    -0.140 NA
HETATM    7  C   UNL     1      42.867 -10.439  -1.572  1.00  0.00     0.166 A 
HETATM    8  N   UNL     1      42.424 -10.042  -0.331  1.00  0.00    -0.046 NA
HETATM    9  C   UNL     1      41.450 -12.730   1.960  1.00  0.00     0.037 C 
HETATM   10  C   UNL     1      40.898 -12.809   3.362  1.00  0.00     0.070 C 
HETATM   11  H   UNL     1      41.442 -10.662   2.095  1.00  0.00     0.184 HD
ENDROOT
BRANCH   1  12
HETATM   12  C   UNL     1      41.628 -15.226   1.604  1.00  0.00     0.256 C 
HETATM   13  N   UNL     1      42.852 -15.843   1.720  1.00  0.00    -0.323 N 
HETATM   14  H   UNL     1      43.618 -15.399   1.229  1.00  0.00     0.169 HD
HETATM   15  O   UNL     1      40.538 -15.773   1.692  1.00  0.00    -0.267 OA
BRANCH  13  16
HETATM   16  C   UNL     1      43.160 -17.090   2.312  1.00  0.00     0.041 A 
HETATM   17  C   UNL     1      43.330 -17.346   3.686  1.00  0.00    -0.035 A 
HETATM   18  C   UNL     1      43.259 -16.313   4.777  1.00  0.00     0.050 C 
HETATM   19  C   UNL     1      43.632 -18.663   4.098  1.00  0.00     0.009 A 
HETATM   20  C   UNL     1      43.821 -19.691   3.179  1.00  0.00     0.001 A 
HETATM   21  C   UNL     1      43.710 -19.425   1.823  1.00  0.00     0.002 A 
HETATM   22  C   UNL     1      43.386 -18.136   1.396  1.00  0.00     0.030 A 
ENDBRANCH  13  16
ENDBRANCH   1  12
BRANCH   2  23
HETATM   23  C   UNL     1      40.985 -14.051  -1.285  1.00  0.00    -0.026 A 
HETATM   24  C   UNL     1      39.788 -13.324  -1.423  1.00  0.00     0.035 A 
HETATM   25  C   UNL     1      38.795 -13.739  -2.317  1.00  0.00     0.056 A 
HETATM   26 CL   UNL     1      37.353 -12.790  -2.410  1.00  0.00    -0.083 Cl
HETATM   27  C   UNL     1      38.989 -14.886  -3.093  1.00  0.00     0.055 A 
HETATM   28 CL   UNL     1      37.807 -15.459  -4.214  1.00  0.00    -0.083 Cl
HETATM   29  C   UNL     1      40.176 -15.611  -2.971  1.00  0.00     0.026 A 
HETATM   30  C   UNL     1      41.168 -15.197  -2.076  1.00  0.00     0.011 A 
ENDBRANCH   2  23
BRANCH   7  31
HETATM   31  C   UNL     1      43.154  -9.458  -2.648  1.00  0.00     0.085 C 
BRANCH  31  32
HETATM   32  C   UNL     1      41.890  -8.983  -3.366  1.00  0.00     0.034 C 
BRANCH  32  33
HETATM   33  C   UNL     1      41.642  -9.706  -4.686  1.00  0.00     0.164 C 
BRANCH  33  34
HETATM   34  O   UNL     1      42.853 -10.300  -5.140  1.00  0.00    -0.401 OA
HETATM   35  H   UNL     1      42.987 -11.122  -4.639  1.00  0.00     0.209 HD
ENDBRANCH  33  34
ENDBRANCH  32  33
ENDBRANCH  31  32
ENDBRANCH   7  31
TORSDOF 7
ENDMDL
MODEL 5
REMARK VINA RESULT:      -7.7      3.208      5.018
REMARK  7 active torsions:
REMARK  status: ('A' for Active; 'I' for Inactive)
REMARK    1  A    between atoms: C_3  and  N_4 
REMARK       I    between atoms: N_4  and  C_5 
REMARK    2  A    between atoms: C_5  and  C_6 
REMARK    3  A    between atoms: C_7  and  C_8 
REMARK    4  A    between atoms: C_20  and  C_21 
REMARK    5  A    between atoms: C_21  and  C_22 
REMARK    6  A    between atoms: C_22  and  C_23 
REMARK    7  A    between atoms: C_23  and  O_24 
ROOT
HETATM    1  C   UNL     1      41.796 -16.600   2.449  1.00  0.00     0.062 C 
HETATM    2  C   UNL     1      40.599 -15.661   2.648  1.00  0.00     0.202 C 
HETATM    3  N   UNL     1      40.179 -15.068   1.374  1.00  0.00    -0.083 N 
HETATM    4  C   UNL     1      40.927 -15.111   0.231  1.00  0.00     0.726 A 
HETATM    5  N   UNL     1      42.064 -15.828   0.215  1.00  0.00    -0.192 N 
HETATM    6  N   UNL     1      39.070 -14.316   1.208  1.00  0.00    -0.140 NA
HETATM    7  C   UNL     1      39.254 -13.876  -0.045  1.00  0.00     0.166 A 
HETATM    8  N   UNL     1      40.367 -14.366  -0.686  1.00  0.00    -0.046 NA
HETATM    9  C   UNL     1      42.501 -16.597   1.288  1.00  0.00     0.037 C 
HETATM   10  C   UNL     1      43.794 -17.341   1.057  1.00  0.00     0.070 C 
HETATM   11  H   UNL     1      42.618 -15.838  -0.637  1.00  0.00     0.184 HD
ENDROOT
BRANCH   1  12
HETATM   12  C   UNL     1      42.109 -17.465   3.628  1.00  0.00     0.256 C 
HETATM   13  N   UNL     1      43.118 -16.977   4.427  1.00  0.00    -0.323 N 
HETATM   14  H   UNL     1      43.722 -16.285   4.000  1.00  0.00     0.169 HD
HETATM   15  O   UNL     1      41.583 -18.565   3.730  1.00  0.00    -0.267 OA
BRANCH  13  16
HETATM   16  C   UNL     1      43.515 -17.411   5.712  1.00  0.00     0.041 A 
HETATM   17  C   UNL     1      44.346 -18.509   6.007  1.00  0.00    -0.035 A 
HETATM   18  C   UNL     1      44.928 -19.453   4.991  1.00  0.00     0.050 C 
HETATM   19  C   UNL     1      44.641 -18.793   7.358  1.00  0.00     0.009 A 
HETATM   20  C   UNL     1      44.085 -18.054   8.399  1.00  0.00     0.001 A 
HETATM   21  C   UNL     1      43.221 -17.009   8.109  1.00  0.00     0.002 A 
HETATM   22  C   UNL     1      42.938 -16.695   6.779  1.00  0.00     0.030 A 
ENDBRANCH  13  16
ENDBRANCH   1  12
BRANCH   2  23
HETATM   23  C   UNL     1      40.870 -14.531   3.646  1.00  0.00    -0.026 A 
HETATM   24  C   UNL     1      39.984 -14.253   4.704  1.00  0.00     0.035 A 
HETATM   25  C   UNL     1      40.247 -13.218   5.608  1.00  0.00     0.056 A 
HETATM   26 CL   UNL     1      39.096 -12.942   6.868  1.00  0.00    -0.083 Cl
HETATM   27  C   UNL     1      41.406 -12.449   5.470  1.00  0.00     0.055 A 
HETATM   28 CL   UNL     1      41.794 -11.154   6.545  1.00  0.00    -0.083 Cl
HETATM   29  C   UNL     1      42.297 -12.720   4.429  1.00  0.00     0.026 A 
HETATM   30  C   UNL     1      42.033 -13.753   3.525  1.00  0.00     0.011 A 
ENDBRANCH   2  23
BRANCH   7  31
HETATM   31  C   UNL     1      38.382 -12.849  -0.672  1.00  0.00     0.085 C 
BRANCH  31  32
HETATM   32  C   UNL     1      37.073 -12.641   0.091  1.00  0.00     0.034 C 
BRANCH  32  33
HETATM   33  C   UNL     1      36.830 -11.186   0.480  1.00  0.00     0.164 C 
BRANCH  33  34
HETATM   34  O   UNL     1      35.717 -11.106   1.363  1.00  0.00    -0.401 OA
HETATM   35  H   UNL     1      35.300 -10.238   1.238  1.00  0.00     0.209 HD
ENDBRANCH  33  34
ENDBRANCH  32  33
ENDBRANCH  31  32
ENDBRANCH   7  31
TORSDOF 7
ENDMDL
MODEL 6
REMARK VINA RESULT:      -7.6      3.529      5.473
REMARK  7 active torsions:
REMARK  status: ('A' for Active; 'I' for Inactive)
REMARK    1  A    between atoms: C_3  and  N_4 
REMARK       I    between atoms: N_4  and  C_5 
REMARK    2  A    between atoms: C_5  and  C_6 
REMARK    3  A    between atoms: C_7  and  C_8 
REMARK    4  A    between atoms: C_20  and  C_21 
REMARK    5  A    between atoms: C_21  and  C_22 
REMARK    6  A    between atoms: C_22  and  C_23 
REMARK    7  A    between atoms: C_23  and  O_24 
ROOT
HETATM    1  C   UNL     1      41.612 -16.511   2.200  1.00  0.00     0.062 C 
HETATM    2  C   UNL     1      40.451 -15.509   2.197  1.00  0.00     0.202 C 
HETATM    3  N   UNL     1      40.178 -15.026   0.838  1.00  0.00    -0.083 N 
HETATM    4  C   UNL     1      41.023 -15.211  -0.220  1.00  0.00     0.726 A 
HETATM    5  N   UNL     1      42.120 -15.973  -0.061  1.00  0.00    -0.192 N 
HETATM    6  N   UNL     1      39.128 -14.248   0.498  1.00  0.00    -0.140 NA
HETATM    7  C   UNL     1      39.446 -13.940  -0.767  1.00  0.00     0.166 A 
HETATM    8  N   UNL     1      40.587 -14.537  -1.252  1.00  0.00    -0.046 NA
HETATM    9  C   UNL     1      42.419 -16.650   1.116  1.00  0.00     0.037 C 
HETATM   10  C   UNL     1      43.688 -17.466   1.079  1.00  0.00     0.070 C 
HETATM   11  H   UNL     1      42.747 -16.089  -0.852  1.00  0.00     0.184 HD
ENDROOT
BRANCH   1  12
HETATM   12  C   UNL     1      41.773 -17.269   3.479  1.00  0.00     0.256 C 
HETATM   13  N   UNL     1      42.926 -16.966   4.166  1.00  0.00    -0.323 N 
HETATM   14  H   UNL     1      43.657 -16.519   3.626  1.00  0.00     0.169 HD
HETATM   15  O   UNL     1      40.991 -18.168   3.754  1.00  0.00    -0.267 OA
BRANCH  13  16
HETATM   16  C   UNL     1      43.287 -17.320   5.487  1.00  0.00     0.041 A 
HETATM   17  C   UNL     1      43.357 -16.457   6.597  1.00  0.00    -0.035 A 
HETATM   18  C   UNL     1      43.102 -14.975   6.561  1.00  0.00     0.050 C 
HETATM   19  C   UNL     1      43.734 -16.991   7.849  1.00  0.00     0.009 A 
HETATM   20  C   UNL     1      44.090 -18.329   7.995  1.00  0.00     0.001 A 
HETATM   21  C   UNL     1      44.076 -19.165   6.889  1.00  0.00     0.002 A 
HETATM   22  C   UNL     1      43.681 -18.663   5.648  1.00  0.00     0.030 A 
ENDBRANCH  13  16
ENDBRANCH   1  12
BRANCH   2  23
HETATM   23  C   UNL     1      40.687 -14.298   3.106  1.00  0.00    -0.026 A 
HETATM   24  C   UNL     1      39.905 -14.076   4.255  1.00  0.00     0.035 A 
HETATM   25  C   UNL     1      40.135 -12.966   5.075  1.00  0.00     0.056 A 
HETATM   26 CL   UNL     1      39.118 -12.768   6.459  1.00  0.00    -0.083 Cl
HETATM   27  C   UNL     1      41.156 -12.065   4.761  1.00  0.00     0.055 A 
HETATM   28 CL   UNL     1      41.495 -10.672   5.725  1.00  0.00    -0.083 Cl
HETATM   29  C   UNL     1      41.943 -12.279   3.627  1.00  0.00     0.026 A 
HETATM   30  C   UNL     1      41.712 -13.387   2.806  1.00  0.00     0.011 A 
ENDBRANCH   2  23
BRANCH   7  31
HETATM   31  C   UNL     1      38.687 -12.945  -1.567  1.00  0.00     0.085 C 
BRANCH  31  32
HETATM   32  C   UNL     1      39.576 -11.826  -2.112  1.00  0.00     0.034 C 
BRANCH  32  33
HETATM   33  C   UNL     1      39.744 -11.878  -3.627  1.00  0.00     0.164 C 
BRANCH  33  34
HETATM   34  O   UNL     1      40.186 -13.174  -4.015  1.00  0.00    -0.401 OA
HETATM   35  H   UNL     1      40.754 -13.072  -4.797  1.00  0.00     0.209 HD
ENDBRANCH  33  34
ENDBRANCH  32  33
ENDBRANCH  31  32
ENDBRANCH   7  31
TORSDOF 7
ENDMDL
MODEL 7
REMARK VINA RESULT:      -7.4      3.090      4.525
REMARK  7 active torsions:
REMARK  status: ('A' for Active; 'I' for Inactive)
REMARK    1  A    between atoms: C_3  and  N_4 
REMARK       I    between atoms: N_4  and  C_5 
REMARK    2  A    between atoms: C_5  and  C_6 
REMARK    3  A    between atoms: C_7  and  C_8 
REMARK    4  A    between atoms: C_20  and  C_21 
REMARK    5  A    between atoms: C_21  and  C_22 
REMARK    6  A    between atoms: C_22  and  C_23 
REMARK    7  A    between atoms: C_23  and  O_24 
ROOT
HETATM    1  C   UNL     1      40.946 -16.015   1.679  1.00  0.00     0.062 C 
HETATM    2  C   UNL     1      40.450 -15.422   3.003  1.00  0.00     0.202 C 
HETATM    3  N   UNL     1      39.827 -14.110   2.790  1.00  0.00    -0.083 N 
HETATM    4  C   UNL     1      39.939 -13.393   1.633  1.00  0.00     0.726 A 
HETATM    5  N   UNL     1      40.554 -13.946   0.573  1.00  0.00    -0.192 N 
HETATM    6  N   UNL     1      39.173 -13.410   3.741  1.00  0.00    -0.140 NA
HETATM    7  C   UNL     1      38.984 -12.245   3.106  1.00  0.00     0.166 A 
HETATM    8  N   UNL     1      39.414 -12.207   1.800  1.00  0.00    -0.046 NA
HETATM    9  C   UNL     1      41.035 -15.250   0.559  1.00  0.00     0.037 C 
HETATM   10  C   UNL     1      41.675 -15.682  -0.737  1.00  0.00     0.070 C 
HETATM   11  H   UNL     1      40.644 -13.394  -0.277  1.00  0.00     0.184 HD
ENDROOT
BRANCH   1  12
HETATM   12  C   UNL     1      41.330 -17.459   1.751  1.00  0.00     0.256 C 
HETATM   13  N   UNL     1      42.637 -17.671   2.127  1.00  0.00    -0.323 N 
HETATM   14  H   UNL     1      43.259 -16.878   2.025  1.00  0.00     0.169 HD
HETATM   15  O   UNL     1      40.551 -18.314   1.354  1.00  0.00    -0.267 OA
BRANCH  13  16
HETATM   16  C   UNL     1      43.262 -18.882   2.502  1.00  0.00     0.041 A 
HETATM   17  C   UNL     1      44.045 -19.100   3.652  1.00  0.00    -0.035 A 
HETATM   18  C   UNL     1      44.396 -18.053   4.674  1.00  0.00     0.050 C 
HETATM   19  C   UNL     1      44.591 -20.384   3.867  1.00  0.00     0.009 A 
HETATM   20  C   UNL     1      44.421 -21.415   2.946  1.00  0.00     0.001 A 
HETATM   21  C   UNL     1      43.698 -21.182   1.786  1.00  0.00     0.002 A 
HETATM   22  C   UNL     1      43.128 -19.927   1.567  1.00  0.00     0.030 A 
ENDBRANCH  13  16
ENDBRANCH   1  12
BRANCH   2  23
HETATM   23  C   UNL     1      41.554 -15.271   4.055  1.00  0.00    -0.026 A 
HETATM   24  C   UNL     1      41.569 -16.054   5.224  1.00  0.00     0.035 A 
HETATM   25  C   UNL     1      42.586 -15.905   6.175  1.00  0.00     0.056 A 
HETATM   26 CL   UNL     1      42.515 -16.901   7.586  1.00  0.00    -0.083 Cl
HETATM   27  C   UNL     1      43.607 -14.974   5.965  1.00  0.00     0.055 A 
HETATM   28 CL   UNL     1      44.891 -14.734   7.094  1.00  0.00    -0.083 Cl
HETATM   29  C   UNL     1      43.607 -14.197   4.804  1.00  0.00     0.026 A 
HETATM   30  C   UNL     1      42.590 -14.345   3.855  1.00  0.00     0.011 A 
ENDBRANCH   2  23
BRANCH   7  31
HETATM   31  C   UNL     1      38.444 -11.038   3.784  1.00  0.00     0.085 C 
BRANCH  31  32
HETATM   32  C   UNL     1      38.259  -9.858   2.829  1.00  0.00     0.034 C 
BRANCH  32  33
HETATM   33  C   UNL     1      37.049  -8.995   3.171  1.00  0.00     0.164 C 
BRANCH  33  34
HETATM   34  O   UNL     1      36.399  -9.517   4.324  1.00  0.00    -0.401 OA
HETATM   35  H   UNL     1      36.152 -10.438   4.135  1.00  0.00     0.209 HD
ENDBRANCH  33  34
ENDBRANCH  32  33
ENDBRANCH  31  32
ENDBRANCH   7  31
TORSDOF 7
ENDMDL
MODEL 8
REMARK VINA RESULT:      -7.4      3.987      8.311
REMARK  7 active torsions:
REMARK  status: ('A' for Active; 'I' for Inactive)
REMARK    1  A    between atoms: C_3  and  N_4 
REMARK       I    between atoms: N_4  and  C_5 
REMARK    2  A    between atoms: C_5  and  C_6 
REMARK    3  A    between atoms: C_7  and  C_8 
REMARK    4  A    between atoms: C_20  and  C_21 
REMARK    5  A    between atoms: C_21  and  C_22 
REMARK    6  A    between atoms: C_22  and  C_23 
REMARK    7  A    between atoms: C_23  and  O_24 
ROOT
HETATM    1  C   UNL     1      41.508 -14.030   0.239  1.00  0.00     0.062 C 
HETATM    2  C   UNL     1      42.250 -14.393   1.531  1.00  0.00     0.202 C 
HETATM    3  N   UNL     1      42.504 -15.836   1.603  1.00  0.00    -0.083 N 
HETATM    4  C   UNL     1      41.907 -16.756   0.787  1.00  0.00     0.726 A 
HETATM    5  N   UNL     1      41.124 -16.332  -0.220  1.00  0.00    -0.192 N 
HETATM    6  N   UNL     1      43.261 -16.434   2.547  1.00  0.00    -0.140 NA
HETATM    7  C   UNL     1      43.012 -17.725   2.284  1.00  0.00     0.166 A 
HETATM    8  N   UNL     1      42.209 -17.961   1.192  1.00  0.00    -0.046 NA
HETATM    9  C   UNL     1      40.933 -14.991  -0.531  1.00  0.00     0.037 C 
HETATM   10  C   UNL     1      40.031 -14.730  -1.713  1.00  0.00     0.070 C 
HETATM   11  H   UNL     1      40.674 -17.028  -0.809  1.00  0.00     0.184 HD
ENDROOT
BRANCH   1  12
HETATM   12  C   UNL     1      41.460 -12.565  -0.059  1.00  0.00     0.256 C 
HETATM   13  N   UNL     1      42.568 -12.093  -0.724  1.00  0.00    -0.323 N 
HETATM   14  H   UNL     1      43.392 -12.679  -0.677  1.00  0.00     0.169 HD
HETATM   15  O   UNL     1      40.558 -11.881   0.407  1.00  0.00    -0.267 OA
BRANCH  13  16
HETATM   16  C   UNL     1      42.757 -10.837  -1.344  1.00  0.00     0.041 A 
HETATM   17  C   UNL     1      42.559 -10.535  -2.705  1.00  0.00    -0.035 A 
HETATM   18  C   UNL     1      42.149 -11.524  -3.762  1.00  0.00     0.050 C 
HETATM   19  C   UNL     1      42.795  -9.216  -3.149  1.00  0.00     0.009 A 
HETATM   20  C   UNL     1      43.271  -8.230  -2.289  1.00  0.00     0.001 A 
HETATM   21  C   UNL     1      43.521  -8.543  -0.962  1.00  0.00     0.002 A 
HETATM   22  C   UNL     1      43.269  -9.834  -0.497  1.00  0.00     0.030 A 
ENDBRANCH  13  16
ENDBRANCH   1  12
BRANCH   2  23
HETATM   23  C   UNL     1      41.509 -13.965   2.802  1.00  0.00    -0.026 A 
HETATM   24  C   UNL     1      41.873 -12.807   3.513  1.00  0.00     0.035 A 
HETATM   25  C   UNL     1      41.184 -12.429   4.671  1.00  0.00     0.056 A 
HETATM   26 CL   UNL     1      41.711 -10.998   5.486  1.00  0.00    -0.083 Cl
HETATM   27  C   UNL     1      40.115 -13.203   5.131  1.00  0.00     0.055 A 
HETATM   28 CL   UNL     1      39.221 -12.801   6.553  1.00  0.00    -0.083 Cl
HETATM   29  C   UNL     1      39.739 -14.351   4.429  1.00  0.00     0.026 A 
HETATM   30  C   UNL     1      40.429 -14.729   3.273  1.00  0.00     0.011 A 
ENDBRANCH   2  23
BRANCH   7  31
HETATM   31  C   UNL     1      43.478 -18.829   3.163  1.00  0.00     0.085 C 
BRANCH  31  32
HETATM   32  C   UNL     1      44.354 -19.841   2.424  1.00  0.00     0.034 C 
BRANCH  32  33
HETATM   33  C   UNL     1      43.590 -21.085   1.982  1.00  0.00     0.164 C 
BRANCH  33  34
HETATM   34  O   UNL     1      44.497 -22.170   1.815  1.00  0.00    -0.401 OA
HETATM   35  H   UNL     1      44.348 -22.796   2.543  1.00  0.00     0.209 HD
ENDBRANCH  33  34
ENDBRANCH  32  33
ENDBRANCH  31  32
ENDBRANCH   7  31
TORSDOF 7
ENDMDL
MODEL 9
REMARK VINA RESULT:      -7.2      3.114      4.661
REMARK  7 active torsions:
REMARK  status: ('A' for Active; 'I' for Inactive)
REMARK    1  A    between atoms: C_3  and  N_4 
REMARK       I    between atoms: N_4  and  C_5 
REMARK    2  A    between atoms: C_5  and  C_6 
REMARK    3  A    between atoms: C_7  and  C_8 
REMARK    4  A    between atoms: C_20  and  C_21 
REMARK    5  A    between atoms: C_21  and  C_22 
REMARK    6  A    between atoms: C_22  and  C_23 
REMARK    7  A    between atoms: C_23  and  O_24 
ROOT
HETATM    1  C   UNL     1      41.564 -16.073   2.543  1.00  0.00     0.062 C 
HETATM    2  C   UNL     1      40.781 -15.837   3.840  1.00  0.00     0.202 C 
HETATM    3  N   UNL     1      40.307 -14.450   3.923  1.00  0.00    -0.083 N 
HETATM    4  C   UNL     1      40.752 -13.445   3.111  1.00  0.00     0.726 A 
HETATM    5  N   UNL     1      41.585 -13.737   2.097  1.00  0.00    -0.192 N 
HETATM    6  N   UNL     1      39.473 -13.982   4.875  1.00  0.00    -0.140 NA
HETATM    7  C   UNL     1      39.518 -12.666   4.619  1.00  0.00     0.166 A 
HETATM    8  N   UNL     1      40.269 -12.303   3.525  1.00  0.00    -0.046 NA
HETATM    9  C   UNL     1      41.979 -15.031   1.777  1.00  0.00     0.037 C 
HETATM   10  C   UNL     1      42.904 -15.142   0.589  1.00  0.00     0.070 C 
HETATM   11  H   UNL     1      41.919 -12.976   1.511  1.00  0.00     0.184 HD
ENDROOT
BRANCH   1  12
HETATM   12  C   UNL     1      41.836 -17.512   2.236  1.00  0.00     0.256 C 
HETATM   13  N   UNL     1      43.032 -17.973   2.733  1.00  0.00    -0.323 N 
HETATM   14  H   UNL     1      43.712 -17.263   2.976  1.00  0.00     0.169 HD
HETATM   15  O   UNL     1      41.091 -18.121   1.480  1.00  0.00    -0.267 OA
BRANCH  13  16
HETATM   16  C   UNL     1      43.499 -19.305   2.819  1.00  0.00     0.041 A 
HETATM   17  C   UNL     1      44.228 -19.871   3.882  1.00  0.00    -0.035 A 
HETATM   18  C   UNL     1      44.684 -19.133   5.110  1.00  0.00     0.050 C 
HETATM   19  C   UNL     1      44.608 -21.228   3.796  1.00  0.00     0.009 A 
HETATM   20  C   UNL     1      44.331 -21.996   2.668  1.00  0.00     0.001 A 
HETATM   21  C   UNL     1      43.664 -21.421   1.598  1.00  0.00     0.002 A 
HETATM   22  C   UNL     1      43.255 -20.088   1.673  1.00  0.00     0.030 A 
ENDBRANCH  13  16
ENDBRANCH   1  12
BRANCH   2  23
HETATM   23  C   UNL     1      41.586 -16.152   5.105  1.00  0.00    -0.026 A 
HETATM   24  C   UNL     1      42.716 -15.397   5.467  1.00  0.00     0.035 A 
HETATM   25  C   UNL     1      43.439 -15.697   6.627  1.00  0.00     0.056 A 
HETATM   26 CL   UNL     1      44.821 -14.722   6.986  1.00  0.00    -0.083 Cl
HETATM   27  C   UNL     1      43.037 -16.756   7.447  1.00  0.00     0.055 A 
HETATM   28 CL   UNL     1      43.881 -17.187   8.890  1.00  0.00    -0.083 Cl
HETATM   29  C   UNL     1      41.912 -17.508   7.101  1.00  0.00     0.026 A 
HETATM   30  C   UNL     1      41.191 -17.209   5.941  1.00  0.00     0.011 A 
ENDBRANCH   2  23
BRANCH   7  31
HETATM   31  C   UNL     1      38.892 -11.653   5.507  1.00  0.00     0.085 C 
BRANCH  31  32
HETATM   32  C   UNL     1      39.508 -11.634   6.906  1.00  0.00     0.034 C 
BRANCH  32  33
HETATM   33  C   UNL     1      40.980 -11.231   6.908  1.00  0.00     0.164 C 
BRANCH  33  34
HETATM   34  O   UNL     1      41.130  -9.967   6.271  1.00  0.00    -0.401 OA
HETATM   35  H   UNL     1      42.067  -9.862   6.037  1.00  0.00     0.209 HD
ENDBRANCH  33  34
ENDBRANCH  32  33
ENDBRANCH  31  32
ENDBRANCH   7  31
TORSDOF 7
ENDMDL
MODEL 10
REMARK VINA RESULT:      -7.1      3.688      6.377
REMARK  7 active torsions:
REMARK  status: ('A' for Active; 'I' for Inactive)
REMARK    1  A    between atoms: C_3  and  N_4 
REMARK       I    between atoms: N_4  and  C_5 
REMARK    2  A    between atoms: C_5  and  C_6 
REMARK    3  A    between atoms: C_7  and  C_8 
REMARK    4  A    between atoms: C_20  and  C_21 
REMARK    5  A    between atoms: C_21  and  C_22 
REMARK    6  A    between atoms: C_22  and  C_23 
REMARK    7  A    between atoms: C_23  and  O_24 
ROOT
HETATM    1  C   UNL     1      41.306 -14.472   2.346  1.00  0.00     0.062 C 
HETATM    2  C   UNL     1      42.089 -13.549   3.288  1.00  0.00     0.202 C 
HETATM    3  N   UNL     1      42.707 -14.313   4.378  1.00  0.00    -0.083 N 
HETATM    4  C   UNL     1      42.386 -15.607   4.678  1.00  0.00     0.726 A 
HETATM    5  N   UNL     1      41.542 -16.279   3.875  1.00  0.00    -0.192 N 
HETATM    6  N   UNL     1      43.572 -13.799   5.278  1.00  0.00    -0.140 NA
HETATM    7  C   UNL     1      43.672 -14.822   6.139  1.00  0.00     0.166 A 
HETATM    8  N   UNL     1      42.982 -15.959   5.787  1.00  0.00    -0.046 NA
HETATM    9  C   UNL     1      41.017 -15.752   2.701  1.00  0.00     0.037 C 
HETATM   10  C   UNL     1      40.105 -16.679   1.936  1.00  0.00     0.070 C 
HETATM   11  H   UNL     1      41.301 -17.236   4.120  1.00  0.00     0.184 HD
ENDROOT
BRANCH   1  12
HETATM   12  C   UNL     1      40.887 -13.835   1.060  1.00  0.00     0.256 C 
HETATM   13  N   UNL     1      41.923 -13.610   0.183  1.00  0.00    -0.323 N 
HETATM   14  H   UNL     1      42.851 -13.612   0.588  1.00  0.00     0.169 HD
HETATM   15  O   UNL     1      39.736 -13.440   0.926  1.00  0.00    -0.267 OA
BRANCH  13  16
HETATM   16  C   UNL     1      41.862 -13.236  -1.179  1.00  0.00     0.041 A 
HETATM   17  C   UNL     1      41.376 -14.021  -2.243  1.00  0.00    -0.035 A 
HETATM   18  C   UNL     1      40.871 -15.432  -2.120  1.00  0.00     0.050 C 
HETATM   19  C   UNL     1      41.389 -13.478  -3.546  1.00  0.00     0.009 A 
HETATM   20  C   UNL     1      41.921 -12.218  -3.809  1.00  0.00     0.001 A 
HETATM   21  C   UNL     1      42.453 -11.471  -2.769  1.00  0.00     0.002 A 
HETATM   22  C   UNL     1      42.425 -11.978  -1.469  1.00  0.00     0.030 A 
ENDBRANCH  13  16
ENDBRANCH   1  12
BRANCH   2  23
HETATM   23  C   UNL     1      41.234 -12.433   3.898  1.00  0.00    -0.026 A 
HETATM   24  C   UNL     1      41.422 -11.084   3.545  1.00  0.00     0.035 A 
HETATM   25  C   UNL     1      40.632 -10.077   4.111  1.00  0.00     0.056 A 
HETATM   26 CL   UNL     1      40.942  -8.447   3.626  1.00  0.00    -0.083 Cl
HETATM   27  C   UNL     1      39.636 -10.407   5.034  1.00  0.00     0.055 A 
HETATM   28 CL   UNL     1      38.625  -9.219   5.776  1.00  0.00    -0.083 Cl
HETATM   29  C   UNL     1      39.435 -11.744   5.387  1.00  0.00     0.026 A 
HETATM   30  C   UNL     1      40.226 -12.750   4.823  1.00  0.00     0.011 A 
ENDBRANCH   2  23
BRANCH   7  31
HETATM   31  C   UNL     1      44.388 -14.714   7.435  1.00  0.00     0.085 C 
BRANCH  31  32
HETATM   32  C   UNL     1      45.178 -13.412   7.566  1.00  0.00     0.034 C 
BRANCH  32  33
HETATM   33  C   UNL     1      44.684 -12.522   8.703  1.00  0.00     0.164 C 
BRANCH  33  34
HETATM   34  O   UNL     1      44.200 -13.332   9.768  1.00  0.00    -0.401 OA
HETATM   35  H   UNL     1      44.960 -13.792  10.161  1.00  0.00     0.209 HD
ENDBRANCH  33  34
ENDBRANCH  32  33
ENDBRANCH  31  32
ENDBRANCH   7  31
TORSDOF 7
ENDMDL
