MODEL 1
REMARK VINA RESULT:      -7.9      0.000      0.000
REMARK  6 active torsions:
REMARK  status: ('A' for Active; 'I' for Inactive)
REMARK    1  A    between atoms: C_3  and  N_4 
REMARK    2  A    between atoms: N_4  and  C_5 
REMARK    3  A    between atoms: C_5  and  C_6 
REMARK    4  A    between atoms: N_8  and  C_10 
REMARK    5  A    between atoms: C_10  and  C_11 
REMARK    6  A    between atoms: C_12  and  O_13 
ROOT
HETATM    1  C   UNL     1      44.044 -15.206   6.155  1.00  0.00     0.026 C 
HETATM    2  C   UNL     1      42.520 -15.165   6.185  1.00  0.00     0.241 C 
HETATM    3  N   UNL     1      42.112 -16.595   5.926  1.00  0.00    -0.067 N 
HETATM    4  H   UNL     1      41.369 -16.850   6.605  1.00  0.00     0.280 HD
HETATM    5  C   UNL     1      43.312 -17.480   6.171  1.00  0.00     0.235 C 
HETATM    6  C   UNL     1      44.334 -16.553   6.812  1.00  0.00     0.035 C 
ENDROOT
BRANCH   3   7
HETATM    7  C   UNL     1      41.441 -16.843   4.595  1.00  0.00     0.276 C 
BRANCH   7   8
HETATM    8  C   UNL     1      42.398 -17.287   3.522  1.00  0.00     0.002 A 
HETATM    9  C   UNL     1      43.048 -16.357   2.699  1.00  0.00     0.073 A 
HETATM   10  C   UNL     1      43.913 -16.764   1.686  1.00  0.00     0.038 A 
HETATM   11  C   UNL     1      44.142 -18.125   1.484  1.00  0.00     0.022 A 
HETATM   12  C   UNL     1      43.501 -19.063   2.290  1.00  0.00     0.011 A 
HETATM   13 BR   UNL     1      43.818 -20.906   2.024  1.00  0.00    -0.051 Br
HETATM   14  C   UNL     1      42.628 -18.653   3.300  1.00  0.00     0.030 A 
BRANCH   9  15
HETATM   15  O   UNL     1      42.832 -15.024   2.932  1.00  0.00    -0.360 OA
HETATM   16  H   UNL     1      43.615 -14.537   2.598  1.00  0.00     0.217 HD
ENDBRANCH   9  15
ENDBRANCH   7   8
ENDBRANCH   3   7
BRANCH   1  17
HETATM   17  C   UNL     1      44.699 -14.006   6.852  1.00  0.00     0.100 C 
BRANCH  17  18
HETATM   18  N   UNL     1      44.317 -13.994   8.261  1.00  0.00    -0.279 NA
HETATM   19  H   UNL     1      44.588 -14.854   8.748  1.00  0.00     0.129 HD
BRANCH  18  20
HETATM   20  C   UNL     1      44.551 -12.905   9.102  1.00  0.00     0.079 A 
HETATM   21  C   UNL     1      45.612 -12.033   8.816  1.00  0.00     0.042 A 
HETATM   22  C   UNL     1      45.892 -10.959   9.659  1.00  0.00     0.005 A 
HETATM   23  C   UNL     1      45.127 -10.774  10.800  1.00  0.00     0.017 A 
HETATM   24  C   UNL     1      44.111 -11.675  11.076  1.00  0.00     0.089 A 
HETATM   25  N   UNL     1      43.865 -12.699  10.239  1.00  0.00    -0.357 N 
HETATM   26  H   UNL     1      43.134 -13.350  10.494  1.00  0.00     0.166 HD
ENDBRANCH  18  20
ENDBRANCH  17  18
ENDBRANCH   1  17
TORSDOF 6
ENDMDL
MODEL 2
REMARK VINA RESULT:      -7.9      2.942      6.544
REMARK  6 active torsions:
REMARK  status: ('A' for Active; 'I' for Inactive)
REMARK    1  A    between atoms: C_3  and  N_4 
REMARK    2  A    between atoms: N_4  and  C_5 
REMARK    3  A    between atoms: C_5  and  C_6 
REMARK    4  A    between atoms: N_8  and  C_10 
REMARK    5  A    between atoms: C_10  and  C_11 
REMARK    6  A    between atoms: C_12  and  O_13 
ROOT
HETATM    1  C   UNL     1      42.044 -14.788   5.099  1.00  0.00     0.026 C 
HETATM    2  C   UNL     1      42.247 -15.796   6.224  1.00  0.00     0.241 C 
HETATM    3  N   UNL     1      43.441 -15.264   6.979  1.00  0.00    -0.067 N 
HETATM    4  H   UNL     1      43.228 -15.305   7.995  1.00  0.00     0.280 HD
HETATM    5  C   UNL     1      43.639 -13.818   6.589  1.00  0.00     0.235 C 
HETATM    6  C   UNL     1      42.392 -13.472   5.790  1.00  0.00     0.035 C 
ENDROOT
BRANCH   3   7
HETATM    7  C   UNL     1      44.696 -16.097   6.871  1.00  0.00     0.276 C 
BRANCH   7   8
HETATM    8  C   UNL     1      44.423 -17.573   6.793  1.00  0.00     0.002 A 
HETATM    9  C   UNL     1      43.924 -18.279   7.897  1.00  0.00     0.073 A 
HETATM   10  C   UNL     1      43.695 -19.652   7.839  1.00  0.00     0.038 A 
HETATM   11  C   UNL     1      43.966 -20.344   6.659  1.00  0.00     0.022 A 
HETATM   12  C   UNL     1      44.466 -19.658   5.553  1.00  0.00     0.011 A 
HETATM   13 BR   UNL     1      44.824 -20.593   3.951  1.00  0.00    -0.051 Br
HETATM   14  C   UNL     1      44.702 -18.284   5.616  1.00  0.00     0.030 A 
BRANCH   9  15
HETATM   15  O   UNL     1      43.637 -17.576   9.038  1.00  0.00    -0.360 OA
HETATM   16  H   UNL     1      42.669 -17.635   9.184  1.00  0.00     0.217 HD
ENDBRANCH   9  15
ENDBRANCH   7   8
ENDBRANCH   3   7
BRANCH   1  17
HETATM   17  C   UNL     1      40.636 -14.831   4.488  1.00  0.00     0.100 C 
BRANCH  17  18
HETATM   18  N   UNL     1      40.445 -16.105   3.800  1.00  0.00    -0.279 NA
HETATM   19  H   UNL     1      39.476 -16.247   3.499  1.00  0.00     0.129 HD
BRANCH  18  20
HETATM   20  C   UNL     1      41.301 -16.563   2.799  1.00  0.00     0.079 A 
HETATM   21  C   UNL     1      42.060 -17.723   3.021  1.00  0.00     0.042 A 
HETATM   22  C   UNL     1      42.951 -18.182   2.054  1.00  0.00     0.005 A 
HETATM   23  C   UNL     1      43.102 -17.467   0.876  1.00  0.00     0.017 A 
HETATM   24  C   UNL     1      42.369 -16.305   0.702  1.00  0.00     0.089 A 
HETATM   25  N   UNL     1      41.514 -15.892   1.654  1.00  0.00    -0.357 N 
HETATM   26  H   UNL     1      41.021 -15.021   1.499  1.00  0.00     0.166 HD
ENDBRANCH  18  20
ENDBRANCH  17  18
ENDBRANCH   1  17
TORSDOF 6
ENDMDL
MODEL 3
REMARK VINA RESULT:      -7.8      2.271      2.800
REMARK  6 active torsions:
REMARK  status: ('A' for Active; 'I' for Inactive)
REMARK    1  A    between atoms: C_3  and  N_4 
REMARK    2  A    between atoms: N_4  and  C_5 
REMARK    3  A    between atoms: C_5  and  C_6 
REMARK    4  A    between atoms: N_8  and  C_10 
REMARK    5  A    between atoms: C_10  and  C_11 
REMARK    6  A    between atoms: C_12  and  O_13 
ROOT
HETATM    1  C   UNL     1      44.257 -15.998   7.026  1.00  0.00     0.026 C 
HETATM    2  C   UNL     1      43.781 -16.833   5.843  1.00  0.00     0.241 C 
HETATM    3  N   UNL     1      43.665 -18.229   6.405  1.00  0.00    -0.067 N 
HETATM    4  H   UNL     1      42.762 -18.633   6.089  1.00  0.00     0.280 HD
HETATM    5  C   UNL     1      43.645 -18.130   7.912  1.00  0.00     0.235 C 
HETATM    6  C   UNL     1      43.502 -16.641   8.187  1.00  0.00     0.035 C 
ENDROOT
BRANCH   3   7
HETATM    7  C   UNL     1      44.674 -19.222   5.878  1.00  0.00     0.276 C 
BRANCH   7   8
HETATM    8  C   UNL     1      44.418 -19.627   4.453  1.00  0.00     0.002 A 
HETATM    9  C   UNL     1      44.587 -20.953   4.032  1.00  0.00     0.073 A 
HETATM   10  C   UNL     1      44.380 -21.328   2.707  1.00  0.00     0.038 A 
HETATM   11  C   UNL     1      43.992 -20.365   1.774  1.00  0.00     0.022 A 
HETATM   12  C   UNL     1      43.823 -19.041   2.174  1.00  0.00     0.011 A 
HETATM   13 BR   UNL     1      43.289 -17.739   0.915  1.00  0.00    -0.051 Br
HETATM   14  C   UNL     1      44.040 -18.667   3.501  1.00  0.00     0.030 A 
BRANCH   9  15
HETATM   15  O   UNL     1      44.940 -21.889   4.969  1.00  0.00    -0.360 OA
HETATM   16  H   UNL     1      44.556 -21.606   5.826  1.00  0.00     0.217 HD
ENDBRANCH   9  15
ENDBRANCH   7   8
ENDBRANCH   3   7
BRANCH   1  17
HETATM   17  C   UNL     1      43.997 -14.495   6.855  1.00  0.00     0.100 C 
BRANCH  17  18
HETATM   18  N   UNL     1      45.143 -13.744   7.361  1.00  0.00    -0.279 NA
HETATM   19  H   UNL     1      45.706 -13.334   6.610  1.00  0.00     0.129 HD
BRANCH  18  20
HETATM   20  C   UNL     1      45.047 -12.825   8.407  1.00  0.00     0.079 A 
HETATM   21  C   UNL     1      46.081 -11.896   8.602  1.00  0.00     0.042 A 
HETATM   22  C   UNL     1      46.029 -10.992   9.660  1.00  0.00     0.005 A 
HETATM   23  C   UNL     1      44.957 -11.034  10.538  1.00  0.00     0.017 A 
HETATM   24  C   UNL     1      43.972 -11.989  10.343  1.00  0.00     0.089 A 
HETATM   25  N   UNL     1      44.050 -12.844   9.308  1.00  0.00    -0.357 N 
HETATM   26  H   UNL     1      43.325 -13.545   9.220  1.00  0.00     0.166 HD
ENDBRANCH  18  20
ENDBRANCH  17  18
ENDBRANCH   1  17
TORSDOF 6
ENDMDL
MODEL 4
REMARK VINA RESULT:      -7.8      5.234      8.773
REMARK  6 active torsions:
REMARK  status: ('A' for Active; 'I' for Inactive)
REMARK    1  A    between atoms: C_3  and  N_4 
REMARK    2  A    between atoms: N_4  and  C_5 
REMARK    3  A    between atoms: C_5  and  C_6 
REMARK    4  A    between atoms: N_8  and  C_10 
REMARK    5  A    between atoms: C_10  and  C_11 
REMARK    6  A    between atoms: C_12  and  O_13 
ROOT
HETATM    1  C   UNL     1      41.600 -14.937   0.993  1.00  0.00     0.026 C 
HETATM    2  C   UNL     1      42.561 -16.119   1.073  1.00  0.00     0.241 C 
HETATM    3  N   UNL     1      42.070 -16.908   2.263  1.00  0.00    -0.067 N 
HETATM    4  H   UNL     1      42.045 -17.912   2.000  1.00  0.00     0.280 HD
HETATM    5  C   UNL     1      40.663 -16.459   2.579  1.00  0.00     0.235 C 
HETATM    6  C   UNL     1      40.276 -15.582   1.397  1.00  0.00     0.035 C 
ENDROOT
BRANCH   3   7
HETATM    7  C   UNL     1      42.988 -16.904   3.462  1.00  0.00     0.276 C 
BRANCH   7   8
HETATM    8  C   UNL     1      43.638 -18.236   3.715  1.00  0.00     0.002 A 
HETATM    9  C   UNL     1      44.329 -18.493   4.908  1.00  0.00     0.073 A 
HETATM   10  C   UNL     1      44.957 -19.716   5.135  1.00  0.00     0.038 A 
HETATM   11  C   UNL     1      44.898 -20.710   4.158  1.00  0.00     0.022 A 
HETATM   12  C   UNL     1      44.219 -20.470   2.966  1.00  0.00     0.011 A 
HETATM   13 BR   UNL     1      44.129 -21.819   1.647  1.00  0.00    -0.051 Br
HETATM   14  C   UNL     1      43.597 -19.241   2.736  1.00  0.00     0.030 A 
BRANCH   9  15
HETATM   15  O   UNL     1      44.351 -17.515   5.866  1.00  0.00    -0.360 OA
HETATM   16  H   UNL     1      45.096 -17.714   6.473  1.00  0.00     0.217 HD
ENDBRANCH   9  15
ENDBRANCH   7   8
ENDBRANCH   3   7
BRANCH   1  17
HETATM   17  C   UNL     1      41.582 -14.258  -0.383  1.00  0.00     0.100 C 
BRANCH  17  18
HETATM   18  N   UNL     1      41.356 -15.264  -1.417  1.00  0.00    -0.279 NA
HETATM   19  H   UNL     1      41.561 -16.214  -1.093  1.00  0.00     0.129 HD
BRANCH  18  20
HETATM   20  C   UNL     1      40.206 -15.294  -2.208  1.00  0.00     0.079 A 
HETATM   21  C   UNL     1      40.178 -16.113  -3.347  1.00  0.00     0.042 A 
HETATM   22  C   UNL     1      39.058 -16.135  -4.175  1.00  0.00     0.005 A 
HETATM   23  C   UNL     1      37.977 -15.319  -3.878  1.00  0.00     0.017 A 
HETATM   24  C   UNL     1      38.051 -14.492  -2.768  1.00  0.00     0.089 A 
HETATM   25  N   UNL     1      39.145 -14.498  -1.988  1.00  0.00    -0.357 N 
HETATM   26  H   UNL     1      39.170 -13.857  -1.205  1.00  0.00     0.166 HD
ENDBRANCH  18  20
ENDBRANCH  17  18
ENDBRANCH   1  17
TORSDOF 6
ENDMDL
MODEL 5
REMARK VINA RESULT:      -7.5      4.627      8.122
REMARK  6 active torsions:
REMARK  status: ('A' for Active; 'I' for Inactive)
REMARK    1  A    between atoms: C_3  and  N_4 
REMARK    2  A    between atoms: N_4  and  C_5 
REMARK    3  A    between atoms: C_5  and  C_6 
REMARK    4  A    between atoms: N_8  and  C_10 
REMARK    5  A    between atoms: C_10  and  C_11 
REMARK    6  A    between atoms: C_12  and  O_13 
ROOT
HETATM    1  C   UNL     1      40.374 -14.984   2.246  1.00  0.00     0.026 C 
HETATM    2  C   UNL     1      40.812 -16.445   2.255  1.00  0.00     0.241 C 
HETATM    3  N   UNL     1      41.769 -16.531   3.420  1.00  0.00    -0.067 N 
HETATM    4  H   UNL     1      41.534 -17.380   3.970  1.00  0.00     0.280 HD
HETATM    5  C   UNL     1      41.557 -15.318   4.295  1.00  0.00     0.235 C 
HETATM    6  C   UNL     1      40.298 -14.671   3.739  1.00  0.00     0.035 C 
ENDROOT
BRANCH   3   7
HETATM    7  C   UNL     1      43.215 -16.766   3.051  1.00  0.00     0.276 C 
BRANCH   7   8
HETATM    8  C   UNL     1      43.723 -18.116   3.475  1.00  0.00     0.002 A 
HETATM    9  C   UNL     1      44.208 -18.336   4.772  1.00  0.00     0.073 A 
HETATM   10  C   UNL     1      44.706 -19.577   5.161  1.00  0.00     0.038 A 
HETATM   11  C   UNL     1      44.723 -20.628   4.245  1.00  0.00     0.022 A 
HETATM   12  C   UNL     1      44.247 -20.426   2.951  1.00  0.00     0.011 A 
HETATM   13 BR   UNL     1      44.259 -21.852   1.711  1.00  0.00    -0.051 Br
HETATM   14  C   UNL     1      43.757 -19.179   2.560  1.00  0.00     0.030 A 
BRANCH   9  15
HETATM   15  O   UNL     1      44.157 -17.299   5.666  1.00  0.00    -0.360 OA
HETATM   16  H   UNL     1      44.600 -16.529   5.249  1.00  0.00     0.217 HD
ENDBRANCH   9  15
ENDBRANCH   7   8
ENDBRANCH   3   7
BRANCH   1  17
HETATM   17  C   UNL     1      39.067 -14.745   1.480  1.00  0.00     0.100 C 
BRANCH  17  18
HETATM   18  N   UNL     1      39.333 -13.901   0.318  1.00  0.00    -0.279 NA
HETATM   19  H   UNL     1      40.062 -13.204   0.498  1.00  0.00     0.129 HD
BRANCH  18  20
HETATM   20  C   UNL     1      39.505 -14.413  -0.969  1.00  0.00     0.079 A 
HETATM   21  C   UNL     1      40.767 -14.892  -1.354  1.00  0.00     0.042 A 
HETATM   22  C   UNL     1      40.978 -15.375  -2.643  1.00  0.00     0.005 A 
HETATM   23  C   UNL     1      39.933 -15.354  -3.555  1.00  0.00     0.017 A 
HETATM   24  C   UNL     1      38.710 -14.839  -3.157  1.00  0.00     0.089 A 
HETATM   25  N   UNL     1      38.540 -14.385  -1.903  1.00  0.00    -0.357 N 
HETATM   26  H   UNL     1      37.639 -13.989  -1.663  1.00  0.00     0.166 HD
ENDBRANCH  18  20
ENDBRANCH  17  18
ENDBRANCH   1  17
TORSDOF 6
ENDMDL
MODEL 6
REMARK VINA RESULT:      -7.4      4.120      7.070
REMARK  6 active torsions:
REMARK  status: ('A' for Active; 'I' for Inactive)
REMARK    1  A    between atoms: C_3  and  N_4 
REMARK    2  A    between atoms: N_4  and  C_5 
REMARK    3  A    between atoms: C_5  and  C_6 
REMARK    4  A    between atoms: N_8  and  C_10 
REMARK    5  A    between atoms: C_10  and  C_11 
REMARK    6  A    between atoms: C_12  and  O_13 
ROOT
HETATM    1  C   UNL     1      41.544 -15.805   1.977  1.00  0.00     0.026 C 
HETATM    2  C   UNL     1      40.909 -16.406   3.226  1.00  0.00     0.241 C 
HETATM    3  N   UNL     1      39.847 -15.405   3.614  1.00  0.00    -0.067 N 
HETATM    4  H   UNL     1      38.975 -15.924   3.835  1.00  0.00     0.280 HD
HETATM    5  C   UNL     1      39.586 -14.511   2.424  1.00  0.00     0.235 C 
HETATM    6  C   UNL     1      40.336 -15.179   1.283  1.00  0.00     0.035 C 
ENDROOT
BRANCH   3   7
HETATM    7  C   UNL     1      40.112 -14.646   4.893  1.00  0.00     0.276 C 
BRANCH   7   8
HETATM    8  C   UNL     1      41.252 -15.213   5.693  1.00  0.00     0.002 A 
HETATM    9  C   UNL     1      41.115 -16.416   6.400  1.00  0.00     0.073 A 
HETATM   10  C   UNL     1      42.158 -16.932   7.166  1.00  0.00     0.038 A 
HETATM   11  C   UNL     1      43.368 -16.241   7.232  1.00  0.00     0.022 A 
HETATM   12  C   UNL     1      43.519 -15.042   6.539  1.00  0.00     0.011 A 
HETATM   13 BR   UNL     1      45.160 -14.110   6.620  1.00  0.00    -0.051 Br
HETATM   14  C   UNL     1      42.470 -14.522   5.779  1.00  0.00     0.030 A 
BRANCH   9  15
HETATM   15  O   UNL     1      39.929 -17.095   6.299  1.00  0.00    -0.360 OA
HETATM   16  H   UNL     1      40.055 -17.972   6.720  1.00  0.00     0.217 HD
ENDBRANCH   9  15
ENDBRANCH   7   8
ENDBRANCH   3   7
BRANCH   1  17
HETATM   17  C   UNL     1      42.305 -16.830   1.127  1.00  0.00     0.100 C 
BRANCH  17  18
HETATM   18  N   UNL     1      43.625 -17.058   1.708  1.00  0.00    -0.279 NA
HETATM   19  H   UNL     1      44.026 -16.209   2.118  1.00  0.00     0.129 HD
BRANCH  18  20
HETATM   20  C   UNL     1      43.911 -18.141   2.541  1.00  0.00     0.079 A 
HETATM   21  C   UNL     1      44.001 -17.936   3.926  1.00  0.00     0.042 A 
HETATM   22  C   UNL     1      44.322 -18.990   4.778  1.00  0.00     0.005 A 
HETATM   23  C   UNL     1      44.578 -20.243   4.242  1.00  0.00     0.017 A 
HETATM   24  C   UNL     1      44.519 -20.405   2.867  1.00  0.00     0.089 A 
HETATM   25  N   UNL     1      44.203 -19.367   2.073  1.00  0.00    -0.357 N 
HETATM   26  H   UNL     1      44.200 -19.522   1.073  1.00  0.00     0.166 HD
ENDBRANCH  18  20
ENDBRANCH  17  18
ENDBRANCH   1  17
TORSDOF 6
ENDMDL
MODEL 7
REMARK VINA RESULT:      -7.3      2.169      3.812
REMARK  6 active torsions:
REMARK  status: ('A' for Active; 'I' for Inactive)
REMARK    1  A    between atoms: C_3  and  N_4 
REMARK    2  A    between atoms: N_4  and  C_5 
REMARK    3  A    between atoms: C_5  and  C_6 
REMARK    4  A    between atoms: N_8  and  C_10 
REMARK    5  A    between atoms: C_10  and  C_11 
REMARK    6  A    between atoms: C_12  and  O_13 
ROOT
HETATM    1  C   UNL     1      44.913 -12.432   8.598  1.00  0.00     0.026 C 
HETATM    2  C   UNL     1      44.244 -13.759   8.257  1.00  0.00     0.241 C 
HETATM    3  N   UNL     1      44.833 -14.131   6.918  1.00  0.00    -0.067 N 
HETATM    4  H   UNL     1      45.100 -15.134   6.948  1.00  0.00     0.280 HD
HETATM    5  C   UNL     1      46.081 -13.308   6.707  1.00  0.00     0.235 C 
HETATM    6  C   UNL     1      46.324 -12.644   8.054  1.00  0.00     0.035 C 
ENDROOT
BRANCH   3   7
HETATM    7  C   UNL     1      43.872 -14.081   5.754  1.00  0.00     0.276 C 
BRANCH   7   8
HETATM    8  C   UNL     1      43.112 -15.364   5.557  1.00  0.00     0.002 A 
HETATM    9  C   UNL     1      41.759 -15.469   5.909  1.00  0.00     0.073 A 
HETATM   10  C   UNL     1      41.059 -16.663   5.755  1.00  0.00     0.038 A 
HETATM   11  C   UNL     1      41.713 -17.781   5.237  1.00  0.00     0.022 A 
HETATM   12  C   UNL     1      43.059 -17.695   4.885  1.00  0.00     0.011 A 
HETATM   13 BR   UNL     1      43.943 -19.205   4.174  1.00  0.00    -0.051 Br
HETATM   14  C   UNL     1      43.761 -16.500   5.048  1.00  0.00     0.030 A 
BRANCH   9  15
HETATM   15  O   UNL     1      41.128 -14.352   6.389  1.00  0.00    -0.360 OA
HETATM   16  H   UNL     1      41.618 -14.056   7.185  1.00  0.00     0.217 HD
ENDBRANCH   9  15
ENDBRANCH   7   8
ENDBRANCH   3   7
BRANCH   1  17
HETATM   17  C   UNL     1      44.853 -12.085  10.091  1.00  0.00     0.100 C 
BRANCH  17  18
HETATM   18  N   UNL     1      43.464 -12.108  10.540  1.00  0.00    -0.279 NA
HETATM   19  H   UNL     1      43.087 -13.058  10.601  1.00  0.00     0.129 HD
BRANCH  18  20
HETATM   20  C   UNL     1      43.007 -11.369  11.633  1.00  0.00     0.079 A 
HETATM   21  C   UNL     1      43.808 -10.338  12.147  1.00  0.00     0.042 A 
HETATM   22  C   UNL     1      43.394  -9.609  13.260  1.00  0.00     0.005 A 
HETATM   23  C   UNL     1      42.193  -9.929  13.873  1.00  0.00     0.017 A 
HETATM   24  C   UNL     1      41.443 -10.979  13.366  1.00  0.00     0.089 A 
HETATM   25  N   UNL     1      41.870 -11.659  12.288  1.00  0.00    -0.357 N 
HETATM   26  H   UNL     1      41.307 -12.438  11.968  1.00  0.00     0.166 HD
ENDBRANCH  18  20
ENDBRANCH  17  18
ENDBRANCH   1  17
TORSDOF 6
ENDMDL
MODEL 8
REMARK VINA RESULT:      -7.3      5.750      8.020
REMARK  6 active torsions:
REMARK  status: ('A' for Active; 'I' for Inactive)
REMARK    1  A    between atoms: C_3  and  N_4 
REMARK    2  A    between atoms: N_4  and  C_5 
REMARK    3  A    between atoms: C_5  and  C_6 
REMARK    4  A    between atoms: N_8  and  C_10 
REMARK    5  A    between atoms: C_10  and  C_11 
REMARK    6  A    between atoms: C_12  and  O_13 
ROOT
HETATM    1  C   UNL     1      41.781 -17.075   3.090  1.00  0.00     0.026 C 
HETATM    2  C   UNL     1      42.542 -16.460   1.920  1.00  0.00     0.241 C 
HETATM    3  N   UNL     1      41.529 -15.552   1.264  1.00  0.00    -0.067 N 
HETATM    4  H   UNL     1      41.988 -14.642   1.065  1.00  0.00     0.280 HD
HETATM    5  C   UNL     1      40.402 -15.318   2.242  1.00  0.00     0.235 C 
HETATM    6  C   UNL     1      40.913 -15.906   3.549  1.00  0.00     0.035 C 
ENDROOT
BRANCH   3   7
HETATM    7  C   UNL     1      41.060 -15.991  -0.103  1.00  0.00     0.276 C 
BRANCH   7   8
HETATM    8  C   UNL     1      41.251 -14.939  -1.161  1.00  0.00     0.002 A 
HETATM    9  C   UNL     1      40.826 -15.149  -2.480  1.00  0.00     0.073 A 
HETATM   10  C   UNL     1      41.026 -14.189  -3.469  1.00  0.00     0.038 A 
HETATM   11  C   UNL     1      41.661 -12.990  -3.145  1.00  0.00     0.022 A 
HETATM   12  C   UNL     1      42.094 -12.767  -1.840  1.00  0.00     0.011 A 
HETATM   13 BR   UNL     1      42.945 -11.140  -1.397  1.00  0.00    -0.051 Br
HETATM   14  C   UNL     1      41.900 -13.733  -0.851  1.00  0.00     0.030 A 
BRANCH   9  15
HETATM   15  O   UNL     1      40.178 -16.320  -2.772  1.00  0.00    -0.360 OA
HETATM   16  H   UNL     1      40.214 -16.884  -1.969  1.00  0.00     0.217 HD
ENDBRANCH   9  15
ENDBRANCH   7   8
ENDBRANCH   3   7
BRANCH   1  17
HETATM   17  C   UNL     1      42.698 -17.651   4.177  1.00  0.00     0.100 C 
BRANCH  17  18
HETATM   18  N   UNL     1      43.915 -18.172   3.561  1.00  0.00    -0.279 NA
HETATM   19  H   UNL     1      44.765 -17.777   3.974  1.00  0.00     0.129 HD
BRANCH  18  20
HETATM   20  C   UNL     1      44.121 -19.530   3.316  1.00  0.00     0.079 A 
HETATM   21  C   UNL     1      43.694 -20.081   2.098  1.00  0.00     0.042 A 
HETATM   22  C   UNL     1      43.852 -21.441   1.842  1.00  0.00     0.005 A 
HETATM   23  C   UNL     1      44.413 -22.254   2.815  1.00  0.00     0.017 A 
HETATM   24  C   UNL     1      44.788 -21.688   4.023  1.00  0.00     0.089 A 
HETATM   25  N   UNL     1      44.625 -20.371   4.236  1.00  0.00    -0.357 N 
HETATM   26  H   UNL     1      44.885 -20.004   5.143  1.00  0.00     0.166 HD
ENDBRANCH  18  20
ENDBRANCH  17  18
ENDBRANCH   1  17
TORSDOF 6
ENDMDL
MODEL 9
REMARK VINA RESULT:      -7.2      5.092      7.791
REMARK  6 active torsions:
REMARK  status: ('A' for Active; 'I' for Inactive)
REMARK    1  A    between atoms: C_3  and  N_4 
REMARK    2  A    between atoms: N_4  and  C_5 
REMARK    3  A    between atoms: C_5  and  C_6 
REMARK    4  A    between atoms: N_8  and  C_10 
REMARK    5  A    between atoms: C_10  and  C_11 
REMARK    6  A    between atoms: C_12  and  O_13 
ROOT
HETATM    1  C   UNL     1      42.024 -16.189   3.287  1.00  0.00     0.026 C 
HETATM    2  C   UNL     1      42.092 -16.090   1.767  1.00  0.00     0.241 C 
HETATM    3  N   UNL     1      42.281 -14.615   1.506  1.00  0.00    -0.067 N 
HETATM    4  H   UNL     1      43.030 -14.504   0.796  1.00  0.00     0.280 HD
HETATM    5  C   UNL     1      42.735 -13.963   2.791  1.00  0.00     0.235 C 
HETATM    6  C   UNL     1      43.038 -15.132   3.716  1.00  0.00     0.035 C 
ENDROOT
BRANCH   3   7
HETATM    7  C   UNL     1      41.106 -13.920   0.858  1.00  0.00     0.276 C 
BRANCH   7   8
HETATM    8  C   UNL     1      41.198 -13.876  -0.642  1.00  0.00     0.002 A 
HETATM    9  C   UNL     1      42.044 -12.967  -1.292  1.00  0.00     0.073 A 
HETATM   10  C   UNL     1      42.111 -12.903  -2.682  1.00  0.00     0.038 A 
HETATM   11  C   UNL     1      41.323 -13.762  -3.448  1.00  0.00     0.022 A 
HETATM   12  C   UNL     1      40.474 -14.669  -2.818  1.00  0.00     0.011 A 
HETATM   13 BR   UNL     1      39.414 -15.840  -3.854  1.00  0.00    -0.051 Br
HETATM   14  C   UNL     1      40.402 -14.726  -1.425  1.00  0.00     0.030 A 
BRANCH   9  15
HETATM   15  O   UNL     1      42.831 -12.151  -0.522  1.00  0.00    -0.360 OA
HETATM   16  H   UNL     1      42.387 -12.050   0.347  1.00  0.00     0.217 HD
ENDBRANCH   9  15
ENDBRANCH   7   8
ENDBRANCH   3   7
BRANCH   1  17
HETATM   17  C   UNL     1      42.313 -17.599   3.820  1.00  0.00     0.100 C 
BRANCH  17  18
HETATM   18  N   UNL     1      43.605 -18.054   3.315  1.00  0.00    -0.279 NA
HETATM   19  H   UNL     1      44.392 -17.589   3.776  1.00  0.00     0.129 HD
BRANCH  18  20
HETATM   20  C   UNL     1      43.918 -19.402   3.135  1.00  0.00     0.079 A 
HETATM   21  C   UNL     1      43.493 -20.055   1.968  1.00  0.00     0.042 A 
HETATM   22  C   UNL     1      43.758 -21.410   1.779  1.00  0.00     0.005 A 
HETATM   23  C   UNL     1      44.426 -22.115   2.768  1.00  0.00     0.017 A 
HETATM   24  C   UNL     1      44.799 -21.451   3.925  1.00  0.00     0.089 A 
HETATM   25  N   UNL     1      44.530 -20.143   4.074  1.00  0.00    -0.357 N 
HETATM   26  H   UNL     1      44.793 -19.704   4.948  1.00  0.00     0.166 HD
ENDBRANCH  18  20
ENDBRANCH  17  18
ENDBRANCH   1  17
TORSDOF 6
ENDMDL
MODEL 10
REMARK VINA RESULT:      -7.1      4.855      7.386
REMARK  6 active torsions:
REMARK  status: ('A' for Active; 'I' for Inactive)
REMARK    1  A    between atoms: C_3  and  N_4 
REMARK    2  A    between atoms: N_4  and  C_5 
REMARK    3  A    between atoms: C_5  and  C_6 
REMARK    4  A    between atoms: N_8  and  C_10 
REMARK    5  A    between atoms: C_10  and  C_11 
REMARK    6  A    between atoms: C_12  and  O_13 
ROOT
HETATM    1  C   UNL     1      42.392 -17.647   5.208  1.00  0.00     0.026 C 
HETATM    2  C   UNL     1      42.645 -17.381   3.728  1.00  0.00     0.241 C 
HETATM    3  N   UNL     1      41.675 -16.276   3.386  1.00  0.00    -0.067 N 
HETATM    4  H   UNL     1      42.181 -15.560   2.830  1.00  0.00     0.280 HD
HETATM    5  C   UNL     1      41.208 -15.642   4.675  1.00  0.00     0.235 C 
HETATM    6  C   UNL     1      42.117 -16.242   5.737  1.00  0.00     0.035 C 
ENDROOT
BRANCH   3   7
HETATM    7  C   UNL     1      40.545 -16.672   2.464  1.00  0.00     0.276 C 
BRANCH   7   8
HETATM    8  C   UNL     1      40.262 -15.648   1.400  1.00  0.00     0.002 A 
HETATM    9  C   UNL     1      41.144 -15.450   0.328  1.00  0.00     0.073 A 
HETATM   10  C   UNL     1      40.901 -14.484  -0.645  1.00  0.00     0.038 A 
HETATM   11  C   UNL     1      39.755 -13.694  -0.556  1.00  0.00     0.022 A 
HETATM   12  C   UNL     1      38.869 -13.874   0.504  1.00  0.00     0.011 A 
HETATM   13 BR   UNL     1      37.312 -12.812   0.619  1.00  0.00    -0.051 Br
HETATM   14  C   UNL     1      39.119 -14.837   1.482  1.00  0.00     0.030 A 
BRANCH   9  15
HETATM   15  O   UNL     1      42.249 -16.256   0.244  1.00  0.00    -0.360 OA
HETATM   16  H   UNL     1      41.949 -17.136  -0.069  1.00  0.00     0.217 HD
ENDBRANCH   9  15
ENDBRANCH   7   8
ENDBRANCH   3   7
BRANCH   1  17
HETATM   17  C   UNL     1      43.552 -18.372   5.903  1.00  0.00     0.100 C 
BRANCH  17  18
HETATM   18  N   UNL     1      44.508 -18.832   4.900  1.00  0.00    -0.279 NA
HETATM   19  H   UNL     1      45.469 -18.547   5.114  1.00  0.00     0.129 HD
BRANCH  18  20
HETATM   20  C   UNL     1      44.523 -20.138   4.408  1.00  0.00     0.079 A 
HETATM   21  C   UNL     1      44.721 -21.204   5.298  1.00  0.00     0.042 A 
HETATM   22  C   UNL     1      44.778 -22.515   4.829  1.00  0.00     0.005 A 
HETATM   23  C   UNL     1      44.663 -22.756   3.469  1.00  0.00     0.017 A 
HETATM   24  C   UNL     1      44.508 -21.679   2.611  1.00  0.00     0.089 A 
HETATM   25  N   UNL     1      44.453 -20.426   3.097  1.00  0.00    -0.357 N 
HETATM   26  H   UNL     1      44.369 -19.667   2.433  1.00  0.00     0.166 HD
ENDBRANCH  18  20
ENDBRANCH  17  18
ENDBRANCH   1  17
TORSDOF 6
ENDMDL
