MODEL 1
REMARK VINA RESULT:      -9.4      0.000      0.000
REMARK  6 active torsions:
REMARK  status: ('A' for Active; 'I' for Inactive)
REMARK    1  A    between atoms: C_4  and  O_5 
REMARK    2  A    between atoms: O_5  and  C_6 
REMARK    3  A    between atoms: C_6  and  C_7 
REMARK       I    between atoms: C_7  and  N_8 
REMARK    4  A    between atoms: N_8  and  N_9 
REMARK       I    between atoms: N_9  and  C_10 
REMARK    5  A    between atoms: C_10  and  C_11 
REMARK    6  A    between atoms: C_12  and  C_13 
ROOT
HETATM    1  N   UNL     1      44.268 -13.958   6.100  1.00  0.00    -0.263 N 
HETATM    2  C   UNL     1      44.645 -13.954   7.431  1.00  0.00     0.274 C 
HETATM    3  O   UNL     1      44.212 -14.788   8.224  1.00  0.00    -0.266 OA
HETATM    4  H   UNL     1      44.859 -13.499   5.408  1.00  0.00     0.190 HD
ENDROOT
BRANCH   1   5
HETATM    5  N   UNL     1      43.560 -15.083   5.628  1.00  0.00    -0.265 N 
HETATM    6  C   UNL     1      43.303 -15.128   4.267  1.00  0.00     0.260 C 
HETATM    7  O   UNL     1      43.551 -14.175   3.529  1.00  0.00    -0.269 OA
HETATM    8  H   UNL     1      43.689 -15.936   6.171  1.00  0.00     0.190 HD
BRANCH   6   9
HETATM    9  C   UNL     1      42.674 -16.437   3.799  1.00  0.00     0.280 C 
BRANCH   9  10
HETATM   10  O   UNL     1      43.562 -17.049   2.865  1.00  0.00    -0.342 OA
BRANCH  10  11
HETATM   11  C   UNL     1      43.856 -18.346   3.179  1.00  0.00     0.069 A 
HETATM   12  C   UNL     1      43.808 -19.381   2.243  1.00  0.00     0.043 A 
HETATM   13  C   UNL     1      44.177 -20.681   2.613  1.00  0.00    -0.059 A 
HETATM   14  C   UNL     1      44.173 -21.792   1.606  1.00  0.00     0.048 C 
HETATM   15  C   UNL     1      44.626 -20.919   3.919  1.00  0.00     0.007 A 
HETATM   16  C   UNL     1      44.694 -19.876   4.845  1.00  0.00     0.003 A 
HETATM   17  C   UNL     1      44.318 -18.588   4.470  1.00  0.00     0.037 A 
ENDBRANCH  10  11
ENDBRANCH   9  10
ENDBRANCH   6   9
ENDBRANCH   1   5
BRANCH   2  18
HETATM   18  C   UNL     1      45.589 -12.908   7.792  1.00  0.00     0.081 A 
HETATM   19  C   UNL     1      45.450 -11.865   8.764  1.00  0.00     0.104 A 
HETATM   20  N   UNL     1      46.522 -11.053   8.750  1.00  0.00    -0.174 NA
HETATM   21  N   UNL     1      47.335 -11.574   7.827  1.00  0.00    -0.288 N 
HETATM   22  H   UNL     1      48.222 -11.110   7.653  1.00  0.00     0.188 HD
HETATM   23  C   UNL     1      46.831 -12.684   7.224  1.00  0.00     0.128 A 
BRANCH  19  24
HETATM   24  C   UNL     1      44.362 -11.617   9.711  1.00  0.00    -0.004 A 
HETATM   25  C   UNL     1      43.187 -10.968   9.311  1.00  0.00     0.015 A 
HETATM   26  C   UNL     1      42.148 -10.756  10.223  1.00  0.00     0.024 A 
HETATM   27  C   UNL     1      42.277 -11.200  11.536  1.00  0.00     0.034 A 
HETATM   28 CL   UNL     1      40.996 -10.940  12.656  1.00  0.00    -0.084 Cl
HETATM   29  C   UNL     1      43.433 -11.859  11.948  1.00  0.00     0.024 A 
HETATM   30  C   UNL     1      44.471 -12.071  11.035  1.00  0.00     0.015 A 
ENDBRANCH  19  24
ENDBRANCH   2  18
TORSDOF 6
ENDMDL
MODEL 2
REMARK VINA RESULT:      -8.6      3.308      9.539
REMARK  6 active torsions:
REMARK  status: ('A' for Active; 'I' for Inactive)
REMARK    1  A    between atoms: C_4  and  O_5 
REMARK    2  A    between atoms: O_5  and  C_6 
REMARK    3  A    between atoms: C_6  and  C_7 
REMARK       I    between atoms: C_7  and  N_8 
REMARK    4  A    between atoms: N_8  and  N_9 
REMARK       I    between atoms: N_9  and  C_10 
REMARK    5  A    between atoms: C_10  and  C_11 
REMARK    6  A    between atoms: C_12  and  C_13 
ROOT
HETATM    1  N   UNL     1      43.960 -14.640   5.887  1.00  0.00    -0.263 N 
HETATM    2  C   UNL     1      42.798 -15.251   5.449  1.00  0.00     0.274 C 
HETATM    3  O   UNL     1      41.906 -15.570   6.233  1.00  0.00    -0.266 OA
HETATM    4  H   UNL     1      44.521 -14.097   5.230  1.00  0.00     0.190 HD
ENDROOT
BRANCH   1   5
HETATM    5  N   UNL     1      43.992 -14.182   7.219  1.00  0.00    -0.265 N 
HETATM    6  C   UNL     1      45.069 -13.387   7.577  1.00  0.00     0.260 C 
HETATM    7  O   UNL     1      46.020 -13.205   6.817  1.00  0.00    -0.269 OA
HETATM    8  H   UNL     1      43.081 -14.068   7.662  1.00  0.00     0.190 HD
BRANCH   6   9
HETATM    9  C   UNL     1      44.966 -12.799   8.981  1.00  0.00     0.280 C 
BRANCH   9  10
HETATM   10  O   UNL     1      44.813 -11.386   8.863  1.00  0.00    -0.342 OA
BRANCH  10  11
HETATM   11  C   UNL     1      43.882 -10.875   9.723  1.00  0.00     0.069 A 
HETATM   12  C   UNL     1      44.175 -10.550  11.049  1.00  0.00     0.043 A 
HETATM   13  C   UNL     1      43.192  -9.975  11.866  1.00  0.00    -0.059 A 
HETATM   14  C   UNL     1      43.507  -9.580  13.278  1.00  0.00     0.048 C 
HETATM   15  C   UNL     1      41.928  -9.703  11.326  1.00  0.00     0.007 A 
HETATM   16  C   UNL     1      41.648 -10.008   9.993  1.00  0.00     0.003 A 
HETATM   17  C   UNL     1      42.629 -10.586   9.190  1.00  0.00     0.037 A 
ENDBRANCH  10  11
ENDBRANCH   9  10
ENDBRANCH   6   9
ENDBRANCH   1   5
BRANCH   2  18
HETATM   18  C   UNL     1      42.726 -15.460   4.012  1.00  0.00     0.081 A 
HETATM   19  C   UNL     1      43.134 -16.598   3.246  1.00  0.00     0.104 A 
HETATM   20  N   UNL     1      42.964 -16.375   1.930  1.00  0.00    -0.174 NA
HETATM   21  N   UNL     1      42.436 -15.151   1.855  1.00  0.00    -0.288 N 
HETATM   22  H   UNL     1      42.221 -14.777   0.936  1.00  0.00     0.188 HD
HETATM   23  C   UNL     1      42.268 -14.557   3.068  1.00  0.00     0.128 A 
BRANCH  19  24
HETATM   24  C   UNL     1      43.656 -17.887   3.702  1.00  0.00    -0.004 A 
HETATM   25  C   UNL     1      43.792 -18.171   5.068  1.00  0.00     0.015 A 
HETATM   26  C   UNL     1      44.273 -19.415   5.490  1.00  0.00     0.024 A 
HETATM   27  C   UNL     1      44.613 -20.382   4.548  1.00  0.00     0.034 A 
HETATM   28 CL   UNL     1      45.203 -21.912   5.069  1.00  0.00    -0.084 Cl
HETATM   29  C   UNL     1      44.473 -20.121   3.186  1.00  0.00     0.024 A 
HETATM   30  C   UNL     1      43.990 -18.878   2.766  1.00  0.00     0.015 A 
ENDBRANCH  19  24
ENDBRANCH   2  18
TORSDOF 6
ENDMDL
MODEL 3
REMARK VINA RESULT:      -8.5      3.412      9.373
REMARK  6 active torsions:
REMARK  status: ('A' for Active; 'I' for Inactive)
REMARK    1  A    between atoms: C_4  and  O_5 
REMARK    2  A    between atoms: O_5  and  C_6 
REMARK    3  A    between atoms: C_6  and  C_7 
REMARK       I    between atoms: C_7  and  N_8 
REMARK    4  A    between atoms: N_8  and  N_9 
REMARK       I    between atoms: N_9  and  C_10 
REMARK    5  A    between atoms: C_10  and  C_11 
REMARK    6  A    between atoms: C_12  and  C_13 
ROOT
HETATM    1  N   UNL     1      42.704 -14.672   4.718  1.00  0.00    -0.263 N 
HETATM    2  C   UNL     1      41.387 -15.090   4.777  1.00  0.00     0.274 C 
HETATM    3  O   UNL     1      40.723 -14.977   5.807  1.00  0.00    -0.266 OA
HETATM    4  H   UNL     1      43.127 -14.465   3.813  1.00  0.00     0.190 HD
ENDROOT
BRANCH   1   5
HETATM    5  N   UNL     1      43.192 -13.901   5.793  1.00  0.00    -0.265 N 
HETATM    6  C   UNL     1      44.093 -14.521   6.644  1.00  0.00     0.260 C 
HETATM    7  O   UNL     1      44.348 -15.722   6.553  1.00  0.00    -0.269 OA
HETATM    8  H   UNL     1      43.228 -12.896   5.625  1.00  0.00     0.190 HD
BRANCH   6   9
HETATM    9  C   UNL     1      44.698 -13.590   7.690  1.00  0.00     0.280 C 
BRANCH   9  10
HETATM   10  O   UNL     1      43.917 -12.398   7.732  1.00  0.00    -0.342 OA
BRANCH  10  11
HETATM   11  C   UNL     1      44.067 -11.702   8.898  1.00  0.00     0.069 A 
HETATM   12  C   UNL     1      43.071 -10.872   9.418  1.00  0.00     0.043 A 
HETATM   13  C   UNL     1      43.264 -10.229  10.649  1.00  0.00    -0.059 A 
HETATM   14  C   UNL     1      42.184  -9.373  11.240  1.00  0.00     0.048 C 
HETATM   15  C   UNL     1      44.449 -10.456  11.360  1.00  0.00     0.007 A 
HETATM   16  C   UNL     1      45.432 -11.305  10.847  1.00  0.00     0.003 A 
HETATM   17  C   UNL     1      45.235 -11.934   9.620  1.00  0.00     0.037 A 
ENDBRANCH  10  11
ENDBRANCH   9  10
ENDBRANCH   6   9
ENDBRANCH   1   5
BRANCH   2  18
HETATM   18  C   UNL     1      40.869 -15.646   3.537  1.00  0.00     0.081 A 
HETATM   19  C   UNL     1      41.275 -16.830   2.843  1.00  0.00     0.104 A 
HETATM   20  N   UNL     1      40.594 -16.965   1.690  1.00  0.00    -0.174 NA
HETATM   21  N   UNL     1      39.759 -15.924   1.661  1.00  0.00    -0.288 N 
HETATM   22  H   UNL     1      39.137 -15.830   0.863  1.00  0.00     0.188 HD
HETATM   23  C   UNL     1      39.876 -15.103   2.740  1.00  0.00     0.128 A 
BRANCH  19  24
HETATM   24  C   UNL     1      42.258 -17.844   3.229  1.00  0.00    -0.004 A 
HETATM   25  C   UNL     1      43.083 -18.452   2.274  1.00  0.00     0.015 A 
HETATM   26  C   UNL     1      44.032 -19.404   2.661  1.00  0.00     0.024 A 
HETATM   27  C   UNL     1      44.165 -19.745   4.004  1.00  0.00     0.034 A 
HETATM   28 CL   UNL     1      45.335 -20.914   4.478  1.00  0.00    -0.084 Cl
HETATM   29  C   UNL     1      43.361 -19.140   4.968  1.00  0.00     0.024 A 
HETATM   30  C   UNL     1      42.414 -18.188   4.580  1.00  0.00     0.015 A 
ENDBRANCH  19  24
ENDBRANCH   2  18
TORSDOF 6
ENDMDL
MODEL 4
REMARK VINA RESULT:      -8.4      5.412      8.529
REMARK  6 active torsions:
REMARK  status: ('A' for Active; 'I' for Inactive)
REMARK    1  A    between atoms: C_4  and  O_5 
REMARK    2  A    between atoms: O_5  and  C_6 
REMARK    3  A    between atoms: C_6  and  C_7 
REMARK       I    between atoms: C_7  and  N_8 
REMARK    4  A    between atoms: N_8  and  N_9 
REMARK       I    between atoms: N_9  and  C_10 
REMARK    5  A    between atoms: C_10  and  C_11 
REMARK    6  A    between atoms: C_12  and  C_13 
ROOT
HETATM    1  N   UNL     1      41.367 -15.304   3.855  1.00  0.00    -0.263 N 
HETATM    2  C   UNL     1      42.746 -15.423   3.847  1.00  0.00     0.274 C 
HETATM    3  O   UNL     1      43.418 -15.032   2.894  1.00  0.00    -0.266 OA
HETATM    4  H   UNL     1      40.867 -15.318   4.744  1.00  0.00     0.190 HD
ENDROOT
BRANCH   1   5
HETATM    5  N   UNL     1      40.776 -14.512   2.850  1.00  0.00    -0.265 N 
HETATM    6  C   UNL     1      39.950 -15.165   1.950  1.00  0.00     0.260 C 
HETATM    7  O   UNL     1      39.848 -16.391   1.938  1.00  0.00    -0.269 OA
HETATM    8  H   UNL     1      40.617 -13.536   3.103  1.00  0.00     0.190 HD
BRANCH   6   9
HETATM    9  C   UNL     1      39.222 -14.232   0.987  1.00  0.00     0.280 C 
BRANCH   9  10
HETATM   10  O   UNL     1      40.135 -13.849  -0.039  1.00  0.00    -0.342 OA
BRANCH  10  11
HETATM   11  C   UNL     1      39.859 -14.429  -1.245  1.00  0.00     0.069 A 
HETATM   12  C   UNL     1      38.668 -14.203  -1.938  1.00  0.00     0.043 A 
HETATM   13  C   UNL     1      38.468 -14.783  -3.199  1.00  0.00    -0.059 A 
HETATM   14  C   UNL     1      37.213 -14.511  -3.974  1.00  0.00     0.048 C 
HETATM   15  C   UNL     1      39.488 -15.559  -3.764  1.00  0.00     0.007 A 
HETATM   16  C   UNL     1      40.686 -15.763  -3.076  1.00  0.00     0.003 A 
HETATM   17  C   UNL     1      40.873 -15.190  -1.821  1.00  0.00     0.037 A 
ENDBRANCH  10  11
ENDBRANCH   9  10
ENDBRANCH   6   9
ENDBRANCH   1   5
BRANCH   2  18
HETATM   18  C   UNL     1      43.312 -16.023   5.044  1.00  0.00     0.081 A 
HETATM   19  C   UNL     1      43.746 -17.371   5.257  1.00  0.00     0.104 A 
HETATM   20  N   UNL     1      44.147 -17.549   6.529  1.00  0.00    -0.174 NA
HETATM   21  N   UNL     1      44.006 -16.351   7.104  1.00  0.00    -0.288 N 
HETATM   22  H   UNL     1      44.259 -16.257   8.082  1.00  0.00     0.188 HD
HETATM   23  C   UNL     1      43.514 -15.401   6.264  1.00  0.00     0.128 A 
BRANCH  19  24
HETATM   24  C   UNL     1      43.817 -18.485   4.310  1.00  0.00    -0.004 A 
HETATM   25  C   UNL     1      43.055 -18.486   3.135  1.00  0.00     0.015 A 
HETATM   26  C   UNL     1      43.147 -19.548   2.230  1.00  0.00     0.024 A 
HETATM   27  C   UNL     1      44.010 -20.609   2.493  1.00  0.00     0.034 A 
HETATM   28 CL   UNL     1      44.124 -21.914   1.377  1.00  0.00    -0.084 Cl
HETATM   29  C   UNL     1      44.785 -20.618   3.650  1.00  0.00     0.024 A 
HETATM   30  C   UNL     1      44.691 -19.555   4.554  1.00  0.00     0.015 A 
ENDBRANCH  19  24
ENDBRANCH   2  18
TORSDOF 6
ENDMDL
MODEL 5
REMARK VINA RESULT:      -8.3      5.288      8.253
REMARK  6 active torsions:
REMARK  status: ('A' for Active; 'I' for Inactive)
REMARK    1  A    between atoms: C_4  and  O_5 
REMARK    2  A    between atoms: O_5  and  C_6 
REMARK    3  A    between atoms: C_6  and  C_7 
REMARK       I    between atoms: C_7  and  N_8 
REMARK    4  A    between atoms: N_8  and  N_9 
REMARK       I    between atoms: N_9  and  C_10 
REMARK    5  A    between atoms: C_10  and  C_11 
REMARK    6  A    between atoms: C_12  and  C_13 
ROOT
HETATM    1  N   UNL     1      42.664 -15.614   4.918  1.00  0.00    -0.263 N 
HETATM    2  C   UNL     1      42.037 -16.669   5.556  1.00  0.00     0.274 C 
HETATM    3  O   UNL     1      40.885 -16.996   5.276  1.00  0.00    -0.266 OA
HETATM    4  H   UNL     1      43.683 -15.562   4.912  1.00  0.00     0.190 HD
ENDROOT
BRANCH   1   5
HETATM    5  N   UNL     1      42.033 -15.075   3.778  1.00  0.00    -0.265 N 
HETATM    6  C   UNL     1      42.804 -14.254   2.971  1.00  0.00     0.260 C 
HETATM    7  O   UNL     1      43.934 -13.897   3.303  1.00  0.00    -0.269 OA
HETATM    8  H   UNL     1      41.280 -15.643   3.389  1.00  0.00     0.190 HD
BRANCH   6   9
HETATM    9  C   UNL     1      42.114 -13.831   1.678  1.00  0.00     0.280 C 
BRANCH   9  10
HETATM   10  O   UNL     1      41.872 -15.001   0.899  1.00  0.00    -0.342 OA
BRANCH  10  11
HETATM   11  C   UNL     1      41.654 -14.727  -0.422  1.00  0.00     0.069 A 
HETATM   12  C   UNL     1      42.057 -13.534  -1.025  1.00  0.00     0.043 A 
HETATM   13  C   UNL     1      41.857 -13.337  -2.398  1.00  0.00    -0.059 A 
HETATM   14  C   UNL     1      42.327 -12.079  -3.066  1.00  0.00     0.048 C 
HETATM   15  C   UNL     1      41.279 -14.362  -3.158  1.00  0.00     0.007 A 
HETATM   16  C   UNL     1      40.898 -15.562  -2.555  1.00  0.00     0.003 A 
HETATM   17  C   UNL     1      41.095 -15.747  -1.189  1.00  0.00     0.037 A 
ENDBRANCH  10  11
ENDBRANCH   9  10
ENDBRANCH   6   9
ENDBRANCH   1   5
BRANCH   2  18
HETATM   18  C   UNL     1      42.852 -17.348   6.552  1.00  0.00     0.081 A 
HETATM   19  C   UNL     1      43.626 -18.545   6.418  1.00  0.00     0.104 A 
HETATM   20  N   UNL     1      44.184 -18.887   7.593  1.00  0.00    -0.174 NA
HETATM   21  N   UNL     1      43.810 -17.928   8.443  1.00  0.00    -0.288 N 
HETATM   22  H   UNL     1      44.129 -17.988   9.405  1.00  0.00     0.188 HD
HETATM   23  C   UNL     1      43.016 -16.979   7.876  1.00  0.00     0.128 A 
BRANCH  19  24
HETATM   24  C   UNL     1      43.874 -19.363   5.230  1.00  0.00    -0.004 A 
HETATM   25  C   UNL     1      43.552 -18.896   3.948  1.00  0.00     0.015 A 
HETATM   26  C   UNL     1      43.814 -19.681   2.820  1.00  0.00     0.024 A 
HETATM   27  C   UNL     1      44.406 -20.932   2.969  1.00  0.00     0.034 A 
HETATM   28 CL   UNL     1      44.729 -21.895   1.580  1.00  0.00    -0.084 Cl
HETATM   29  C   UNL     1      44.744 -21.407   4.235  1.00  0.00     0.024 A 
HETATM   30  C   UNL     1      44.483 -20.621   5.361  1.00  0.00     0.015 A 
ENDBRANCH  19  24
ENDBRANCH   2  18
TORSDOF 6
ENDMDL
MODEL 6
REMARK VINA RESULT:      -8.3      5.350      8.232
REMARK  6 active torsions:
REMARK  status: ('A' for Active; 'I' for Inactive)
REMARK    1  A    between atoms: C_4  and  O_5 
REMARK    2  A    between atoms: O_5  and  C_6 
REMARK    3  A    between atoms: C_6  and  C_7 
REMARK       I    between atoms: C_7  and  N_8 
REMARK    4  A    between atoms: N_8  and  N_9 
REMARK       I    between atoms: N_9  and  C_10 
REMARK    5  A    between atoms: C_10  and  C_11 
REMARK    6  A    between atoms: C_12  and  C_13 
ROOT
HETATM    1  N   UNL     1      41.400 -16.905   5.046  1.00  0.00    -0.263 N 
HETATM    2  C   UNL     1      42.647 -16.517   5.504  1.00  0.00     0.274 C 
HETATM    3  O   UNL     1      43.236 -15.551   5.021  1.00  0.00    -0.266 OA
HETATM    4  H   UNL     1      40.797 -17.468   5.646  1.00  0.00     0.190 HD
ENDROOT
BRANCH   1   5
HETATM    5  N   UNL     1      40.724 -16.027   4.176  1.00  0.00    -0.265 N 
HETATM    6  C   UNL     1      40.679 -16.388   2.839  1.00  0.00     0.260 C 
HETATM    7  O   UNL     1      41.315 -17.349   2.407  1.00  0.00    -0.269 OA
HETATM    8  H   UNL     1      39.972 -15.485   4.604  1.00  0.00     0.190 HD
BRANCH   6   9
HETATM    9  C   UNL     1      39.804 -15.480   1.981  1.00  0.00     0.280 C 
BRANCH   9  10
HETATM   10  O   UNL     1      40.482 -14.237   1.812  1.00  0.00    -0.342 OA
BRANCH  10  11
HETATM   11  C   UNL     1      40.957 -14.055   0.544  1.00  0.00     0.069 A 
HETATM   12  C   UNL     1      40.701 -14.950  -0.496  1.00  0.00     0.043 A 
HETATM   13  C   UNL     1      41.169 -14.678  -1.789  1.00  0.00    -0.059 A 
HETATM   14  C   UNL     1      40.862 -15.608  -2.924  1.00  0.00     0.048 C 
HETATM   15  C   UNL     1      41.865 -13.485  -2.027  1.00  0.00     0.007 A 
HETATM   16  C   UNL     1      42.098 -12.582  -0.988  1.00  0.00     0.003 A 
HETATM   17  C   UNL     1      41.636 -12.864   0.295  1.00  0.00     0.037 A 
ENDBRANCH  10  11
ENDBRANCH   9  10
ENDBRANCH   6   9
ENDBRANCH   1   5
BRANCH   2  18
HETATM   18  C   UNL     1      43.174 -17.326   6.591  1.00  0.00     0.081 A 
HETATM   19  C   UNL     1      43.747 -18.637   6.543  1.00  0.00     0.104 A 
HETATM   20  N   UNL     1      44.054 -19.071   7.779  1.00  0.00    -0.174 NA
HETATM   21  N   UNL     1      43.722 -18.062   8.589  1.00  0.00    -0.288 N 
HETATM   22  H   UNL     1      43.876 -18.177   9.585  1.00  0.00     0.188 HD
HETATM   23  C   UNL     1      43.195 -16.992   7.935  1.00  0.00     0.128 A 
BRANCH  19  24
HETATM   24  C   UNL     1      44.031 -19.485   5.384  1.00  0.00    -0.004 A 
HETATM   25  C   UNL     1      44.461 -20.809   5.542  1.00  0.00     0.015 A 
HETATM   26  C   UNL     1      44.710 -21.613   4.425  1.00  0.00     0.024 A 
HETATM   27  C   UNL     1      44.521 -21.099   3.145  1.00  0.00     0.034 A 
HETATM   28 CL   UNL     1      44.824 -22.090   1.773  1.00  0.00    -0.084 Cl
HETATM   29  C   UNL     1      44.081 -19.788   2.969  1.00  0.00     0.024 A 
HETATM   30  C   UNL     1      43.832 -18.986   4.087  1.00  0.00     0.015 A 
ENDBRANCH  19  24
ENDBRANCH   2  18
TORSDOF 6
ENDMDL
MODEL 7
REMARK VINA RESULT:      -8.2      3.589      4.473
REMARK  6 active torsions:
REMARK  status: ('A' for Active; 'I' for Inactive)
REMARK    1  A    between atoms: C_4  and  O_5 
REMARK    2  A    between atoms: O_5  and  C_6 
REMARK    3  A    between atoms: C_6  and  C_7 
REMARK       I    between atoms: C_7  and  N_8 
REMARK    4  A    between atoms: N_8  and  N_9 
REMARK       I    between atoms: N_9  and  C_10 
REMARK    5  A    between atoms: C_10  and  C_11 
REMARK    6  A    between atoms: C_12  and  C_13 
ROOT
HETATM    1  N   UNL     1      39.884 -15.217   5.590  1.00  0.00    -0.263 N 
HETATM    2  C   UNL     1      40.582 -14.023   5.652  1.00  0.00     0.274 C 
HETATM    3  O   UNL     1      41.768 -13.990   5.979  1.00  0.00    -0.266 OA
HETATM    4  H   UNL     1      39.040 -15.277   5.021  1.00  0.00     0.190 HD
ENDROOT
BRANCH   1   5
HETATM    5  N   UNL     1      40.627 -16.411   5.683  1.00  0.00    -0.265 N 
HETATM    6  C   UNL     1      41.156 -16.907   4.502  1.00  0.00     0.260 C 
HETATM    7  O   UNL     1      40.876 -16.413   3.410  1.00  0.00    -0.269 OA
HETATM    8  H   UNL     1      41.093 -16.565   6.577  1.00  0.00     0.190 HD
BRANCH   6   9
HETATM    9  C   UNL     1      42.074 -18.110   4.691  1.00  0.00     0.280 C 
BRANCH   9  10
HETATM   10  O   UNL     1      43.057 -18.088   3.658  1.00  0.00    -0.342 OA
BRANCH  10  11
HETATM   11  C   UNL     1      43.566 -19.324   3.377  1.00  0.00     0.069 A 
HETATM   12  C   UNL     1      44.192 -20.121   4.338  1.00  0.00     0.043 A 
HETATM   13  C   UNL     1      44.642 -21.405   4.002  1.00  0.00    -0.059 A 
HETATM   14  C   UNL     1      45.274 -22.289   5.036  1.00  0.00     0.048 C 
HETATM   15  C   UNL     1      44.427 -21.887   2.704  1.00  0.00     0.007 A 
HETATM   16  C   UNL     1      43.780 -21.095   1.753  1.00  0.00     0.003 A 
HETATM   17  C   UNL     1      43.343 -19.817   2.094  1.00  0.00     0.037 A 
ENDBRANCH  10  11
ENDBRANCH   9  10
ENDBRANCH   6   9
ENDBRANCH   1   5
BRANCH   2  18
HETATM   18  C   UNL     1      39.809 -12.847   5.289  1.00  0.00     0.081 A 
HETATM   19  C   UNL     1      39.586 -11.648   6.041  1.00  0.00     0.104 A 
HETATM   20  N   UNL     1      38.754 -10.821   5.384  1.00  0.00    -0.174 NA
HETATM   21  N   UNL     1      38.477 -11.449   4.239  1.00  0.00    -0.288 N 
HETATM   22  H   UNL     1      37.856 -10.992   3.578  1.00  0.00     0.188 HD
HETATM   23  C   UNL     1      39.082 -12.663   4.125  1.00  0.00     0.128 A 
BRANCH  19  24
HETATM   24  C   UNL     1      40.139 -11.247   7.335  1.00  0.00    -0.004 A 
HETATM   25  C   UNL     1      41.436 -10.726   7.439  1.00  0.00     0.015 A 
HETATM   26  C   UNL     1      41.943 -10.328   8.680  1.00  0.00     0.024 A 
HETATM   27  C   UNL     1      41.152 -10.440   9.820  1.00  0.00     0.034 A 
HETATM   28 CL   UNL     1      41.777  -9.947  11.346  1.00  0.00    -0.084 Cl
HETATM   29  C   UNL     1      39.856 -10.943   9.733  1.00  0.00     0.024 A 
HETATM   30  C   UNL     1      39.350 -11.340   8.492  1.00  0.00     0.015 A 
ENDBRANCH  19  24
ENDBRANCH   2  18
TORSDOF 6
ENDMDL
MODEL 8
REMARK VINA RESULT:      -8.2      5.531      8.920
REMARK  6 active torsions:
REMARK  status: ('A' for Active; 'I' for Inactive)
REMARK    1  A    between atoms: C_4  and  O_5 
REMARK    2  A    between atoms: O_5  and  C_6 
REMARK    3  A    between atoms: C_6  and  C_7 
REMARK       I    between atoms: C_7  and  N_8 
REMARK    4  A    between atoms: N_8  and  N_9 
REMARK       I    between atoms: N_9  and  C_10 
REMARK    5  A    between atoms: C_10  and  C_11 
REMARK    6  A    between atoms: C_12  and  C_13 
ROOT
HETATM    1  N   UNL     1      41.510 -15.243   2.989  1.00  0.00    -0.263 N 
HETATM    2  C   UNL     1      42.783 -15.263   3.532  1.00  0.00     0.274 C 
HETATM    3  O   UNL     1      43.745 -14.787   2.930  1.00  0.00    -0.266 OA
HETATM    4  H   UNL     1      40.700 -15.328   3.603  1.00  0.00     0.190 HD
ENDROOT
BRANCH   1   5
HETATM    5  N   UNL     1      41.306 -14.457   1.837  1.00  0.00    -0.265 N 
HETATM    6  C   UNL     1      41.027 -15.136   0.663  1.00  0.00     0.260 C 
HETATM    7  O   UNL     1      41.093 -16.363   0.593  1.00  0.00    -0.269 OA
HETATM    8  H   UNL     1      40.934 -13.522   2.010  1.00  0.00     0.190 HD
BRANCH   6   9
HETATM    9  C   UNL     1      40.664 -14.227  -0.508  1.00  0.00     0.280 C 
BRANCH   9  10
HETATM   10  O   UNL     1      41.741 -14.252  -1.442  1.00  0.00    -0.342 OA
BRANCH  10  11
HETATM   11  C   UNL     1      42.134 -13.005  -1.839  1.00  0.00     0.069 A 
HETATM   12  C   UNL     1      42.088 -12.584  -3.169  1.00  0.00     0.043 A 
HETATM   13  C   UNL     1      42.449 -11.272  -3.505  1.00  0.00    -0.059 A 
HETATM   14  C   UNL     1      42.360 -10.795  -4.924  1.00  0.00     0.048 C 
HETATM   15  C   UNL     1      42.824 -10.385  -2.488  1.00  0.00     0.007 A 
HETATM   16  C   UNL     1      42.846 -10.804  -1.156  1.00  0.00     0.003 A 
HETATM   17  C   UNL     1      42.492 -12.112  -0.832  1.00  0.00     0.037 A 
ENDBRANCH  10  11
ENDBRANCH   9  10
ENDBRANCH   6   9
ENDBRANCH   1   5
BRANCH   2  18
HETATM   18  C   UNL     1      42.872 -15.867   4.851  1.00  0.00     0.081 A 
HETATM   19  C   UNL     1      43.157 -17.226   5.202  1.00  0.00     0.104 A 
HETATM   20  N   UNL     1      43.080 -17.402   6.534  1.00  0.00    -0.174 NA
HETATM   21  N   UNL     1      42.789 -16.195   7.023  1.00  0.00    -0.288 N 
HETATM   22  H   UNL     1      42.686 -16.097   8.029  1.00  0.00     0.188 HD
HETATM   23  C   UNL     1      42.656 -15.238   6.065  1.00  0.00     0.128 A 
BRANCH  19  24
HETATM   24  C   UNL     1      43.515 -18.353   4.339  1.00  0.00    -0.004 A 
HETATM   25  C   UNL     1      44.459 -19.305   4.746  1.00  0.00     0.015 A 
HETATM   26  C   UNL     1      44.776 -20.388   3.919  1.00  0.00     0.024 A 
HETATM   27  C   UNL     1      44.143 -20.528   2.687  1.00  0.00     0.034 A 
HETATM   28 CL   UNL     1      44.533 -21.862   1.672  1.00  0.00    -0.084 Cl
HETATM   29  C   UNL     1      43.192 -19.597   2.272  1.00  0.00     0.024 A 
HETATM   30  C   UNL     1      42.876 -18.516   3.100  1.00  0.00     0.015 A 
ENDBRANCH  19  24
ENDBRANCH   2  18
TORSDOF 6
ENDMDL
MODEL 9
REMARK VINA RESULT:      -8.2      5.502      9.039
REMARK  6 active torsions:
REMARK  status: ('A' for Active; 'I' for Inactive)
REMARK    1  A    between atoms: C_4  and  O_5 
REMARK    2  A    between atoms: O_5  and  C_6 
REMARK    3  A    between atoms: C_6  and  C_7 
REMARK       I    between atoms: C_7  and  N_8 
REMARK    4  A    between atoms: N_8  and  N_9 
REMARK       I    between atoms: N_9  and  C_10 
REMARK    5  A    between atoms: C_10  and  C_11 
REMARK    6  A    between atoms: C_12  and  C_13 
ROOT
HETATM    1  N   UNL     1      42.662 -15.161   3.248  1.00  0.00    -0.263 N 
HETATM    2  C   UNL     1      42.192 -16.022   4.224  1.00  0.00     0.274 C 
HETATM    3  O   UNL     1      41.026 -16.413   4.228  1.00  0.00    -0.266 OA
HETATM    4  H   UNL     1      43.664 -15.110   3.061  1.00  0.00     0.190 HD
ENDROOT
BRANCH   1   5
HETATM    5  N   UNL     1      41.836 -14.932   2.129  1.00  0.00    -0.265 N 
HETATM    6  C   UNL     1      41.982 -13.713   1.487  1.00  0.00     0.260 C 
HETATM    7  O   UNL     1      42.692 -12.820   1.949  1.00  0.00    -0.269 OA
HETATM    8  H   UNL     1      41.554 -15.769   1.618  1.00  0.00     0.190 HD
BRANCH   6   9
HETATM    9  C   UNL     1      41.175 -13.589   0.199  1.00  0.00     0.280 C 
BRANCH   9  10
HETATM   10  O   UNL     1      42.052 -13.819  -0.901  1.00  0.00    -0.342 OA
BRANCH  10  11
HETATM   11  C   UNL     1      42.223 -12.715  -1.688  1.00  0.00     0.069 A 
HETATM   12  C   UNL     1      42.828 -11.544  -1.228  1.00  0.00     0.043 A 
HETATM   13  C   UNL     1      43.027 -10.465  -2.101  1.00  0.00    -0.059 A 
HETATM   14  C   UNL     1      43.717  -9.219  -1.630  1.00  0.00     0.048 C 
HETATM   15  C   UNL     1      42.643 -10.592  -3.442  1.00  0.00     0.007 A 
HETATM   16  C   UNL     1      42.059 -11.773  -3.903  1.00  0.00     0.003 A 
HETATM   17  C   UNL     1      41.859 -12.838  -3.027  1.00  0.00     0.037 A 
ENDBRANCH  10  11
ENDBRANCH   9  10
ENDBRANCH   6   9
ENDBRANCH   1   5
BRANCH   2  18
HETATM   18  C   UNL     1      43.184 -16.423   5.209  1.00  0.00     0.081 A 
HETATM   19  C   UNL     1      43.973 -17.616   5.258  1.00  0.00     0.104 A 
HETATM   20  N   UNL     1      44.727 -17.645   6.372  1.00  0.00    -0.174 NA
HETATM   21  N   UNL     1      44.458 -16.498   6.999  1.00  0.00    -0.288 N 
HETATM   22  H   UNL     1      44.930 -16.309   7.877  1.00  0.00     0.188 HD
HETATM   23  C   UNL     1      43.545 -15.726   6.349  1.00  0.00     0.128 A 
BRANCH  19  24
HETATM   24  C   UNL     1      44.058 -18.714   4.294  1.00  0.00    -0.004 A 
HETATM   25  C   UNL     1      44.623 -19.947   4.648  1.00  0.00     0.015 A 
HETATM   26  C   UNL     1      44.679 -20.994   3.722  1.00  0.00     0.024 A 
HETATM   27  C   UNL     1      44.163 -20.814   2.441  1.00  0.00     0.034 A 
HETATM   28 CL   UNL     1      44.231 -22.104   1.304  1.00  0.00    -0.084 Cl
HETATM   29  C   UNL     1      43.586 -19.599   2.076  1.00  0.00     0.024 A 
HETATM   30  C   UNL     1      43.530 -18.555   3.003  1.00  0.00     0.015 A 
ENDBRANCH  19  24
ENDBRANCH   2  18
TORSDOF 6
ENDMDL
MODEL 10
REMARK VINA RESULT:      -8.2      4.874      7.831
REMARK  6 active torsions:
REMARK  status: ('A' for Active; 'I' for Inactive)
REMARK    1  A    between atoms: C_4  and  O_5 
REMARK    2  A    between atoms: O_5  and  C_6 
REMARK    3  A    between atoms: C_6  and  C_7 
REMARK       I    between atoms: C_7  and  N_8 
REMARK    4  A    between atoms: N_8  and  N_9 
REMARK       I    between atoms: N_9  and  C_10 
REMARK    5  A    between atoms: C_10  and  C_11 
REMARK    6  A    between atoms: C_12  and  C_13 
ROOT
HETATM    1  N   UNL     1      42.261 -18.275   1.266  1.00  0.00    -0.263 N 
HETATM    2  C   UNL     1      43.600 -18.448   1.572  1.00  0.00     0.274 C 
HETATM    3  O   UNL     1      44.430 -17.572   1.335  1.00  0.00    -0.266 OA
HETATM    4  H   UNL     1      41.559 -18.836   1.749  1.00  0.00     0.190 HD
ENDROOT
BRANCH   1   5
HETATM    5  N   UNL     1      41.840 -16.983   0.894  1.00  0.00    -0.265 N 
HETATM    6  C   UNL     1      40.863 -16.396   1.683  1.00  0.00     0.260 C 
HETATM    7  O   UNL     1      40.291 -17.021   2.575  1.00  0.00    -0.269 OA
HETATM    8  H   UNL     1      42.540 -16.419   0.412  1.00  0.00     0.190 HD
BRANCH   6   9
HETATM    9  C   UNL     1      40.563 -14.945   1.321  1.00  0.00     0.280 C 
BRANCH   9  10
HETATM   10  O   UNL     1      41.698 -14.155   1.671  1.00  0.00    -0.342 OA
BRANCH  10  11
HETATM   11  C   UNL     1      41.825 -13.968   3.018  1.00  0.00     0.069 A 
HETATM   12  C   UNL     1      43.027 -14.163   3.700  1.00  0.00     0.043 A 
HETATM   13  C   UNL     1      43.107 -13.899   5.075  1.00  0.00    -0.059 A 
HETATM   14  C   UNL     1      44.405 -14.061   5.809  1.00  0.00     0.048 C 
HETATM   15  C   UNL     1      41.979 -13.406   5.743  1.00  0.00     0.007 A 
HETATM   16  C   UNL     1      40.785 -13.191   5.052  1.00  0.00     0.003 A 
HETATM   17  C   UNL     1      40.712 -13.463   3.687  1.00  0.00     0.037 A 
ENDBRANCH  10  11
ENDBRANCH   9  10
ENDBRANCH   6   9
ENDBRANCH   1   5
BRANCH   2  18
HETATM   18  C   UNL     1      43.922 -19.720   2.198  1.00  0.00     0.081 A 
HETATM   19  C   UNL     1      44.121 -20.017   3.584  1.00  0.00     0.104 A 
HETATM   20  N   UNL     1      44.472 -21.305   3.752  1.00  0.00    -0.174 NA
HETATM   21  N   UNL     1      44.466 -21.825   2.522  1.00  0.00    -0.288 N 
HETATM   22  H   UNL     1      44.704 -22.806   2.415  1.00  0.00     0.188 HD
HETATM   23  C   UNL     1      44.142 -20.926   1.553  1.00  0.00     0.128 A 
BRANCH  19  24
HETATM   24  C   UNL     1      43.976 -19.146   4.751  1.00  0.00    -0.004 A 
HETATM   25  C   UNL     1      45.061 -18.882   5.598  1.00  0.00     0.015 A 
HETATM   26  C   UNL     1      44.912 -18.032   6.698  1.00  0.00     0.024 A 
HETATM   27  C   UNL     1      43.680 -17.434   6.951  1.00  0.00     0.034 A 
HETATM   28 CL   UNL     1      43.500 -16.385   8.303  1.00  0.00    -0.084 Cl
HETATM   29  C   UNL     1      42.594 -17.674   6.111  1.00  0.00     0.024 A 
HETATM   30  C   UNL     1      42.745 -18.524   5.012  1.00  0.00     0.015 A 
ENDBRANCH  19  24
ENDBRANCH   2  18
TORSDOF 6
ENDMDL
