MODEL 1
REMARK VINA RESULT:      -8.2      0.000      0.000
REMARK  2 active torsions:
REMARK  status: ('A' for Active; 'I' for Inactive)
REMARK    1  A    between atoms: N_20  and  C_21 
REMARK    2  A    between atoms: C_22  and  O_23 
ROOT
HETATM    1  C   UNL     1      37.998 -11.166   3.388  1.00  0.00     0.048 C 
HETATM    2  C   UNL     1      39.192 -11.594   4.198  1.00  0.00    -0.061 A 
HETATM    3  C   UNL     1      40.012 -12.649   3.764  1.00  0.00     0.019 A 
HETATM    4  C   UNL     1      41.129 -12.979   4.520  1.00  0.00     0.016 A 
HETATM    5  C   UNL     1      41.406 -12.268   5.694  1.00  0.00     0.044 A 
HETATM    6  N   UNL     1      42.541 -12.766   6.311  1.00  0.00    -0.324 N 
HETATM    7  C   UNL     1      43.079 -13.816   5.591  1.00  0.00     0.264 A 
HETATM    8  O   UNL     1      44.049 -14.487   5.902  1.00  0.00    -0.270 OA
HETATM    9  C   UNL     1      42.145 -14.076   4.351  1.00  0.00     0.250 A 
HETATM   10  N   UNL     1      41.483 -15.451   4.426  1.00  0.00    -0.043 N 
HETATM   11  H   UNL     1      40.669 -15.427   3.796  1.00  0.00     0.282 HD
HETATM   12  C   UNL     1      42.508 -16.416   3.906  1.00  0.00     0.204 C 
HETATM   13  C   UNL     1      41.727 -17.707   3.956  1.00  0.00     0.036 C 
HETATM   14  C   UNL     1      40.961 -17.580   5.292  1.00  0.00     0.030 C 
HETATM   15  C   UNL     1      40.981 -16.090   5.679  1.00  0.00     0.237 C 
HETATM   16  C   UNL     1      43.065 -15.701   2.704  1.00  0.00     0.126 C 
HETATM   17  C   UNL     1      43.049 -14.208   3.093  1.00  0.00     0.145 C 
HETATM   18  C   UNL     1      42.519 -13.527   1.866  1.00  0.00     0.239 C 
HETATM   19  O   UNL     1      42.434 -12.310   1.797  1.00  0.00    -0.272 OA
HETATM   20  N   UNL     1      42.039 -14.489   1.004  1.00  0.00    -0.249 N 
HETATM   21  C   UNL     1      42.179 -15.759   1.498  1.00  0.00     0.238 C 
HETATM   22  O   UNL     1      41.684 -16.799   1.093  1.00  0.00    -0.272 OA
HETATM   23  C   UNL     1      40.619 -11.232   6.149  1.00  0.00     0.031 A 
HETATM   24  C   UNL     1      39.501 -10.896   5.384  1.00  0.00     0.009 A 
HETATM   25  H   UNL     1      42.946 -12.405   7.167  1.00  0.00     0.169 HD
ENDROOT
BRANCH  20  26
HETATM   26  C   UNL     1      41.301 -14.182  -0.168  1.00  0.00     0.078 A 
HETATM   27  C   UNL     1      39.893 -14.234  -0.175  1.00  0.00     0.095 A 
HETATM   28  C   UNL     1      39.198 -13.992  -1.366  1.00  0.00     0.039 A 
HETATM   29  C   UNL     1      39.889 -13.651  -2.531  1.00  0.00     0.003 A 
HETATM   30  C   UNL     1      41.274 -13.535  -2.513  1.00  0.00     0.002 A 
HETATM   31  C   UNL     1      41.977 -13.792  -1.337  1.00  0.00     0.033 A 
BRANCH  27  32
HETATM   32  O   UNL     1      39.279 -14.455   1.033  1.00  0.00    -0.354 OA
HETATM   33  C   UNL     1      37.869 -14.245   1.072  1.00  0.00     0.210 C 
ENDBRANCH  27  32
ENDBRANCH  20  26
TORSDOF 2
ENDMDL
MODEL 2
REMARK VINA RESULT:      -8.1      2.053      5.611
REMARK  2 active torsions:
REMARK  status: ('A' for Active; 'I' for Inactive)
REMARK    1  A    between atoms: N_20  and  C_21 
REMARK    2  A    between atoms: C_22  and  O_23 
ROOT
HETATM    1  C   UNL     1      41.346  -9.636   5.006  1.00  0.00     0.048 C 
HETATM    2  C   UNL     1      40.294 -10.236   4.114  1.00  0.00    -0.061 A 
HETATM    3  C   UNL     1      40.475 -11.508   3.544  1.00  0.00     0.019 A 
HETATM    4  C   UNL     1      39.458 -12.040   2.765  1.00  0.00     0.016 A 
HETATM    5  C   UNL     1      38.288 -11.302   2.554  1.00  0.00     0.044 A 
HETATM    6  N   UNL     1      37.414 -11.994   1.732  1.00  0.00    -0.324 N 
HETATM    7  C   UNL     1      37.942 -13.215   1.360  1.00  0.00     0.264 A 
HETATM    8  O   UNL     1      37.432 -14.027   0.606  1.00  0.00    -0.270 OA
HETATM    9  C   UNL     1      39.382 -13.326   1.986  1.00  0.00     0.250 A 
HETATM   10  N   UNL     1      40.462 -13.376   0.907  1.00  0.00    -0.043 N 
HETATM   11  H   UNL     1      41.351 -13.121   1.358  1.00  0.00     0.282 HD
HETATM   12  C   UNL     1      40.506 -14.806   0.453  1.00  0.00     0.204 C 
HETATM   13  C   UNL     1      41.640 -14.749  -0.542  1.00  0.00     0.036 C 
HETATM   14  C   UNL     1      41.381 -13.407  -1.265  1.00  0.00     0.030 C 
HETATM   15  C   UNL     1      40.436 -12.590  -0.364  1.00  0.00     0.237 C 
HETATM   16  C   UNL     1      40.430 -15.572   1.746  1.00  0.00     0.126 C 
HETATM   17  C   UNL     1      39.507 -14.727   2.650  1.00  0.00     0.145 C 
HETATM   18  C   UNL     1      40.207 -14.732   3.976  1.00  0.00     0.239 C 
HETATM   19  O   UNL     1      39.714 -14.203   4.960  1.00  0.00    -0.272 OA
HETATM   20  N   UNL     1      41.470 -15.257   3.803  1.00  0.00    -0.249 N 
HETATM   21  C   UNL     1      41.720 -15.615   2.504  1.00  0.00     0.238 C 
HETATM   22  O   UNL     1      42.782 -15.910   1.981  1.00  0.00    -0.272 OA
HETATM   23  C   UNL     1      38.080 -10.051   3.094  1.00  0.00     0.031 A 
HETATM   24  C   UNL     1      39.100  -9.519   3.883  1.00  0.00     0.009 A 
HETATM   25  H   UNL     1      36.497 -11.668   1.449  1.00  0.00     0.169 HD
ENDROOT
BRANCH  20  26
HETATM   26  C   UNL     1      42.464 -15.237   4.815  1.00  0.00     0.078 A 
HETATM   27  C   UNL     1      42.701 -16.367   5.622  1.00  0.00     0.095 A 
HETATM   28  C   UNL     1      43.641 -16.293   6.656  1.00  0.00     0.039 A 
HETATM   29  C   UNL     1      44.379 -15.125   6.860  1.00  0.00     0.003 A 
HETATM   30  C   UNL     1      44.194 -14.028   6.024  1.00  0.00     0.002 A 
HETATM   31  C   UNL     1      43.247 -14.086   5.003  1.00  0.00     0.033 A 
BRANCH  27  32
HETATM   32  O   UNL     1      42.028 -17.516   5.286  1.00  0.00    -0.354 OA
HETATM   33  C   UNL     1      42.794 -18.531   4.640  1.00  0.00     0.210 C 
ENDBRANCH  27  32
ENDBRANCH  20  26
TORSDOF 2
ENDMDL
MODEL 3
REMARK VINA RESULT:      -8.0      1.811      4.637
REMARK  2 active torsions:
REMARK  status: ('A' for Active; 'I' for Inactive)
REMARK    1  A    between atoms: N_20  and  C_21 
REMARK    2  A    between atoms: C_22  and  O_23 
ROOT
HETATM    1  C   UNL     1      44.354 -17.863   0.732  1.00  0.00     0.048 C 
HETATM    2  C   UNL     1      43.722 -17.921   2.095  1.00  0.00    -0.061 A 
HETATM    3  C   UNL     1      42.887 -16.883   2.544  1.00  0.00     0.019 A 
HETATM    4  C   UNL     1      42.289 -17.002   3.791  1.00  0.00     0.016 A 
HETATM    5  C   UNL     1      42.536 -18.136   4.573  1.00  0.00     0.044 A 
HETATM    6  N   UNL     1      41.871 -18.048   5.785  1.00  0.00    -0.324 N 
HETATM    7  C   UNL     1      41.150 -16.873   5.874  1.00  0.00     0.264 A 
HETATM    8  O   UNL     1      40.501 -16.490   6.833  1.00  0.00    -0.270 OA
HETATM    9  C   UNL     1      41.411 -16.049   4.558  1.00  0.00     0.250 A 
HETATM   10  N   UNL     1      42.145 -14.743   4.849  1.00  0.00    -0.043 N 
HETATM   11  H   UNL     1      42.563 -14.428   3.963  1.00  0.00     0.282 HD
HETATM   12  C   UNL     1      41.083 -13.777   5.290  1.00  0.00     0.204 C 
HETATM   13  C   UNL     1      41.903 -12.524   5.474  1.00  0.00     0.036 C 
HETATM   14  C   UNL     1      43.193 -13.065   6.132  1.00  0.00     0.030 C 
HETATM   15  C   UNL     1      43.229 -14.581   5.865  1.00  0.00     0.237 C 
HETATM   16  C   UNL     1      39.968 -14.035   4.311  1.00  0.00     0.126 C 
HETATM   17  C   UNL     1      40.036 -15.551   4.027  1.00  0.00     0.145 C 
HETATM   18  C   UNL     1      39.868 -15.641   2.539  1.00  0.00     0.239 C 
HETATM   19  O   UNL     1      39.807 -16.719   1.968  1.00  0.00    -0.272 OA
HETATM   20  N   UNL     1      39.968 -14.372   2.009  1.00  0.00    -0.249 N 
HETATM   21  C   UNL     1      40.185 -13.415   2.965  1.00  0.00     0.238 C 
HETATM   22  O   UNL     1      40.520 -12.251   2.822  1.00  0.00    -0.272 OA
HETATM   23  C   UNL     1      43.352 -19.168   4.165  1.00  0.00     0.031 A 
HETATM   24  C   UNL     1      43.947 -19.052   2.908  1.00  0.00     0.009 A 
HETATM   25  H   UNL     1      41.885 -18.756   6.511  1.00  0.00     0.169 HD
ENDROOT
BRANCH  20  26
HETATM   26  C   UNL     1      40.040 -14.117   0.616  1.00  0.00     0.078 A 
HETATM   27  C   UNL     1      38.874 -13.888  -0.142  1.00  0.00     0.095 A 
HETATM   28  C   UNL     1      38.974 -13.707  -1.526  1.00  0.00     0.039 A 
HETATM   29  C   UNL     1      40.223 -13.703  -2.151  1.00  0.00     0.003 A 
HETATM   30  C   UNL     1      41.381 -13.864  -1.398  1.00  0.00     0.002 A 
HETATM   31  C   UNL     1      41.291 -14.063  -0.021  1.00  0.00     0.033 A 
BRANCH  27  32
HETATM   32  O   UNL     1      37.696 -13.784   0.557  1.00  0.00    -0.354 OA
HETATM   33  C   UNL     1      37.120 -12.483   0.633  1.00  0.00     0.210 C 
ENDBRANCH  27  32
ENDBRANCH  20  26
TORSDOF 2
ENDMDL
MODEL 4
REMARK VINA RESULT:      -7.8      2.156      6.542
REMARK  2 active torsions:
REMARK  status: ('A' for Active; 'I' for Inactive)
REMARK    1  A    between atoms: N_20  and  C_21 
REMARK    2  A    between atoms: C_22  and  O_23 
ROOT
HETATM    1  C   UNL     1      40.634 -16.891   6.612  1.00  0.00     0.048 C 
HETATM    2  C   UNL     1      41.032 -16.627   5.186  1.00  0.00    -0.061 A 
HETATM    3  C   UNL     1      40.730 -15.400   4.572  1.00  0.00     0.019 A 
HETATM    4  C   UNL     1      41.158 -15.184   3.269  1.00  0.00     0.016 A 
HETATM    5  C   UNL     1      41.864 -16.187   2.596  1.00  0.00     0.044 A 
HETATM    6  N   UNL     1      42.175 -15.786   1.307  1.00  0.00    -0.324 N 
HETATM    7  C   UNL     1      41.706 -14.511   1.055  1.00  0.00     0.264 A 
HETATM    8  O   UNL     1      41.783 -13.905   0.000  1.00  0.00    -0.270 OA
HETATM    9  C   UNL     1      40.941 -14.019   2.340  1.00  0.00     0.250 A 
HETATM   10  N   UNL     1      39.453 -13.811   2.063  1.00  0.00    -0.043 N 
HETATM   11  H   UNL     1      38.974 -13.815   2.974  1.00  0.00     0.282 HD
HETATM   12  C   UNL     1      39.352 -12.452   1.433  1.00  0.00     0.204 C 
HETATM   13  C   UNL     1      37.855 -12.329   1.276  1.00  0.00     0.036 C 
HETATM   14  C   UNL     1      37.450 -13.749   0.821  1.00  0.00     0.030 C 
HETATM   15  C   UNL     1      38.618 -14.684   1.184  1.00  0.00     0.237 C 
HETATM   16  C   UNL     1      40.279 -11.620   2.277  1.00  0.00     0.126 C 
HETATM   17  C   UNL     1      41.427 -12.577   2.661  1.00  0.00     0.145 C 
HETATM   18  C   UNL     1      41.649 -12.300   4.119  1.00  0.00     0.239 C 
HETATM   19  O   UNL     1      42.545 -12.845   4.743  1.00  0.00    -0.272 OA
HETATM   20  N   UNL     1      40.613 -11.514   4.577  1.00  0.00    -0.249 N 
HETATM   21  C   UNL     1      39.701 -11.217   3.599  1.00  0.00     0.238 C 
HETATM   22  O   UNL     1      38.589 -10.729   3.710  1.00  0.00    -0.272 OA
HETATM   23  C   UNL     1      42.172 -17.403   3.167  1.00  0.00     0.031 A 
HETATM   24  C   UNL     1      41.748 -17.617   4.479  1.00  0.00     0.009 A 
HETATM   25  H   UNL     1      42.695 -16.338   0.634  1.00  0.00     0.169 HD
ENDROOT
BRANCH  20  26
HETATM   26  C   UNL     1      40.412 -11.220   5.950  1.00  0.00     0.078 A 
HETATM   27  C   UNL     1      41.000 -10.085   6.543  1.00  0.00     0.095 A 
HETATM   28  C   UNL     1      40.839  -9.860   7.915  1.00  0.00     0.039 A 
HETATM   29  C   UNL     1      40.058 -10.723   8.687  1.00  0.00     0.003 A 
HETATM   30  C   UNL     1      39.423 -11.809   8.093  1.00  0.00     0.002 A 
HETATM   31  C   UNL     1      39.593 -12.052   6.731  1.00  0.00     0.033 A 
BRANCH  27  32
HETATM   32  O   UNL     1      41.650  -9.216   5.701  1.00  0.00    -0.354 OA
HETATM   33  C   UNL     1      41.634  -7.841   6.076  1.00  0.00     0.210 C 
ENDBRANCH  27  32
ENDBRANCH  20  26
TORSDOF 2
ENDMDL
MODEL 5
REMARK VINA RESULT:      -7.7      2.623      6.938
REMARK  2 active torsions:
REMARK  status: ('A' for Active; 'I' for Inactive)
REMARK    1  A    between atoms: N_20  and  C_21 
REMARK    2  A    between atoms: C_22  and  O_23 
ROOT
HETATM    1  C   UNL     1      35.883 -10.271  -0.029  1.00  0.00     0.048 C 
HETATM    2  C   UNL     1      36.561 -11.102  -1.083  1.00  0.00    -0.061 A 
HETATM    3  C   UNL     1      37.836 -11.648  -0.857  1.00  0.00     0.019 A 
HETATM    4  C   UNL     1      38.403 -12.447  -1.841  1.00  0.00     0.016 A 
HETATM    5  C   UNL     1      37.704 -12.682  -3.031  1.00  0.00     0.044 A 
HETATM    6  N   UNL     1      38.449 -13.476  -3.886  1.00  0.00    -0.324 N 
HETATM    7  C   UNL     1      39.664 -13.815  -3.321  1.00  0.00     0.264 A 
HETATM    8  O   UNL     1      40.553 -14.465  -3.845  1.00  0.00    -0.270 OA
HETATM    9  C   UNL     1      39.752 -13.110  -1.916  1.00  0.00     0.250 A 
HETATM   10  N   UNL     1      40.873 -12.074  -1.877  1.00  0.00    -0.043 N 
HETATM   11  H   UNL     1      40.674 -11.443  -1.088  1.00  0.00     0.282 HD
HETATM   12  C   UNL     1      42.128 -12.854  -1.609  1.00  0.00     0.204 C 
HETATM   13  C   UNL     1      43.138 -11.735  -1.520  1.00  0.00     0.036 C 
HETATM   14  C   UNL     1      42.691 -10.791  -2.659  1.00  0.00     0.030 C 
HETATM   15  C   UNL     1      41.240 -11.170  -3.009  1.00  0.00     0.237 C 
HETATM   16  C   UNL     1      41.700 -13.821  -0.538  1.00  0.00     0.126 C 
HETATM   17  C   UNL     1      40.236 -14.166  -0.882  1.00  0.00     0.145 C 
HETATM   18  C   UNL     1      39.537 -14.111   0.444  1.00  0.00     0.239 C 
HETATM   19  O   UNL     1      38.356 -14.401   0.556  1.00  0.00    -0.272 OA
HETATM   20  N   UNL     1      40.393 -13.551   1.368  1.00  0.00    -0.249 N 
HETATM   21  C   UNL     1      41.606 -13.213   0.827  1.00  0.00     0.238 C 
HETATM   22  O   UNL     1      42.494 -12.526   1.306  1.00  0.00    -0.272 OA
HETATM   23  C   UNL     1      36.455 -12.159  -3.285  1.00  0.00     0.031 A 
HETATM   24  C   UNL     1      35.882 -11.362  -2.293  1.00  0.00     0.009 A 
HETATM   25  H   UNL     1      38.147 -13.792  -4.801  1.00  0.00     0.169 HD
ENDROOT
BRANCH  20  26
HETATM   26  C   UNL     1      39.989 -13.182   2.676  1.00  0.00     0.078 A 
HETATM   27  C   UNL     1      40.251 -14.017   3.780  1.00  0.00     0.095 A 
HETATM   28  C   UNL     1      39.779 -13.657   5.048  1.00  0.00     0.039 A 
HETATM   29  C   UNL     1      39.096 -12.453   5.232  1.00  0.00     0.003 A 
HETATM   30  C   UNL     1      38.892 -11.594   4.157  1.00  0.00     0.002 A 
HETATM   31  C   UNL     1      39.342 -11.953   2.887  1.00  0.00     0.033 A 
BRANCH  27  32
HETATM   32  O   UNL     1      41.032 -15.122   3.545  1.00  0.00    -0.354 OA
HETATM   33  C   UNL     1      42.353 -15.088   4.081  1.00  0.00     0.210 C 
ENDBRANCH  27  32
ENDBRANCH  20  26
TORSDOF 2
ENDMDL
MODEL 6
REMARK VINA RESULT:      -7.7      2.451      5.353
REMARK  2 active torsions:
REMARK  status: ('A' for Active; 'I' for Inactive)
REMARK    1  A    between atoms: N_20  and  C_21 
REMARK    2  A    between atoms: C_22  and  O_23 
ROOT
HETATM    1  C   UNL     1      44.664 -19.467   1.713  1.00  0.00     0.048 C 
HETATM    2  C   UNL     1      44.338 -19.334   3.175  1.00  0.00    -0.061 A 
HETATM    3  C   UNL     1      43.753 -18.158   3.676  1.00  0.00     0.019 A 
HETATM    4  C   UNL     1      43.427 -18.098   5.024  1.00  0.00     0.016 A 
HETATM    5  C   UNL     1      43.694 -19.194   5.851  1.00  0.00     0.044 A 
HETATM    6  N   UNL     1      43.321 -18.924   7.157  1.00  0.00    -0.324 N 
HETATM    7  C   UNL     1      42.786 -17.655   7.270  1.00  0.00     0.264 A 
HETATM    8  O   UNL     1      42.411 -17.114   8.297  1.00  0.00    -0.270 OA
HETATM    9  C   UNL     1      42.858 -16.976   5.852  1.00  0.00     0.250 A 
HETATM   10  N   UNL     1      43.793 -15.769   5.853  1.00  0.00    -0.043 N 
HETATM   11  H   UNL     1      44.046 -15.583   4.873  1.00  0.00     0.282 HD
HETATM   12  C   UNL     1      42.977 -14.633   6.399  1.00  0.00     0.204 C 
HETATM   13  C   UNL     1      43.966 -13.498   6.284  1.00  0.00     0.036 C 
HETATM   14  C   UNL     1      45.291 -14.166   6.718  1.00  0.00     0.030 C 
HETATM   15  C   UNL     1      45.081 -15.688   6.605  1.00  0.00     0.237 C 
HETATM   16  C   UNL     1      41.655 -14.801   5.699  1.00  0.00     0.126 C 
HETATM   17  C   UNL     1      41.474 -16.328   5.563  1.00  0.00     0.145 C 
HETATM   18  C   UNL     1      40.980 -16.503   4.157  1.00  0.00     0.239 C 
HETATM   19  O   UNL     1      40.665 -17.601   3.724  1.00  0.00    -0.272 OA
HETATM   20  N   UNL     1      41.119 -15.305   3.491  1.00  0.00    -0.249 N 
HETATM   21  C   UNL     1      41.653 -14.320   4.281  1.00  0.00     0.238 C 
HETATM   22  O   UNL     1      42.089 -13.228   3.954  1.00  0.00    -0.272 OA
HETATM   23  C   UNL     1      44.270 -20.360   5.393  1.00  0.00     0.031 A 
HETATM   24  C   UNL     1      44.591 -20.422   4.037  1.00  0.00     0.009 A 
HETATM   25  H   UNL     1      43.404 -19.571   7.934  1.00  0.00     0.169 HD
ENDROOT
BRANCH  20  26
HETATM   26  C   UNL     1      40.921 -15.166   2.094  1.00  0.00     0.078 A 
HETATM   27  C   UNL     1      39.787 -14.504   1.583  1.00  0.00     0.095 A 
HETATM   28  C   UNL     1      39.586 -14.444   0.199  1.00  0.00     0.039 A 
HETATM   29  C   UNL     1      40.526 -14.991  -0.677  1.00  0.00     0.003 A 
HETATM   30  C   UNL     1      41.679 -15.589  -0.179  1.00  0.00     0.002 A 
HETATM   31  C   UNL     1      41.879 -15.670   1.198  1.00  0.00     0.033 A 
BRANCH  27  32
HETATM   32  O   UNL     1      38.971 -13.885   2.498  1.00  0.00    -0.354 OA
HETATM   33  C   UNL     1      38.782 -12.482   2.329  1.00  0.00     0.210 C 
ENDBRANCH  27  32
ENDBRANCH  20  26
TORSDOF 2
ENDMDL
MODEL 7
REMARK VINA RESULT:      -7.5      2.042      4.518
REMARK  2 active torsions:
REMARK  status: ('A' for Active; 'I' for Inactive)
REMARK    1  A    between atoms: N_20  and  C_21 
REMARK    2  A    between atoms: C_22  and  O_23 
ROOT
HETATM    1  C   UNL     1      43.797 -16.576   2.488  1.00  0.00     0.048 C 
HETATM    2  C   UNL     1      42.866 -16.005   3.521  1.00  0.00    -0.061 A 
HETATM    3  C   UNL     1      41.965 -14.979   3.187  1.00  0.00     0.019 A 
HETATM    4  C   UNL     1      41.093 -14.515   4.161  1.00  0.00     0.016 A 
HETATM    5  C   UNL     1      41.135 -15.065   5.448  1.00  0.00     0.044 A 
HETATM    6  N   UNL     1      40.208 -14.449   6.273  1.00  0.00    -0.324 N 
HETATM    7  C   UNL     1      39.504 -13.475   5.591  1.00  0.00     0.264 A 
HETATM    8  O   UNL     1      38.656 -12.733   6.058  1.00  0.00    -0.270 OA
HETATM    9  C   UNL     1      40.075 -13.407   4.126  1.00  0.00     0.250 A 
HETATM   10  N   UNL     1      40.741 -12.061   3.845  1.00  0.00    -0.043 N 
HETATM   11  H   UNL     1      41.357 -12.194   3.032  1.00  0.00     0.282 HD
HETATM   12  C   UNL     1      39.619 -11.127   3.494  1.00  0.00     0.204 C 
HETATM   13  C   UNL     1      40.393  -9.872   3.170  1.00  0.00     0.036 C 
HETATM   14  C   UNL     1      41.487  -9.864   4.262  1.00  0.00     0.030 C 
HETATM   15  C   UNL     1      41.562 -11.293   4.829  1.00  0.00     0.237 C 
HETATM   16  C   UNL     1      38.758 -11.961   2.584  1.00  0.00     0.126 C 
HETATM   17  C   UNL     1      38.868 -13.395   3.145  1.00  0.00     0.145 C 
HETATM   18  C   UNL     1      39.048 -14.242   1.920  1.00  0.00     0.239 C 
HETATM   19  O   UNL     1      39.105 -15.460   1.988  1.00  0.00    -0.272 OA
HETATM   20  N   UNL     1      39.287 -13.412   0.845  1.00  0.00    -0.249 N 
HETATM   21  C   UNL     1      39.291 -12.087   1.190  1.00  0.00     0.238 C 
HETATM   22  O   UNL     1      39.666 -11.126   0.539  1.00  0.00    -0.272 OA
HETATM   23  C   UNL     1      42.008 -16.068   5.809  1.00  0.00     0.031 A 
HETATM   24  C   UNL     1      42.880 -16.539   4.827  1.00  0.00     0.009 A 
HETATM   25  H   UNL     1      40.043 -14.687   7.245  1.00  0.00     0.169 HD
ENDROOT
BRANCH  20  26
HETATM   26  C   UNL     1      39.684 -13.890  -0.430  1.00  0.00     0.078 A 
HETATM   27  C   UNL     1      38.795 -13.865  -1.524  1.00  0.00     0.095 A 
HETATM   28  C   UNL     1      39.195 -14.407  -2.752  1.00  0.00     0.039 A 
HETATM   29  C   UNL     1      40.482 -14.924  -2.912  1.00  0.00     0.003 A 
HETATM   30  C   UNL     1      41.384 -14.892  -1.853  1.00  0.00     0.002 A 
HETATM   31  C   UNL     1      40.990 -14.372  -0.621  1.00  0.00     0.033 A 
BRANCH  27  32
HETATM   32  O   UNL     1      37.593 -13.231  -1.327  1.00  0.00    -0.354 OA
HETATM   33  C   UNL     1      37.355 -12.069  -2.117  1.00  0.00     0.210 C 
ENDBRANCH  27  32
ENDBRANCH  20  26
TORSDOF 2
ENDMDL
MODEL 8
REMARK VINA RESULT:      -7.2      2.693      6.956
REMARK  2 active torsions:
REMARK  status: ('A' for Active; 'I' for Inactive)
REMARK    1  A    between atoms: N_20  and  C_21 
REMARK    2  A    between atoms: C_22  and  O_23 
ROOT
HETATM    1  C   UNL     1      35.851 -10.273  -0.028  1.00  0.00     0.048 C 
HETATM    2  C   UNL     1      36.553 -11.070  -1.093  1.00  0.00    -0.061 A 
HETATM    3  C   UNL     1      37.836 -11.595  -0.867  1.00  0.00     0.019 A 
HETATM    4  C   UNL     1      38.426 -12.363  -1.862  1.00  0.00     0.016 A 
HETATM    5  C   UNL     1      37.742 -12.587  -3.062  1.00  0.00     0.044 A 
HETATM    6  N   UNL     1      38.509 -13.350  -3.927  1.00  0.00    -0.324 N 
HETATM    7  C   UNL     1      39.725 -13.677  -3.358  1.00  0.00     0.264 A 
HETATM    8  O   UNL     1      40.630 -14.300  -3.888  1.00  0.00    -0.270 OA
HETATM    9  C   UNL     1      39.788 -13.000  -1.939  1.00  0.00     0.250 A 
HETATM   10  N   UNL     1      40.889 -11.943  -1.869  1.00  0.00    -0.043 N 
HETATM   11  H   UNL     1      40.672 -11.333  -1.070  1.00  0.00     0.282 HD
HETATM   12  C   UNL     1      42.157 -12.705  -1.606  1.00  0.00     0.204 C 
HETATM   13  C   UNL     1      43.145 -11.570  -1.486  1.00  0.00     0.036 C 
HETATM   14  C   UNL     1      42.689 -10.611  -2.609  1.00  0.00     0.030 C 
HETATM   15  C   UNL     1      41.248 -11.010  -2.980  1.00  0.00     0.237 C 
HETATM   16  C   UNL     1      41.738 -13.701  -0.558  1.00  0.00     0.126 C 
HETATM   17  C   UNL     1      40.284 -14.067  -0.922  1.00  0.00     0.145 C 
HETATM   18  C   UNL     1      39.573 -14.053   0.399  1.00  0.00     0.239 C 
HETATM   19  O   UNL     1      38.397 -14.367   0.495  1.00  0.00    -0.272 OA
HETATM   20  N   UNL     1      40.411 -13.495   1.341  1.00  0.00    -0.249 N 
HETATM   21  C   UNL     1      41.622 -13.124   0.818  1.00  0.00     0.238 C 
HETATM   22  O   UNL     1      42.492 -12.430   1.318  1.00  0.00    -0.272 OA
HETATM   23  C   UNL     1      36.485 -12.083  -3.316  1.00  0.00     0.031 A 
HETATM   24  C   UNL     1      35.889 -11.317  -2.314  1.00  0.00     0.009 A 
HETATM   25  H   UNL     1      38.220 -13.653  -4.850  1.00  0.00     0.169 HD
ENDROOT
BRANCH  20  26
HETATM   26  C   UNL     1      39.989 -13.160   2.653  1.00  0.00     0.078 A 
HETATM   27  C   UNL     1      39.512 -11.869   2.956  1.00  0.00     0.095 A 
HETATM   28  C   UNL     1      39.169 -11.552   4.275  1.00  0.00     0.039 A 
HETATM   29  C   UNL     1      39.247 -12.519   5.280  1.00  0.00     0.003 A 
HETATM   30  C   UNL     1      39.655 -13.812   4.973  1.00  0.00     0.002 A 
HETATM   31  C   UNL     1      40.018 -14.134   3.666  1.00  0.00     0.033 A 
BRANCH  27  32
HETATM   32  O   UNL     1      39.347 -11.010   1.899  1.00  0.00    -0.354 OA
HETATM   33  C   UNL     1      38.843  -9.714   2.211  1.00  0.00     0.210 C 
ENDBRANCH  27  32
ENDBRANCH  20  26
TORSDOF 2
ENDMDL
MODEL 9
REMARK VINA RESULT:      -7.1      3.275      5.993
REMARK  2 active torsions:
REMARK  status: ('A' for Active; 'I' for Inactive)
REMARK    1  A    between atoms: N_20  and  C_21 
REMARK    2  A    between atoms: C_22  and  O_23 
ROOT
HETATM    1  C   UNL     1      42.421 -15.906   1.286  1.00  0.00     0.048 C 
HETATM    2  C   UNL     1      42.121 -14.484   1.671  1.00  0.00    -0.061 A 
HETATM    3  C   UNL     1      41.664 -13.562   0.714  1.00  0.00     0.019 A 
HETATM    4  C   UNL     1      41.356 -12.272   1.125  1.00  0.00     0.016 A 
HETATM    5  C   UNL     1      41.516 -11.917   2.469  1.00  0.00     0.044 A 
HETATM    6  N   UNL     1      41.182 -10.587   2.666  1.00  0.00    -0.324 N 
HETATM    7  C   UNL     1      40.782  -9.994   1.484  1.00  0.00     0.264 A 
HETATM    8  O   UNL     1      40.472  -8.825   1.327  1.00  0.00    -0.270 OA
HETATM    9  C   UNL     1      40.912 -11.067   0.340  1.00  0.00     0.250 A 
HETATM   10  N   UNL     1      41.966 -10.666  -0.689  1.00  0.00    -0.043 N 
HETATM   11  H   UNL     1      42.230 -11.520  -1.200  1.00  0.00     0.282 HD
HETATM   12  C   UNL     1      41.276  -9.706  -1.615  1.00  0.00     0.204 C 
HETATM   13  C   UNL     1      42.375  -9.442  -2.615  1.00  0.00     0.036 C 
HETATM   14  C   UNL     1      43.627  -9.342  -1.714  1.00  0.00     0.030 C 
HETATM   15  C   UNL     1      43.262  -9.995  -0.368  1.00  0.00     0.237 C 
HETATM   16  C   UNL     1      39.938 -10.359  -1.840  1.00  0.00     0.126 C 
HETATM   17  C   UNL     1      39.600 -11.036  -0.494  1.00  0.00     0.145 C 
HETATM   18  C   UNL     1      39.080 -12.385  -0.896  1.00  0.00     0.239 C 
HETATM   19  O   UNL     1      38.651 -13.175  -0.070  1.00  0.00    -0.272 OA
HETATM   20  N   UNL     1      39.337 -12.571  -2.238  1.00  0.00    -0.249 N 
HETATM   21  C   UNL     1      39.975 -11.501  -2.808  1.00  0.00     0.238 C 
HETATM   22  O   UNL     1      40.519 -11.424  -3.897  1.00  0.00    -0.272 OA
HETATM   23  C   UNL     1      41.965 -12.795   3.431  1.00  0.00     0.031 A 
HETATM   24  C   UNL     1      42.268 -14.093   3.019  1.00  0.00     0.009 A 
HETATM   25  H   UNL     1      41.204 -10.105   3.558  1.00  0.00     0.169 HD
ENDROOT
BRANCH  20  26
HETATM   26  C   UNL     1      39.143 -13.811  -2.899  1.00  0.00     0.078 A 
HETATM   27  C   UNL     1      37.938 -14.095  -3.572  1.00  0.00     0.095 A 
HETATM   28  C   UNL     1      37.752 -15.353  -4.156  1.00  0.00     0.039 A 
HETATM   29  C   UNL     1      38.771 -16.307  -4.120  1.00  0.00     0.003 A 
HETATM   30  C   UNL     1      39.986 -16.008  -3.514  1.00  0.00     0.002 A 
HETATM   31  C   UNL     1      40.175 -14.764  -2.913  1.00  0.00     0.033 A 
BRANCH  27  32
HETATM   32  O   UNL     1      37.031 -13.068  -3.672  1.00  0.00    -0.354 OA
HETATM   33  C   UNL     1      35.965 -13.255  -4.599  1.00  0.00     0.210 C 
ENDBRANCH  27  32
ENDBRANCH  20  26
TORSDOF 2
ENDMDL
MODEL 10
REMARK VINA RESULT:      -7.1      3.415      6.934
REMARK  2 active torsions:
REMARK  status: ('A' for Active; 'I' for Inactive)
REMARK    1  A    between atoms: N_20  and  C_21 
REMARK    2  A    between atoms: C_22  and  O_23 
ROOT
HETATM    1  C   UNL     1      39.903 -13.929   3.565  1.00  0.00     0.048 C 
HETATM    2  C   UNL     1      40.251 -14.534   2.233  1.00  0.00    -0.061 A 
HETATM    3  C   UNL     1      40.286 -13.742   1.073  1.00  0.00     0.019 A 
HETATM    4  C   UNL     1      40.658 -14.334  -0.126  1.00  0.00     0.016 A 
HETATM    5  C   UNL     1      40.978 -15.697  -0.157  1.00  0.00     0.044 A 
HETATM    6  N   UNL     1      41.294 -16.095  -1.445  1.00  0.00    -0.324 N 
HETATM    7  C   UNL     1      41.212 -15.037  -2.329  1.00  0.00     0.264 A 
HETATM    8  O   UNL     1      41.387 -15.083  -3.535  1.00  0.00    -0.270 OA
HETATM    9  C   UNL     1      40.730 -13.774  -1.522  1.00  0.00     0.250 A 
HETATM   10  N   UNL     1      39.357 -13.298  -1.991  1.00  0.00    -0.043 N 
HETATM   11  H   UNL     1      38.969 -12.710  -1.240  1.00  0.00     0.282 HD
HETATM   12  C   UNL     1      39.620 -12.465  -3.213  1.00  0.00     0.204 C 
HETATM   13  C   UNL     1      38.222 -11.997  -3.537  1.00  0.00     0.036 C 
HETATM   14  C   UNL     1      37.376 -13.262  -3.269  1.00  0.00     0.030 C 
HETATM   15  C   UNL     1      38.234 -14.196  -2.395  1.00  0.00     0.237 C 
HETATM   16  C   UNL     1      40.816 -11.645  -2.810  1.00  0.00     0.126 C 
HETATM   17  C   UNL     1      41.650 -12.581  -1.910  1.00  0.00     0.145 C 
HETATM   18  C   UNL     1      42.055 -11.703  -0.763  1.00  0.00     0.239 C 
HETATM   19  O   UNL     1      42.791 -12.108   0.122  1.00  0.00    -0.272 OA
HETATM   20  N   UNL     1      41.340 -10.526  -0.839  1.00  0.00    -0.249 N 
HETATM   21  C   UNL     1      40.488 -10.493  -1.912  1.00  0.00     0.238 C 
HETATM   22  O   UNL     1      39.585  -9.708  -2.149  1.00  0.00    -0.272 OA
HETATM   23  C   UNL     1      40.949 -16.501   0.961  1.00  0.00     0.031 A 
HETATM   24  C   UNL     1      40.582 -15.904   2.168  1.00  0.00     0.009 A 
HETATM   25  H   UNL     1      41.572 -17.033  -1.714  1.00  0.00     0.169 HD
ENDROOT
BRANCH  20  26
HETATM   26  C   UNL     1      41.343  -9.550   0.189  1.00  0.00     0.078 A 
HETATM   27  C   UNL     1      42.188  -8.424   0.121  1.00  0.00     0.095 A 
HETATM   28  C   UNL     1      42.216  -7.515   1.185  1.00  0.00     0.039 A 
HETATM   29  C   UNL     1      41.376  -7.689   2.287  1.00  0.00     0.003 A 
HETATM   30  C   UNL     1      40.493  -8.763   2.329  1.00  0.00     0.002 A 
HETATM   31  C   UNL     1      40.471  -9.685   1.283  1.00  0.00     0.033 A 
BRANCH  27  32
HETATM   32  O   UNL     1      42.894  -8.254  -1.044  1.00  0.00    -0.354 OA
HETATM   33  C   UNL     1      44.263  -7.882  -0.905  1.00  0.00     0.210 C 
ENDBRANCH  27  32
ENDBRANCH  20  26
TORSDOF 2
ENDMDL
