MODEL 1
REMARK VINA RESULT:      -9.6      0.000      0.000
REMARK  5 active torsions:
REMARK  status: ('A' for Active; 'I' for Inactive)
REMARK    1  A    between atoms: C_7  and  C_8 
REMARK    2  A    between atoms: C_16  and  C_17 
REMARK    3  A    between atoms: C_20  and  O_21 
REMARK    4  A    between atoms: C_24  and  C_25 
REMARK       I    between atoms: C_25  and  N_26 
REMARK    5  A    between atoms: N_26  and  C_27 
ROOT
HETATM    1  C   UNL     1      40.253 -16.878   1.386  1.00  0.00     0.070 C 
HETATM    2  C   UNL     1      40.716 -15.990   2.518  1.00  0.00     0.037 A 
HETATM    3  N   UNL     1      39.800 -15.019   2.914  1.00  0.00    -0.192 N 
HETATM    4  C   UNL     1      40.072 -14.063   3.817  1.00  0.00     0.726 A 
HETATM    5  N   UNL     1      41.273 -14.080   4.455  1.00  0.00    -0.083 N 
HETATM    6  N   UNL     1      41.440 -12.987   5.227  1.00  0.00    -0.135 NA
HETATM    7  C   UNL     1      40.240 -12.388   5.095  1.00  0.00     0.199 A 
HETATM    8  N   UNL     1      39.383 -13.027   4.216  1.00  0.00    -0.041 NA
HETATM    9  C   UNL     1      42.309 -15.093   4.233  1.00  0.00     0.202 A 
HETATM   10  C   UNL     1      41.939 -16.069   3.115  1.00  0.00     0.062 A 
HETATM   11  H   UNL     1      38.914 -14.978   2.417  1.00  0.00     0.184 HD
ENDROOT
BRANCH  10  12
HETATM   12  C   UNL     1      42.922 -17.139   2.716  1.00  0.00     0.256 C 
HETATM   13  N   UNL     1      42.622 -18.420   3.141  1.00  0.00    -0.323 N 
HETATM   14  H   UNL     1      41.726 -18.604   3.561  1.00  0.00     0.169 HD
HETATM   15  O   UNL     1      43.891 -16.847   2.023  1.00  0.00    -0.267 OA
BRANCH  13  16
HETATM   16  C   UNL     1      43.427 -19.574   2.993  1.00  0.00     0.035 A 
HETATM   17  C   UNL     1      44.391 -19.982   3.916  1.00  0.00     0.029 A 
HETATM   18  C   UNL     1      45.120 -21.157   3.708  1.00  0.00     0.002 A 
HETATM   19  C   UNL     1      44.896 -21.933   2.572  1.00  0.00     0.000 A 
HETATM   20  C   UNL     1      43.938 -21.535   1.645  1.00  0.00     0.002 A 
HETATM   21  C   UNL     1      43.204 -20.365   1.857  1.00  0.00     0.029 A 
ENDBRANCH  13  16
ENDBRANCH  10  12
BRANCH   9  22
HETATM   22  C   UNL     1      42.649 -15.764   5.563  1.00  0.00    -0.028 A 
HETATM   23  C   UNL     1      41.806 -16.728   6.144  1.00  0.00     0.012 A 
HETATM   24  C   UNL     1      42.127 -17.304   7.376  1.00  0.00     0.037 A 
HETATM   25  C   UNL     1      43.284 -16.909   8.038  1.00  0.00     0.065 A 
HETATM   26  C   UNL     1      44.125 -15.950   7.490  1.00  0.00     0.037 A 
HETATM   27  C   UNL     1      43.808 -15.375   6.259  1.00  0.00     0.012 A 
BRANCH  25  28
HETATM   28  O   UNL     1      43.628 -17.438   9.247  1.00  0.00    -0.361 OA
HETATM   29  H   UNL     1      43.879 -16.713   9.842  1.00  0.00     0.217 HD
ENDBRANCH  25  28
ENDBRANCH   9  22
BRANCH   7  30
HETATM   30  C   UNL     1      39.865 -11.164   5.798  1.00  0.00     0.014 A 
HETATM   31  C   UNL     1      39.877 -11.107   7.201  1.00  0.00     0.017 A 
HETATM   32  C   UNL     1      39.509  -9.934   7.869  1.00  0.00     0.025 A 
HETATM   33  C   UNL     1      39.128  -8.811   7.138  1.00  0.00     0.034 A 
HETATM   34 CL   UNL     1      38.673  -7.370   7.960  1.00  0.00    -0.084 Cl
HETATM   35  C   UNL     1      39.111  -8.851   5.746  1.00  0.00     0.025 A 
HETATM   36  C   UNL     1      39.478 -10.023   5.078  1.00  0.00     0.017 A 
ENDBRANCH   7  30
TORSDOF 5
ENDMDL
MODEL 2
REMARK VINA RESULT:      -9.3      1.661      3.887
REMARK  5 active torsions:
REMARK  status: ('A' for Active; 'I' for Inactive)
REMARK    1  A    between atoms: C_7  and  C_8 
REMARK    2  A    between atoms: C_16  and  C_17 
REMARK    3  A    between atoms: C_20  and  O_21 
REMARK    4  A    between atoms: C_24  and  C_25 
REMARK       I    between atoms: C_25  and  N_26 
REMARK    5  A    between atoms: N_26  and  C_27 
ROOT
HETATM    1  C   UNL     1      44.344 -16.007   6.854  1.00  0.00     0.070 C 
HETATM    2  C   UNL     1      43.176 -15.461   6.065  1.00  0.00     0.037 A 
HETATM    3  N   UNL     1      42.940 -14.099   6.234  1.00  0.00    -0.192 N 
HETATM    4  C   UNL     1      41.881 -13.458   5.714  1.00  0.00     0.726 A 
HETATM    5  N   UNL     1      41.028 -14.140   4.904  1.00  0.00    -0.083 N 
HETATM    6  N   UNL     1      39.954 -13.395   4.575  1.00  0.00    -0.135 NA
HETATM    7  C   UNL     1      40.273 -12.213   5.138  1.00  0.00     0.199 A 
HETATM    8  N   UNL     1      41.452 -12.232   5.862  1.00  0.00    -0.041 NA
HETATM    9  C   UNL     1      41.190 -15.551   4.540  1.00  0.00     0.202 A 
HETATM   10  C   UNL     1      42.364 -16.209   5.266  1.00  0.00     0.062 A 
HETATM   11  H   UNL     1      43.552 -13.590   6.866  1.00  0.00     0.184 HD
ENDROOT
BRANCH  10  12
HETATM   12  C   UNL     1      42.634 -17.676   5.052  1.00  0.00     0.256 C 
HETATM   13  N   UNL     1      43.513 -17.983   4.030  1.00  0.00    -0.323 N 
HETATM   14  H   UNL     1      44.026 -17.242   3.580  1.00  0.00     0.169 HD
HETATM   15  O   UNL     1      42.113 -18.505   5.791  1.00  0.00    -0.267 OA
BRANCH  13  16
HETATM   16  C   UNL     1      43.850 -19.273   3.558  1.00  0.00     0.035 A 
HETATM   17  C   UNL     1      44.625 -20.190   4.270  1.00  0.00     0.029 A 
HETATM   18  C   UNL     1      44.884 -21.460   3.744  1.00  0.00     0.002 A 
HETATM   19  C   UNL     1      44.375 -21.823   2.499  1.00  0.00     0.000 A 
HETATM   20  C   UNL     1      43.602 -20.916   1.780  1.00  0.00     0.002 A 
HETATM   21  C   UNL     1      43.336 -19.651   2.310  1.00  0.00     0.029 A 
ENDBRANCH  13  16
ENDBRANCH  10  12
BRANCH   9  22
HETATM   22  C   UNL     1      41.246 -15.674   3.018  1.00  0.00    -0.028 A 
HETATM   23  C   UNL     1      40.600 -16.720   2.334  1.00  0.00     0.012 A 
HETATM   24  C   UNL     1      40.692 -16.825   0.944  1.00  0.00     0.037 A 
HETATM   25  C   UNL     1      41.442 -15.894   0.234  1.00  0.00     0.065 A 
HETATM   26  C   UNL     1      42.098 -14.861   0.888  1.00  0.00     0.037 A 
HETATM   27  C   UNL     1      42.005 -14.752   2.275  1.00  0.00     0.012 A 
BRANCH  25  28
HETATM   28  O   UNL     1      41.567 -15.968  -1.122  1.00  0.00    -0.361 OA
HETATM   29  H   UNL     1      41.551 -16.902  -1.385  1.00  0.00     0.217 HD
ENDBRANCH  25  28
ENDBRANCH   9  22
BRANCH   7  30
HETATM   30  C   UNL     1      39.450 -11.012   5.020  1.00  0.00     0.014 A 
HETATM   31  C   UNL     1      39.576  -9.960   5.941  1.00  0.00     0.017 A 
HETATM   32  C   UNL     1      38.781  -8.815   5.828  1.00  0.00     0.025 A 
HETATM   33  C   UNL     1      37.855  -8.715   4.793  1.00  0.00     0.034 A 
HETATM   34 CL   UNL     1      36.875  -7.308   4.656  1.00  0.00    -0.084 Cl
HETATM   35  C   UNL     1      37.718  -9.749   3.869  1.00  0.00     0.025 A 
HETATM   36  C   UNL     1      38.512 -10.894   3.983  1.00  0.00     0.017 A 
ENDBRANCH   7  30
TORSDOF 5
ENDMDL
MODEL 3
REMARK VINA RESULT:      -9.0      4.304      8.887
REMARK  5 active torsions:
REMARK  status: ('A' for Active; 'I' for Inactive)
REMARK    1  A    between atoms: C_7  and  C_8 
REMARK    2  A    between atoms: C_16  and  C_17 
REMARK    3  A    between atoms: C_20  and  O_21 
REMARK    4  A    between atoms: C_24  and  C_25 
REMARK       I    between atoms: C_25  and  N_26 
REMARK    5  A    between atoms: N_26  and  C_27 
ROOT
HETATM    1  C   UNL     1      40.909 -14.326  -1.656  1.00  0.00     0.070 C 
HETATM    2  C   UNL     1      41.064 -14.975  -0.300  1.00  0.00     0.037 A 
HETATM    3  N   UNL     1      42.080 -15.923  -0.215  1.00  0.00    -0.192 N 
HETATM    4  C   UNL     1      42.295 -16.689   0.866  1.00  0.00     0.726 A 
HETATM    5  N   UNL     1      41.545 -16.483   1.981  1.00  0.00    -0.083 N 
HETATM    6  N   UNL     1      41.791 -17.414   2.924  1.00  0.00    -0.135 NA
HETATM    7  C   UNL     1      42.797 -18.105   2.353  1.00  0.00     0.199 A 
HETATM    8  N   UNL     1      43.115 -17.686   1.072  1.00  0.00    -0.041 NA
HETATM    9  C   UNL     1      40.505 -15.456   2.096  1.00  0.00     0.202 A 
HETATM   10  C   UNL     1      40.273 -14.713   0.779  1.00  0.00     0.062 A 
HETATM   11  H   UNL     1      42.622 -16.107  -1.055  1.00  0.00     0.184 HD
ENDROOT
BRANCH  10  12
HETATM   12  C   UNL     1      39.193 -13.664   0.706  1.00  0.00     0.256 C 
HETATM   13  N   UNL     1      39.588 -12.373   1.005  1.00  0.00    -0.323 N 
HETATM   14  H   UNL     1      40.567 -12.170   1.117  1.00  0.00     0.169 HD
HETATM   15  O   UNL     1      38.060 -13.980   0.357  1.00  0.00    -0.267 OA
BRANCH  13  16
HETATM   16  C   UNL     1      38.756 -11.234   1.111  1.00  0.00     0.035 A 
HETATM   17  C   UNL     1      38.494 -10.354   0.061  1.00  0.00     0.029 A 
HETATM   18  C   UNL     1      37.631  -9.268   0.243  1.00  0.00     0.002 A 
HETATM   19  C   UNL     1      37.026  -9.050   1.479  1.00  0.00     0.000 A 
HETATM   20  C   UNL     1      37.281  -9.921   2.534  1.00  0.00     0.002 A 
HETATM   21  C   UNL     1      38.137 -11.010   2.349  1.00  0.00     0.029 A 
ENDBRANCH  13  16
ENDBRANCH  10  12
BRANCH   9  22
HETATM   22  C   UNL     1      40.824 -14.547   3.280  1.00  0.00    -0.028 A 
HETATM   23  C   UNL     1      42.025 -13.817   3.353  1.00  0.00     0.012 A 
HETATM   24  C   UNL     1      42.305 -13.015   4.462  1.00  0.00     0.037 A 
HETATM   25  C   UNL     1      41.393 -12.951   5.510  1.00  0.00     0.065 A 
HETATM   26  C   UNL     1      40.208 -13.671   5.467  1.00  0.00     0.037 A 
HETATM   27  C   UNL     1      39.924 -14.470   4.359  1.00  0.00     0.012 A 
BRANCH  25  28
HETATM   28  O   UNL     1      41.633 -12.190   6.615  1.00  0.00    -0.361 OA
HETATM   29  H   UNL     1      42.565 -12.294   6.867  1.00  0.00     0.217 HD
ENDBRANCH  25  28
ENDBRANCH   9  22
BRANCH   7  30
HETATM   30  C   UNL     1      43.491 -19.214   3.004  1.00  0.00     0.014 A 
HETATM   31  C   UNL     1      43.777 -20.396   2.302  1.00  0.00     0.017 A 
HETATM   32  C   UNL     1      44.434 -21.457   2.933  1.00  0.00     0.025 A 
HETATM   33  C   UNL     1      44.810 -21.342   4.269  1.00  0.00     0.034 A 
HETATM   34 CL   UNL     1      45.616 -22.649   5.045  1.00  0.00    -0.084 Cl
HETATM   35  C   UNL     1      44.534 -20.176   4.980  1.00  0.00     0.025 A 
HETATM   36  C   UNL     1      43.876 -19.116   4.349  1.00  0.00     0.017 A 
ENDBRANCH   7  30
TORSDOF 5
ENDMDL
MODEL 4
REMARK VINA RESULT:      -8.7      5.177      7.008
REMARK  5 active torsions:
REMARK  status: ('A' for Active; 'I' for Inactive)
REMARK    1  A    between atoms: C_7  and  C_8 
REMARK    2  A    between atoms: C_16  and  C_17 
REMARK    3  A    between atoms: C_20  and  O_21 
REMARK    4  A    between atoms: C_24  and  C_25 
REMARK       I    between atoms: C_25  and  N_26 
REMARK    5  A    between atoms: N_26  and  C_27 
ROOT
HETATM    1  C   UNL     1      41.482 -17.670   1.234  1.00  0.00     0.070 C 
HETATM    2  C   UNL     1      41.594 -16.170   1.081  1.00  0.00     0.037 A 
HETATM    3  N   UNL     1      41.517 -15.707  -0.230  1.00  0.00    -0.192 N 
HETATM    4  C   UNL     1      41.714 -14.425  -0.579  1.00  0.00     0.726 A 
HETATM    5  N   UNL     1      41.915 -13.499   0.396  1.00  0.00    -0.083 N 
HETATM    6  N   UNL     1      42.226 -12.293  -0.121  1.00  0.00    -0.135 NA
HETATM    7  C   UNL     1      42.089 -12.532  -1.441  1.00  0.00     0.199 A 
HETATM    8  N   UNL     1      41.788 -13.847  -1.749  1.00  0.00    -0.041 NA
HETATM    9  C   UNL     1      41.922 -13.801   1.831  1.00  0.00     0.202 A 
HETATM   10  C   UNL     1      41.792 -15.300   2.110  1.00  0.00     0.062 A 
HETATM   11  H   UNL     1      41.402 -16.397  -0.967  1.00  0.00     0.184 HD
ENDROOT
BRANCH  10  12
HETATM   12  C   UNL     1      41.843 -15.789   3.535  1.00  0.00     0.256 C 
HETATM   13  N   UNL     1      43.104 -16.058   4.033  1.00  0.00    -0.323 N 
HETATM   14  H   UNL     1      43.914 -15.794   3.497  1.00  0.00     0.169 HD
HETATM   15  O   UNL     1      40.805 -15.886   4.182  1.00  0.00    -0.267 OA
BRANCH  13  16
HETATM   16  C   UNL     1      43.416 -16.623   5.292  1.00  0.00     0.035 A 
HETATM   17  C   UNL     1      43.224 -15.974   6.512  1.00  0.00     0.029 A 
HETATM   18  C   UNL     1      43.529 -16.620   7.715  1.00  0.00     0.002 A 
HETATM   19  C   UNL     1      44.034 -17.918   7.709  1.00  0.00     0.000 A 
HETATM   20  C   UNL     1      44.232 -18.574   6.498  1.00  0.00     0.002 A 
HETATM   21  C   UNL     1      43.919 -17.932   5.297  1.00  0.00     0.029 A 
ENDBRANCH  13  16
ENDBRANCH  10  12
BRANCH   9  22
HETATM   22  C   UNL     1      40.872 -12.940   2.531  1.00  0.00    -0.028 A 
HETATM   23  C   UNL     1      41.174 -12.193   3.683  1.00  0.00     0.012 A 
HETATM   24  C   UNL     1      40.187 -11.437   4.321  1.00  0.00     0.037 A 
HETATM   25  C   UNL     1      38.892 -11.436   3.817  1.00  0.00     0.065 A 
HETATM   26  C   UNL     1      38.566 -12.174   2.688  1.00  0.00     0.037 A 
HETATM   27  C   UNL     1      39.551 -12.928   2.048  1.00  0.00     0.012 A 
BRANCH  25  28
HETATM   28  O   UNL     1      37.897 -10.721   4.415  1.00  0.00    -0.361 OA
HETATM   29  H   UNL     1      38.249  -9.853   4.671  1.00  0.00     0.217 HD
ENDBRANCH  25  28
ENDBRANCH   9  22
BRANCH   7  30
HETATM   30  C   UNL     1      42.255 -11.509  -2.470  1.00  0.00     0.014 A 
HETATM   31  C   UNL     1      42.419 -10.158  -2.123  1.00  0.00     0.017 A 
HETATM   32  C   UNL     1      42.569  -9.181  -3.113  1.00  0.00     0.025 A 
HETATM   33  C   UNL     1      42.558  -9.550  -4.456  1.00  0.00     0.034 A 
HETATM   34 CL   UNL     1      42.740  -8.349  -5.674  1.00  0.00    -0.084 Cl
HETATM   35  C   UNL     1      42.397 -10.886  -4.818  1.00  0.00     0.025 A 
HETATM   36  C   UNL     1      42.246 -11.862  -3.828  1.00  0.00     0.017 A 
ENDBRANCH   7  30
TORSDOF 5
ENDMDL
MODEL 5
REMARK VINA RESULT:      -8.4      4.003      9.161
REMARK  5 active torsions:
REMARK  status: ('A' for Active; 'I' for Inactive)
REMARK    1  A    between atoms: C_7  and  C_8 
REMARK    2  A    between atoms: C_16  and  C_17 
REMARK    3  A    between atoms: C_20  and  O_21 
REMARK    4  A    between atoms: C_24  and  C_25 
REMARK       I    between atoms: C_25  and  N_26 
REMARK    5  A    between atoms: N_26  and  C_27 
ROOT
HETATM    1  C   UNL     1      39.339 -12.519   6.852  1.00  0.00     0.070 C 
HETATM    2  C   UNL     1      40.212 -13.378   5.965  1.00  0.00     0.037 A 
HETATM    3  N   UNL     1      40.407 -14.680   6.420  1.00  0.00    -0.192 N 
HETATM    4  C   UNL     1      41.243 -15.554   5.836  1.00  0.00     0.726 A 
HETATM    5  N   UNL     1      41.876 -15.196   4.687  1.00  0.00    -0.083 N 
HETATM    6  N   UNL     1      42.773 -16.127   4.304  1.00  0.00    -0.135 NA
HETATM    7  C   UNL     1      42.556 -17.091   5.219  1.00  0.00     0.199 A 
HETATM    8  N   UNL     1      41.625 -16.753   6.187  1.00  0.00    -0.041 NA
HETATM    9  C   UNL     1      41.700 -13.903   4.018  1.00  0.00     0.202 A 
HETATM   10  C   UNL     1      40.811 -12.950   4.819  1.00  0.00     0.062 A 
HETATM   11  H   UNL     1      39.966 -14.943   7.297  1.00  0.00     0.184 HD
ENDROOT
BRANCH  10  12
HETATM   12  C   UNL     1      40.577 -11.553   4.303  1.00  0.00     0.256 C 
HETATM   13  N   UNL     1      39.430 -11.376   3.551  1.00  0.00    -0.323 N 
HETATM   14  H   UNL     1      38.754 -12.119   3.498  1.00  0.00     0.169 HD
HETATM   15  O   UNL     1      41.362 -10.657   4.594  1.00  0.00    -0.267 OA
BRANCH  13  16
HETATM   16  C   UNL     1      39.036 -10.201   2.869  1.00  0.00     0.035 A 
HETATM   17  C   UNL     1      38.308  -9.163   3.451  1.00  0.00     0.029 A 
HETATM   18  C   UNL     1      37.988  -8.018   2.713  1.00  0.00     0.002 A 
HETATM   19  C   UNL     1      38.388  -7.904   1.384  1.00  0.00     0.000 A 
HETATM   20  C   UNL     1      39.114  -8.934   0.792  1.00  0.00     0.002 A 
HETATM   21  C   UNL     1      39.441 -10.073   1.532  1.00  0.00     0.029 A 
ENDBRANCH  13  16
ENDBRANCH  10  12
BRANCH   9  22
HETATM   22  C   UNL     1      41.232 -14.139   2.583  1.00  0.00    -0.028 A 
HETATM   23  C   UNL     1      41.997 -13.727   1.477  1.00  0.00     0.012 A 
HETATM   24  C   UNL     1      41.531 -13.928   0.175  1.00  0.00     0.037 A 
HETATM   25  C   UNL     1      40.294 -14.530  -0.025  1.00  0.00     0.065 A 
HETATM   26  C   UNL     1      39.516 -14.934   1.051  1.00  0.00     0.037 A 
HETATM   27  C   UNL     1      39.980 -14.736   2.352  1.00  0.00     0.012 A 
BRANCH  25  28
HETATM   28  O   UNL     1      39.798 -14.735  -1.279  1.00  0.00    -0.361 OA
HETATM   29  H   UNL     1      40.208 -15.533  -1.648  1.00  0.00     0.217 HD
ENDBRANCH  25  28
ENDBRANCH   9  22
BRANCH   7  30
HETATM   30  C   UNL     1      43.244 -18.380   5.217  1.00  0.00     0.014 A 
HETATM   31  C   UNL     1      43.848 -18.871   4.048  1.00  0.00     0.017 A 
HETATM   32  C   UNL     1      44.499 -20.109   4.049  1.00  0.00     0.025 A 
HETATM   33  C   UNL     1      44.549 -20.864   5.219  1.00  0.00     0.034 A 
HETATM   34 CL   UNL     1      45.347 -22.387   5.219  1.00  0.00    -0.084 Cl
HETATM   35  C   UNL     1      43.956 -20.391   6.387  1.00  0.00     0.025 A 
HETATM   36  C   UNL     1      43.304 -19.154   6.385  1.00  0.00     0.017 A 
ENDBRANCH   7  30
TORSDOF 5
ENDMDL
MODEL 6
REMARK VINA RESULT:      -8.4      3.259      5.503
REMARK  5 active torsions:
REMARK  status: ('A' for Active; 'I' for Inactive)
REMARK    1  A    between atoms: C_7  and  C_8 
REMARK    2  A    between atoms: C_16  and  C_17 
REMARK    3  A    between atoms: C_20  and  O_21 
REMARK    4  A    between atoms: C_24  and  C_25 
REMARK       I    between atoms: C_25  and  N_26 
REMARK    5  A    between atoms: N_26  and  C_27 
ROOT
HETATM    1  C   UNL     1      43.937 -14.054   4.450  1.00  0.00     0.070 C 
HETATM    2  C   UNL     1      42.724 -13.877   3.565  1.00  0.00     0.037 A 
HETATM    3  N   UNL     1      42.009 -12.701   3.780  1.00  0.00    -0.192 N 
HETATM    4  C   UNL     1      40.841 -12.421   3.180  1.00  0.00     0.726 A 
HETATM    5  N   UNL     1      40.357 -13.280   2.243  1.00  0.00    -0.083 N 
HETATM    6  N   UNL     1      39.121 -12.925   1.836  1.00  0.00    -0.135 NA
HETATM    7  C   UNL     1      38.953 -11.762   2.495  1.00  0.00     0.199 A 
HETATM    8  N   UNL     1      39.996 -11.438   3.345  1.00  0.00    -0.041 NA
HETATM    9  C   UNL     1      41.037 -14.509   1.823  1.00  0.00     0.202 A 
HETATM   10  C   UNL     1      42.301 -14.783   2.640  1.00  0.00     0.062 A 
HETATM   11  H   UNL     1      42.345 -12.072   4.504  1.00  0.00     0.184 HD
ENDROOT
BRANCH  10  12
HETATM   12  C   UNL     1      43.088 -16.041   2.378  1.00  0.00     0.256 C 
HETATM   13  N   UNL     1      42.602 -17.190   2.973  1.00  0.00    -0.323 N 
HETATM   14  H   UNL     1      41.701 -17.170   3.423  1.00  0.00     0.169 HD
HETATM   15  O   UNL     1      44.068 -16.002   1.640  1.00  0.00    -0.267 OA
BRANCH  13  16
HETATM   16  C   UNL     1      43.207 -18.468   2.971  1.00  0.00     0.035 A 
HETATM   17  C   UNL     1      43.065 -19.401   1.943  1.00  0.00     0.029 A 
HETATM   18  C   UNL     1      43.727 -20.632   2.005  1.00  0.00     0.002 A 
HETATM   19  C   UNL     1      44.531 -20.944   3.099  1.00  0.00     0.000 A 
HETATM   20  C   UNL     1      44.678 -20.022   4.131  1.00  0.00     0.002 A 
HETATM   21  C   UNL     1      44.024 -18.789   4.064  1.00  0.00     0.029 A 
ENDBRANCH  13  16
ENDBRANCH  10  12
BRANCH   9  22
HETATM   22  C   UNL     1      41.264 -14.466   0.313  1.00  0.00    -0.028 A 
HETATM   23  C   UNL     1      41.811 -13.338  -0.323  1.00  0.00     0.012 A 
HETATM   24  C   UNL     1      41.981 -13.315  -1.710  1.00  0.00     0.037 A 
HETATM   25  C   UNL     1      41.591 -14.414  -2.467  1.00  0.00     0.065 A 
HETATM   26  C   UNL     1      41.037 -15.534  -1.863  1.00  0.00     0.037 A 
HETATM   27  C   UNL     1      40.869 -15.560  -0.478  1.00  0.00     0.012 A 
BRANCH  25  28
HETATM   28  O   UNL     1      41.729 -14.428  -3.824  1.00  0.00    -0.361 OA
HETATM   29  H   UNL     1      40.848 -14.501  -4.224  1.00  0.00     0.217 HD
ENDBRANCH  25  28
ENDBRANCH   9  22
BRANCH   7  30
HETATM   30  C   UNL     1      37.773 -10.913   2.351  1.00  0.00     0.014 A 
HETATM   31  C   UNL     1      37.536  -9.853   3.241  1.00  0.00     0.017 A 
HETATM   32  C   UNL     1      36.400  -9.048   3.103  1.00  0.00     0.025 A 
HETATM   33  C   UNL     1      35.495  -9.298   2.074  1.00  0.00     0.034 A 
HETATM   34 CL   UNL     1      34.097  -8.310   1.907  1.00  0.00    -0.084 Cl
HETATM   35  C   UNL     1      35.716 -10.345   1.182  1.00  0.00     0.025 A 
HETATM   36  C   UNL     1      36.851 -11.150   1.321  1.00  0.00     0.017 A 
ENDBRANCH   7  30
TORSDOF 5
ENDMDL
MODEL 7
REMARK VINA RESULT:      -8.1      4.147      9.632
REMARK  5 active torsions:
REMARK  status: ('A' for Active; 'I' for Inactive)
REMARK    1  A    between atoms: C_7  and  C_8 
REMARK    2  A    between atoms: C_16  and  C_17 
REMARK    3  A    between atoms: C_20  and  O_21 
REMARK    4  A    between atoms: C_24  and  C_25 
REMARK       I    between atoms: C_25  and  N_26 
REMARK    5  A    between atoms: N_26  and  C_27 
ROOT
HETATM    1  C   UNL     1      39.468 -12.650   6.648  1.00  0.00     0.070 C 
HETATM    2  C   UNL     1      40.065 -13.377   5.465  1.00  0.00     0.037 A 
HETATM    3  N   UNL     1      40.398 -14.708   5.702  1.00  0.00    -0.192 N 
HETATM    4  C   UNL     1      41.046 -15.482   4.816  1.00  0.00     0.726 A 
HETATM    5  N   UNL     1      41.324 -14.983   3.582  1.00  0.00    -0.083 N 
HETATM    6  N   UNL     1      42.088 -15.830   2.864  1.00  0.00    -0.135 NA
HETATM    7  C   UNL     1      42.151 -16.891   3.693  1.00  0.00     0.199 A 
HETATM    8  N   UNL     1      41.528 -16.693   4.913  1.00  0.00    -0.041 NA
HETATM    9  C   UNL     1      40.949 -13.638   3.134  1.00  0.00     0.202 A 
HETATM   10  C   UNL     1      40.310 -12.809   4.251  1.00  0.00     0.062 A 
HETATM   11  H   UNL     1      40.226 -15.078   6.633  1.00  0.00     0.184 HD
ENDROOT
BRANCH  10  12
HETATM   12  C   UNL     1      39.921 -11.380   3.976  1.00  0.00     0.256 C 
HETATM   13  N   UNL     1      38.585 -11.165   3.691  1.00  0.00    -0.323 N 
HETATM   14  H   UNL     1      37.927 -11.917   3.812  1.00  0.00     0.169 HD
HETATM   15  O   UNL     1      40.766 -10.493   4.052  1.00  0.00    -0.267 OA
BRANCH  13  16
HETATM   16  C   UNL     1      37.987  -9.946   3.298  1.00  0.00     0.035 A 
HETATM   17  C   UNL     1      37.852  -9.529   1.972  1.00  0.00     0.029 A 
HETATM   18  C   UNL     1      37.215  -8.321   1.669  1.00  0.00     0.002 A 
HETATM   19  C   UNL     1      36.712  -7.516   2.687  1.00  0.00     0.000 A 
HETATM   20  C   UNL     1      36.841  -7.920   4.013  1.00  0.00     0.002 A 
HETATM   21  C   UNL     1      37.470  -9.131   4.315  1.00  0.00     0.029 A 
ENDBRANCH  13  16
ENDBRANCH  10  12
BRANCH   9  22
HETATM   22  C   UNL     1      40.098 -13.748   1.870  1.00  0.00    -0.028 A 
HETATM   23  C   UNL     1      38.768 -14.203   1.909  1.00  0.00     0.012 A 
HETATM   24  C   UNL     1      38.022 -14.322   0.734  1.00  0.00     0.037 A 
HETATM   25  C   UNL     1      38.606 -13.999  -0.485  1.00  0.00     0.065 A 
HETATM   26  C   UNL     1      39.921 -13.559  -0.550  1.00  0.00     0.037 A 
HETATM   27  C   UNL     1      40.667 -13.437   0.622  1.00  0.00     0.012 A 
BRANCH  25  28
HETATM   28  O   UNL     1      37.916 -14.112  -1.656  1.00  0.00    -0.361 OA
HETATM   29  H   UNL     1      37.042 -14.488  -1.466  1.00  0.00     0.217 HD
ENDBRANCH  25  28
ENDBRANCH   9  22
BRANCH   7  30
HETATM   30  C   UNL     1      42.828 -18.141   3.357  1.00  0.00     0.014 A 
HETATM   31  C   UNL     1      42.604 -18.772   2.123  1.00  0.00     0.017 A 
HETATM   32  C   UNL     1      43.248 -19.974   1.810  1.00  0.00     0.025 A 
HETATM   33  C   UNL     1      44.120 -20.551   2.730  1.00  0.00     0.034 A 
HETATM   34 CL   UNL     1      44.910 -22.030   2.346  1.00  0.00    -0.084 Cl
HETATM   35  C   UNL     1      44.354 -19.938   3.959  1.00  0.00     0.025 A 
HETATM   36  C   UNL     1      43.709 -18.738   4.271  1.00  0.00     0.017 A 
ENDBRANCH   7  30
TORSDOF 5
ENDMDL
MODEL 8
REMARK VINA RESULT:      -8.0      3.515      5.552
REMARK  5 active torsions:
REMARK  status: ('A' for Active; 'I' for Inactive)
REMARK    1  A    between atoms: C_7  and  C_8 
REMARK    2  A    between atoms: C_16  and  C_17 
REMARK    3  A    between atoms: C_20  and  O_21 
REMARK    4  A    between atoms: C_24  and  C_25 
REMARK       I    between atoms: C_25  and  N_26 
REMARK    5  A    between atoms: N_26  and  C_27 
ROOT
HETATM    1  C   UNL     1      37.370 -11.378   1.532  1.00  0.00     0.070 C 
HETATM    2  C   UNL     1      38.514 -11.623   2.490  1.00  0.00     0.037 A 
HETATM    3  N   UNL     1      38.236 -11.332   3.823  1.00  0.00    -0.192 N 
HETATM    4  C   UNL     1      39.155 -11.370   4.800  1.00  0.00     0.726 A 
HETATM    5  N   UNL     1      40.413 -11.799   4.508  1.00  0.00    -0.083 N 
HETATM    6  N   UNL     1      41.244 -11.653   5.560  1.00  0.00    -0.135 NA
HETATM    7  C   UNL     1      40.390 -11.225   6.510  1.00  0.00     0.199 A 
HETATM    8  N   UNL     1      39.096 -11.026   6.060  1.00  0.00    -0.041 NA
HETATM    9  C   UNL     1      40.843 -12.242   3.178  1.00  0.00     0.202 A 
HETATM   10  C   UNL     1      39.751 -12.060   2.122  1.00  0.00     0.062 A 
HETATM   11  H   UNL     1      37.309 -10.977   4.043  1.00  0.00     0.184 HD
ENDROOT
BRANCH  10  12
HETATM   12  C   UNL     1      40.050 -12.410   0.687  1.00  0.00     0.256 C 
HETATM   13  N   UNL     1      39.521 -13.605   0.237  1.00  0.00    -0.323 N 
HETATM   14  H   UNL     1      38.866 -14.105   0.817  1.00  0.00     0.169 HD
HETATM   15  O   UNL     1      40.693 -11.630  -0.008  1.00  0.00    -0.267 OA
BRANCH  13  16
HETATM   16  C   UNL     1      39.739 -14.209  -1.023  1.00  0.00     0.035 A 
HETATM   17  C   UNL     1      40.850 -14.994  -1.334  1.00  0.00     0.029 A 
HETATM   18  C   UNL     1      40.971 -15.584  -2.597  1.00  0.00     0.002 A 
HETATM   19  C   UNL     1      39.985 -15.390  -3.562  1.00  0.00     0.000 A 
HETATM   20  C   UNL     1      38.874 -14.608  -3.263  1.00  0.00     0.002 A 
HETATM   21  C   UNL     1      38.748 -14.026  -1.998  1.00  0.00     0.029 A 
ENDBRANCH  13  16
ENDBRANCH  10  12
BRANCH   9  22
HETATM   22  C   UNL     1      41.390 -13.665   3.275  1.00  0.00    -0.028 A 
HETATM   23  C   UNL     1      42.732 -13.965   2.981  1.00  0.00     0.012 A 
HETATM   24  C   UNL     1      43.199 -15.281   3.050  1.00  0.00     0.037 A 
HETATM   25  C   UNL     1      42.322 -16.302   3.398  1.00  0.00     0.065 A 
HETATM   26  C   UNL     1      40.991 -16.032   3.681  1.00  0.00     0.037 A 
HETATM   27  C   UNL     1      40.523 -14.719   3.616  1.00  0.00     0.012 A 
BRANCH  25  28
HETATM   28  O   UNL     1      42.734 -17.600   3.466  1.00  0.00    -0.361 OA
HETATM   29  H   UNL     1      42.862 -17.837   4.398  1.00  0.00     0.217 HD
ENDBRANCH  25  28
ENDBRANCH   9  22
BRANCH   7  30
HETATM   30  C   UNL     1      40.781 -10.970   7.894  1.00  0.00     0.014 A 
HETATM   31  C   UNL     1      39.836 -11.032   8.931  1.00  0.00     0.017 A 
HETATM   32  C   UNL     1      40.214 -10.779  10.255  1.00  0.00     0.025 A 
HETATM   33  C   UNL     1      41.539 -10.464  10.548  1.00  0.00     0.034 A 
HETATM   34 CL   UNL     1      42.002 -10.151  12.175  1.00  0.00    -0.084 Cl
HETATM   35  C   UNL     1      42.488 -10.399   9.531  1.00  0.00     0.025 A 
HETATM   36  C   UNL     1      42.110 -10.651   8.209  1.00  0.00     0.017 A 
ENDBRANCH   7  30
TORSDOF 5
ENDMDL
MODEL 9
REMARK VINA RESULT:      -8.0      4.758      6.749
REMARK  5 active torsions:
REMARK  status: ('A' for Active; 'I' for Inactive)
REMARK    1  A    between atoms: C_7  and  C_8 
REMARK    2  A    between atoms: C_16  and  C_17 
REMARK    3  A    between atoms: C_20  and  O_21 
REMARK    4  A    between atoms: C_24  and  C_25 
REMARK       I    between atoms: C_25  and  N_26 
REMARK    5  A    between atoms: N_26  and  C_27 
ROOT
HETATM    1  C   UNL     1      41.160 -13.331   4.754  1.00  0.00     0.070 C 
HETATM    2  C   UNL     1      40.457 -13.295   3.416  1.00  0.00     0.037 A 
HETATM    3  N   UNL     1      39.443 -12.346   3.312  1.00  0.00    -0.192 N 
HETATM    4  C   UNL     1      38.628 -12.242   2.250  1.00  0.00     0.726 A 
HETATM    5  N   UNL     1      38.844 -13.040   1.170  1.00  0.00    -0.083 N 
HETATM    6  N   UNL     1      37.867 -12.906   0.251  1.00  0.00    -0.135 NA
HETATM    7  C   UNL     1      37.132 -11.915   0.792  1.00  0.00     0.199 A 
HETATM    8  N   UNL     1      37.573 -11.499   2.037  1.00  0.00    -0.041 NA
HETATM    9  C   UNL     1      39.932 -14.018   1.074  1.00  0.00     0.202 A 
HETATM   10  C   UNL     1      40.733 -14.127   2.373  1.00  0.00     0.062 A 
HETATM   11  H   UNL     1      39.252 -11.770   4.128  1.00  0.00     0.184 HD
ENDROOT
BRANCH  10  12
HETATM   12  C   UNL     1      41.851 -15.133   2.466  1.00  0.00     0.256 C 
HETATM   13  N   UNL     1      41.463 -16.453   2.602  1.00  0.00    -0.323 N 
HETATM   14  H   UNL     1      40.492 -16.696   2.497  1.00  0.00     0.169 HD
HETATM   15  O   UNL     1      43.016 -14.757   2.378  1.00  0.00    -0.267 OA
BRANCH  13  16
HETATM   16  C   UNL     1      42.307 -17.568   2.813  1.00  0.00     0.035 A 
HETATM   17  C   UNL     1      42.744 -18.423   1.800  1.00  0.00     0.029 A 
HETATM   18  C   UNL     1      43.607 -19.486   2.091  1.00  0.00     0.002 A 
HETATM   19  C   UNL     1      44.035 -19.706   3.398  1.00  0.00     0.000 A 
HETATM   20  C   UNL     1      43.604 -18.861   4.416  1.00  0.00     0.002 A 
HETATM   21  C   UNL     1      42.750 -17.795   4.124  1.00  0.00     0.029 A 
ENDBRANCH  13  16
ENDBRANCH  10  12
BRANCH   9  22
HETATM   22  C   UNL     1      40.778 -13.709  -0.159  1.00  0.00    -0.028 A 
HETATM   23  C   UNL     1      41.615 -12.581  -0.221  1.00  0.00     0.012 A 
HETATM   24  C   UNL     1      42.356 -12.306  -1.373  1.00  0.00     0.037 A 
HETATM   25  C   UNL     1      42.252 -13.150  -2.473  1.00  0.00     0.065 A 
HETATM   26  C   UNL     1      41.423 -14.263  -2.441  1.00  0.00     0.037 A 
HETATM   27  C   UNL     1      40.684 -14.541  -1.290  1.00  0.00     0.012 A 
BRANCH  25  28
HETATM   28  O   UNL     1      42.949 -12.912  -3.621  1.00  0.00    -0.361 OA
HETATM   29  H   UNL     1      42.894 -11.965  -3.826  1.00  0.00     0.217 HD
ENDBRANCH  25  28
ENDBRANCH   9  22
BRANCH   7  30
HETATM   30  C   UNL     1      35.960 -11.331   0.146  1.00  0.00     0.014 A 
HETATM   31  C   UNL     1      34.831 -10.965   0.898  1.00  0.00     0.017 A 
HETATM   32  C   UNL     1      33.708 -10.413   0.273  1.00  0.00     0.025 A 
HETATM   33  C   UNL     1      33.707 -10.223  -1.107  1.00  0.00     0.034 A 
HETATM   34 CL   UNL     1      32.324  -9.547  -1.875  1.00  0.00    -0.084 Cl
HETATM   35  C   UNL     1      34.818 -10.579  -1.867  1.00  0.00     0.025 A 
HETATM   36  C   UNL     1      35.940 -11.132  -1.242  1.00  0.00     0.017 A 
ENDBRANCH   7  30
TORSDOF 5
ENDMDL
MODEL 10
REMARK VINA RESULT:      -7.9      6.402     10.118
REMARK  5 active torsions:
REMARK  status: ('A' for Active; 'I' for Inactive)
REMARK    1  A    between atoms: C_7  and  C_8 
REMARK    2  A    between atoms: C_16  and  C_17 
REMARK    3  A    between atoms: C_20  and  O_21 
REMARK    4  A    between atoms: C_24  and  C_25 
REMARK       I    between atoms: C_25  and  N_26 
REMARK    5  A    between atoms: N_26  and  C_27 
ROOT
HETATM    1  C   UNL     1      41.088  -9.952   1.217  1.00  0.00     0.070 C 
HETATM    2  C   UNL     1      41.322 -11.380   0.779  1.00  0.00     0.037 A 
HETATM    3  N   UNL     1      41.492 -12.292   1.817  1.00  0.00    -0.192 N 
HETATM    4  C   UNL     1      41.827 -13.579   1.630  1.00  0.00     0.726 A 
HETATM    5  N   UNL     1      41.927 -14.057   0.361  1.00  0.00    -0.083 N 
HETATM    6  N   UNL     1      42.398 -15.320   0.343  1.00  0.00    -0.135 NA
HETATM    7  C   UNL     1      42.463 -15.594   1.661  1.00  0.00     0.199 A 
HETATM    8  N   UNL     1      42.131 -14.526   2.477  1.00  0.00    -0.041 NA
HETATM    9  C   UNL     1      41.679 -13.258  -0.842  1.00  0.00     0.202 A 
HETATM   10  C   UNL     1      41.406 -11.788  -0.519  1.00  0.00     0.062 A 
HETATM   11  H   UNL     1      41.453 -11.935   2.768  1.00  0.00     0.184 HD
ENDROOT
BRANCH  10  12
HETATM   12  C   UNL     1      41.190 -10.814  -1.648  1.00  0.00     0.256 C 
HETATM   13  N   UNL     1      42.313 -10.492  -2.387  1.00  0.00    -0.323 N 
HETATM   14  H   UNL     1      43.166 -11.005  -2.239  1.00  0.00     0.169 HD
HETATM   15  O   UNL     1      40.061 -10.394  -1.882  1.00  0.00    -0.267 OA
BRANCH  13  16
HETATM   16  C   UNL     1      42.401  -9.533  -3.423  1.00  0.00     0.035 A 
HETATM   17  C   UNL     1      42.479  -8.155  -3.211  1.00  0.00     0.029 A 
HETATM   18  C   UNL     1      42.598  -7.276  -4.293  1.00  0.00     0.002 A 
HETATM   19  C   UNL     1      42.636  -7.766  -5.597  1.00  0.00     0.000 A 
HETATM   20  C   UNL     1      42.558  -9.138  -5.819  1.00  0.00     0.002 A 
HETATM   21  C   UNL     1      42.447 -10.016  -4.738  1.00  0.00     0.029 A 
ENDBRANCH  13  16
ENDBRANCH  10  12
BRANCH   9  22
HETATM   22  C   UNL     1      40.588 -13.929  -1.675  1.00  0.00    -0.028 A 
HETATM   23  C   UNL     1      40.890 -14.687  -2.821  1.00  0.00     0.012 A 
HETATM   24  C   UNL     1      39.870 -15.265  -3.581  1.00  0.00     0.037 A 
HETATM   25  C   UNL     1      38.544 -15.077  -3.206  1.00  0.00     0.065 A 
HETATM   26  C   UNL     1      38.221 -14.324  -2.087  1.00  0.00     0.037 A 
HETATM   27  C   UNL     1      39.238 -13.747  -1.325  1.00  0.00     0.012 A 
BRANCH  25  28
HETATM   28  O   UNL     1      37.519 -15.615  -3.927  1.00  0.00    -0.361 OA
HETATM   29  H   UNL     1      37.359 -16.519  -3.612  1.00  0.00     0.217 HD
ENDBRANCH  25  28
ENDBRANCH   9  22
BRANCH   7  30
HETATM   30  C   UNL     1      42.863 -16.891   2.200  1.00  0.00     0.014 A 
HETATM   31  C   UNL     1      42.713 -17.181   3.566  1.00  0.00     0.017 A 
HETATM   32  C   UNL     1      43.105 -18.422   4.078  1.00  0.00     0.025 A 
HETATM   33  C   UNL     1      43.650 -19.381   3.228  1.00  0.00     0.034 A 
HETATM   34 CL   UNL     1      44.134 -20.906   3.859  1.00  0.00    -0.084 Cl
HETATM   35  C   UNL     1      43.805 -19.111   1.870  1.00  0.00     0.025 A 
HETATM   36  C   UNL     1      43.413 -17.870   1.359  1.00  0.00     0.017 A 
ENDBRANCH   7  30
TORSDOF 5
ENDMDL
