MODEL 1
REMARK VINA RESULT:      -8.2      0.000      0.000
REMARK  2 active torsions:
REMARK  status: ('A' for Active; 'I' for Inactive)
REMARK    1  A    between atoms: C_2  and  C_3 
REMARK    2  A    between atoms: C_6  and  C_7 
ROOT
HETATM    1  C   UNL     1      42.099 -16.502   5.063  1.00  0.00     0.119 C 
HETATM    2  S   UNL     1      40.920 -15.740   3.914  1.00  0.00    -0.141 SA
HETATM    3  C   UNL     1      41.273 -13.970   4.098  1.00  0.00     0.136 C 
HETATM    4  C   UNL     1      40.141 -13.179   3.444  1.00  0.00     0.031 C 
HETATM    5  C   UNL     1      42.599 -13.632   3.441  1.00  0.00     0.236 C 
HETATM    6  O   UNL     1      42.743 -13.054   2.376  1.00  0.00    -0.272 OA
HETATM    7  N   UNL     1      43.816 -13.900   4.138  1.00  0.00    -0.311 N 
HETATM    8  C   UNL     1      43.892 -14.594   5.324  1.00  0.00     0.134 C 
HETATM    9  C   UNL     1      43.119 -15.653   5.762  1.00  0.00     0.032 C 
HETATM   10  N   UNL     1      44.835 -14.371   6.290  1.00  0.00    -0.262 N 
HETATM   11  H   UNL     1      45.598 -13.705   6.286  1.00  0.00     0.191 HD
HETATM   12  N   UNL     1      44.626 -15.073   7.406  1.00  0.00    -0.178 NA
HETATM   13  C   UNL     1      43.609 -15.884   7.095  1.00  0.00     0.062 C 
HETATM   14  C   UNL     1      43.162 -16.897   8.089  1.00  0.00     0.073 C 
HETATM   15  H   UNL     1      44.635 -13.445   3.751  1.00  0.00     0.170 HD
ENDROOT
BRANCH   1  16
HETATM   16  C   UNL     1      42.911 -17.610   4.402  1.00  0.00    -0.040 A 
HETATM   17  C   UNL     1      43.401 -18.719   5.116  1.00  0.00     0.009 A 
HETATM   18  C   UNL     1      44.071 -19.756   4.462  1.00  0.00     0.007 A 
HETATM   19  C   UNL     1      44.277 -19.711   3.080  1.00  0.00    -0.059 A 
HETATM   20  C   UNL     1      43.820 -18.600   2.364  1.00  0.00     0.007 A 
HETATM   21  C   UNL     1      43.152 -17.560   3.018  1.00  0.00     0.009 A 
BRANCH  19  22
HETATM   22  C   UNL     1      44.937 -20.863   2.367  1.00  0.00     0.034 C 
HETATM   23  C   UNL     1      43.911 -21.743   1.668  1.00  0.00     0.010 C 
ENDBRANCH  19  22
ENDBRANCH   1  16
TORSDOF 2
ENDMDL
MODEL 2
REMARK VINA RESULT:      -8.1      2.908      4.418
REMARK  2 active torsions:
REMARK  status: ('A' for Active; 'I' for Inactive)
REMARK    1  A    between atoms: C_2  and  C_3 
REMARK    2  A    between atoms: C_6  and  C_7 
ROOT
HETATM    1  C   UNL     1      42.650 -14.883   2.552  1.00  0.00     0.119 C 
HETATM    2  S   UNL     1      43.093 -14.069   4.112  1.00  0.00    -0.141 SA
HETATM    3  C   UNL     1      41.538 -13.270   4.599  1.00  0.00     0.136 C 
HETATM    4  C   UNL     1      41.834 -12.275   5.719  1.00  0.00     0.031 C 
HETATM    5  C   UNL     1      40.543 -14.315   5.073  1.00  0.00     0.236 C 
HETATM    6  O   UNL     1      40.230 -14.531   6.233  1.00  0.00    -0.272 OA
HETATM    7  N   UNL     1      39.802 -15.066   4.111  1.00  0.00    -0.311 N 
HETATM    8  C   UNL     1      40.030 -15.025   2.755  1.00  0.00     0.134 C 
HETATM    9  C   UNL     1      41.226 -14.872   2.079  1.00  0.00     0.032 C 
HETATM   10  N   UNL     1      39.062 -15.195   1.804  1.00  0.00    -0.262 N 
HETATM   11  H   UNL     1      38.074 -15.384   1.934  1.00  0.00     0.191 HD
HETATM   12  N   UNL     1      39.497 -14.980   0.560  1.00  0.00    -0.178 NA
HETATM   13  C   UNL     1      40.816 -14.815   0.701  1.00  0.00     0.062 C 
HETATM   14  C   UNL     1      41.658 -14.649  -0.515  1.00  0.00     0.073 C 
HETATM   15  H   UNL     1      39.004 -15.566   4.487  1.00  0.00     0.170 HD
ENDROOT
BRANCH   1  16
HETATM   16  C   UNL     1      43.046 -16.355   2.540  1.00  0.00    -0.040 A 
HETATM   17  C   UNL     1      43.619 -16.976   1.415  1.00  0.00     0.009 A 
HETATM   18  C   UNL     1      44.044 -18.306   1.467  1.00  0.00     0.007 A 
HETATM   19  C   UNL     1      43.903 -19.053   2.639  1.00  0.00    -0.059 A 
HETATM   20  C   UNL     1      43.308 -18.456   3.755  1.00  0.00     0.007 A 
HETATM   21  C   UNL     1      42.879 -17.127   3.704  1.00  0.00     0.009 A 
BRANCH  19  22
HETATM   22  C   UNL     1      44.427 -20.465   2.714  1.00  0.00     0.034 C 
HETATM   23  C   UNL     1      43.676 -21.386   1.763  1.00  0.00     0.010 C 
ENDBRANCH  19  22
ENDBRANCH   1  16
TORSDOF 2
ENDMDL
MODEL 3
REMARK VINA RESULT:      -7.8      1.811      2.615
REMARK  2 active torsions:
REMARK  status: ('A' for Active; 'I' for Inactive)
REMARK    1  A    between atoms: C_2  and  C_3 
REMARK    2  A    between atoms: C_6  and  C_7 
ROOT
HETATM    1  C   UNL     1      41.153 -16.316   3.523  1.00  0.00     0.119 C 
HETATM    2  S   UNL     1      39.710 -16.290   2.424  1.00  0.00    -0.141 SA
HETATM    3  C   UNL     1      39.749 -14.603   1.757  1.00  0.00     0.136 C 
HETATM    4  C   UNL     1      38.413 -14.321   1.072  1.00  0.00     0.031 C 
HETATM    5  C   UNL     1      40.889 -14.462   0.764  1.00  0.00     0.236 C 
HETATM    6  O   UNL     1      40.779 -14.420  -0.451  1.00  0.00    -0.272 OA
HETATM    7  N   UNL     1      42.217 -14.253   1.245  1.00  0.00    -0.311 N 
HETATM    8  C   UNL     1      42.579 -14.320   2.571  1.00  0.00     0.134 C 
HETATM    9  C   UNL     1      42.082 -15.140   3.567  1.00  0.00     0.032 C 
HETATM   10  N   UNL     1      43.585 -13.583   3.135  1.00  0.00    -0.262 N 
HETATM   11  H   UNL     1      44.204 -12.915   2.691  1.00  0.00     0.191 HD
HETATM   12  N   UNL     1      43.662 -13.720   4.461  1.00  0.00    -0.178 NA
HETATM   13  C   UNL     1      42.781 -14.685   4.741  1.00  0.00     0.062 C 
HETATM   14  C   UNL     1      42.668 -15.178   6.141  1.00  0.00     0.073 C 
HETATM   15  H   UNL     1      42.878 -13.939   0.543  1.00  0.00     0.170 HD
ENDROOT
BRANCH   1  16
HETATM   16  C   UNL     1      42.061 -17.511   3.250  1.00  0.00    -0.040 A 
HETATM   17  C   UNL     1      42.406 -17.917   1.948  1.00  0.00     0.009 A 
HETATM   18  C   UNL     1      43.306 -18.966   1.737  1.00  0.00     0.007 A 
HETATM   19  C   UNL     1      43.878 -19.641   2.818  1.00  0.00    -0.059 A 
HETATM   20  C   UNL     1      43.519 -19.265   4.117  1.00  0.00     0.007 A 
HETATM   21  C   UNL     1      42.617 -18.219   4.329  1.00  0.00     0.009 A 
BRANCH  19  22
HETATM   22  C   UNL     1      44.901 -20.724   2.589  1.00  0.00     0.034 C 
HETATM   23  C   UNL     1      44.298 -21.907   1.847  1.00  0.00     0.010 C 
ENDBRANCH  19  22
ENDBRANCH   1  16
TORSDOF 2
ENDMDL
MODEL 4
REMARK VINA RESULT:      -7.7      2.882      4.325
REMARK  2 active torsions:
REMARK  status: ('A' for Active; 'I' for Inactive)
REMARK    1  A    between atoms: C_2  and  C_3 
REMARK    2  A    between atoms: C_6  and  C_7 
ROOT
HETATM    1  C   UNL     1      43.040 -15.680   3.660  1.00  0.00     0.119 C 
HETATM    2  S   UNL     1      43.000 -14.045   4.446  1.00  0.00    -0.141 SA
HETATM    3  C   UNL     1      41.508 -13.298   3.733  1.00  0.00     0.136 C 
HETATM    4  C   UNL     1      41.518 -11.802   4.044  1.00  0.00     0.031 C 
HETATM    5  C   UNL     1      40.268 -13.949   4.321  1.00  0.00     0.236 C 
HETATM    6  O   UNL     1      39.528 -13.455   5.156  1.00  0.00    -0.272 OA
HETATM    7  N   UNL     1      39.826 -15.207   3.810  1.00  0.00    -0.311 N 
HETATM    8  C   UNL     1      40.534 -15.968   2.908  1.00  0.00     0.134 C 
HETATM    9  C   UNL     1      41.903 -16.119   2.785  1.00  0.00     0.032 C 
HETATM   10  N   UNL     1      39.964 -16.787   1.973  1.00  0.00    -0.262 N 
HETATM   11  H   UNL     1      38.981 -16.969   1.808  1.00  0.00     0.191 HD
HETATM   12  N   UNL     1      40.848 -17.319   1.125  1.00  0.00    -0.178 NA
HETATM   13  C   UNL     1      42.035 -16.953   1.620  1.00  0.00     0.062 C 
HETATM   14  C   UNL     1      43.275 -17.461   0.973  1.00  0.00     0.073 C 
HETATM   15  H   UNL     1      38.883 -15.465   4.077  1.00  0.00     0.170 HD
ENDROOT
BRANCH   1  16
HETATM   16  C   UNL     1      43.195 -16.803   4.679  1.00  0.00    -0.040 A 
HETATM   17  C   UNL     1      43.974 -17.948   4.430  1.00  0.00     0.009 A 
HETATM   18  C   UNL     1      44.160 -18.920   5.418  1.00  0.00     0.007 A 
HETATM   19  C   UNL     1      43.568 -18.778   6.676  1.00  0.00    -0.059 A 
HETATM   20  C   UNL     1      42.767 -17.659   6.924  1.00  0.00     0.007 A 
HETATM   21  C   UNL     1      42.578 -16.688   5.936  1.00  0.00     0.009 A 
BRANCH  19  22
HETATM   22  C   UNL     1      43.827 -19.791   7.761  1.00  0.00     0.034 C 
HETATM   23  C   UNL     1      43.621 -21.211   7.255  1.00  0.00     0.010 C 
ENDBRANCH  19  22
ENDBRANCH   1  16
TORSDOF 2
ENDMDL
MODEL 5
REMARK VINA RESULT:      -7.0      2.343      3.008
REMARK  2 active torsions:
REMARK  status: ('A' for Active; 'I' for Inactive)
REMARK    1  A    between atoms: C_2  and  C_3 
REMARK    2  A    between atoms: C_6  and  C_7 
ROOT
HETATM    1  C   UNL     1      40.593 -15.193   2.664  1.00  0.00     0.119 C 
HETATM    2  S   UNL     1      39.997 -14.833   0.989  1.00  0.00    -0.141 SA
HETATM    3  C   UNL     1      40.231 -13.038   0.861  1.00  0.00     0.136 C 
HETATM    4  C   UNL     1      39.472 -12.536  -0.366  1.00  0.00     0.031 C 
HETATM    5  C   UNL     1      41.709 -12.714   0.734  1.00  0.00     0.236 C 
HETATM    6  O   UNL     1      42.282 -12.372  -0.288  1.00  0.00    -0.272 OA
HETATM    7  N   UNL     1      42.526 -12.690   1.905  1.00  0.00    -0.311 N 
HETATM    8  C   UNL     1      42.103 -13.094   3.151  1.00  0.00     0.134 C 
HETATM    9  C   UNL     1      41.224 -14.107   3.484  1.00  0.00     0.032 C 
HETATM   10  N   UNL     1      42.555 -12.564   4.329  1.00  0.00    -0.262 N 
HETATM   11  H   UNL     1      43.247 -11.837   4.470  1.00  0.00     0.191 HD
HETATM   12  N   UNL     1      41.903 -13.022   5.400  1.00  0.00    -0.178 NA
HETATM   13  C   UNL     1      41.113 -13.985   4.914  1.00  0.00     0.062 C 
HETATM   14  C   UNL     1      40.298 -14.797   5.858  1.00  0.00     0.073 C 
HETATM   15  H   UNL     1      43.429 -12.246   1.783  1.00  0.00     0.170 HD
ENDROOT
BRANCH   1  16
HETATM   16  C   UNL     1      41.613 -16.326   2.680  1.00  0.00    -0.040 A 
HETATM   17  C   UNL     1      41.626 -17.319   3.676  1.00  0.00     0.009 A 
HETATM   18  C   UNL     1      42.524 -18.388   3.614  1.00  0.00     0.007 A 
HETATM   19  C   UNL     1      43.436 -18.491   2.560  1.00  0.00    -0.059 A 
HETATM   20  C   UNL     1      43.452 -17.494   1.580  1.00  0.00     0.007 A 
HETATM   21  C   UNL     1      42.557 -16.423   1.642  1.00  0.00     0.009 A 
BRANCH  19  22
HETATM   22  C   UNL     1      44.354 -19.682   2.458  1.00  0.00     0.034 C 
HETATM   23  C   UNL     1      44.713 -20.225   3.833  1.00  0.00     0.010 C 
ENDBRANCH  19  22
ENDBRANCH   1  16
TORSDOF 2
ENDMDL
MODEL 6
REMARK VINA RESULT:      -6.8      3.310      6.073
REMARK  2 active torsions:
REMARK  status: ('A' for Active; 'I' for Inactive)
REMARK    1  A    between atoms: C_2  and  C_3 
REMARK    2  A    between atoms: C_6  and  C_7 
ROOT
HETATM    1  C   UNL     1      42.430 -13.832   4.790  1.00  0.00     0.119 C 
HETATM    2  S   UNL     1      41.734 -12.365   3.981  1.00  0.00    -0.141 SA
HETATM    3  C   UNL     1      39.988 -12.815   3.777  1.00  0.00     0.136 C 
HETATM    4  C   UNL     1      39.339 -11.820   2.816  1.00  0.00     0.031 C 
HETATM    5  C   UNL     1      39.282 -12.784   5.121  1.00  0.00     0.236 C 
HETATM    6  O   UNL     1      38.511 -11.920   5.506  1.00  0.00    -0.272 OA
HETATM    7  N   UNL     1      39.416 -13.894   6.010  1.00  0.00    -0.311 N 
HETATM    8  C   UNL     1      40.275 -14.950   5.806  1.00  0.00     0.134 C 
HETATM    9  C   UNL     1      41.527 -14.950   5.220  1.00  0.00     0.032 C 
HETATM   10  N   UNL     1      40.037 -16.230   6.223  1.00  0.00    -0.262 N 
HETATM   11  H   UNL     1      39.241 -16.590   6.736  1.00  0.00     0.191 HD
HETATM   12  N   UNL     1      40.949 -17.105   5.794  1.00  0.00    -0.178 NA
HETATM   13  C   UNL     1      41.881 -16.345   5.211  1.00  0.00     0.062 C 
HETATM   14  C   UNL     1      43.121 -16.988   4.695  1.00  0.00     0.073 C 
HETATM   15  H   UNL     1      38.745 -13.912   6.770  1.00  0.00     0.170 HD
ENDROOT
BRANCH   1  16
HETATM   16  C   UNL     1      43.221 -13.475   6.044  1.00  0.00    -0.040 A 
HETATM   17  C   UNL     1      44.453 -14.076   6.358  1.00  0.00     0.009 A 
HETATM   18  C   UNL     1      45.190 -13.666   7.473  1.00  0.00     0.007 A 
HETATM   19  C   UNL     1      44.713 -12.651   8.307  1.00  0.00    -0.059 A 
HETATM   20  C   UNL     1      43.475 -12.067   8.021  1.00  0.00     0.007 A 
HETATM   21  C   UNL     1      42.736 -12.478   6.908  1.00  0.00     0.009 A 
BRANCH  19  22
HETATM   22  C   UNL     1      45.542 -12.163   9.467  1.00  0.00     0.034 C 
HETATM   23  C   UNL     1      45.082 -10.790   9.936  1.00  0.00     0.010 C 
ENDBRANCH  19  22
ENDBRANCH   1  16
TORSDOF 2
ENDMDL
MODEL 7
REMARK VINA RESULT:      -6.7      5.230      7.016
REMARK  2 active torsions:
REMARK  status: ('A' for Active; 'I' for Inactive)
REMARK    1  A    between atoms: C_2  and  C_3 
REMARK    2  A    between atoms: C_6  and  C_7 
ROOT
HETATM    1  C   UNL     1      40.389 -13.701  -0.498  1.00  0.00     0.119 C 
HETATM    2  S   UNL     1      38.795 -14.313  -1.112  1.00  0.00    -0.141 SA
HETATM    3  C   UNL     1      38.892 -13.960  -2.890  1.00  0.00     0.136 C 
HETATM    4  C   UNL     1      37.497 -14.116  -3.492  1.00  0.00     0.031 C 
HETATM    5  C   UNL     1      39.863 -14.916  -3.559  1.00  0.00     0.236 C 
HETATM    6  O   UNL     1      39.562 -15.869  -4.259  1.00  0.00    -0.272 OA
HETATM    7  N   UNL     1      41.266 -14.662  -3.479  1.00  0.00    -0.311 N 
HETATM    8  C   UNL     1      41.831 -13.678  -2.700  1.00  0.00     0.134 C 
HETATM    9  C   UNL     1      41.425 -13.208  -1.464  1.00  0.00     0.032 C 
HETATM   10  N   UNL     1      42.983 -13.010  -3.013  1.00  0.00    -0.262 N 
HETATM   11  H   UNL     1      43.584 -13.132  -3.820  1.00  0.00     0.191 HD
HETATM   12  N   UNL     1      43.261 -12.010  -2.174  1.00  0.00    -0.178 NA
HETATM   13  C   UNL     1      42.346 -12.133  -1.207  1.00  0.00     0.062 C 
HETATM   14  C   UNL     1      42.415 -11.228  -0.027  1.00  0.00     0.073 C 
HETATM   15  H   UNL     1      41.832 -15.194  -4.131  1.00  0.00     0.170 HD
ENDROOT
BRANCH   1  16
HETATM   16  C   UNL     1      41.117 -14.742   0.345  1.00  0.00    -0.040 A 
HETATM   17  C   UNL     1      41.362 -16.050  -0.111  1.00  0.00     0.009 A 
HETATM   18  C   UNL     1      42.104 -16.952   0.657  1.00  0.00     0.007 A 
HETATM   19  C   UNL     1      42.615 -16.575   1.902  1.00  0.00    -0.059 A 
HETATM   20  C   UNL     1      42.352 -15.287   2.379  1.00  0.00     0.007 A 
HETATM   21  C   UNL     1      41.608 -14.385   1.614  1.00  0.00     0.009 A 
BRANCH  19  22
HETATM   22  C   UNL     1      43.474 -17.526   2.695  1.00  0.00     0.034 C 
HETATM   23  C   UNL     1      43.493 -18.911   2.066  1.00  0.00     0.010 C 
ENDBRANCH  19  22
ENDBRANCH   1  16
TORSDOF 2
ENDMDL
MODEL 8
REMARK VINA RESULT:      -6.5      4.006      5.675
REMARK  2 active torsions:
REMARK  status: ('A' for Active; 'I' for Inactive)
REMARK    1  A    between atoms: C_2  and  C_3 
REMARK    2  A    between atoms: C_6  and  C_7 
ROOT
HETATM    1  C   UNL     1      39.881 -14.049   0.105  1.00  0.00     0.119 C 
HETATM    2  S   UNL     1      39.735 -14.152  -1.700  1.00  0.00    -0.141 SA
HETATM    3  C   UNL     1      40.425 -12.565  -2.247  1.00  0.00     0.136 C 
HETATM    4  C   UNL     1      40.070 -12.363  -3.719  1.00  0.00     0.031 C 
HETATM    5  C   UNL     1      41.932 -12.562  -2.064  1.00  0.00     0.236 C 
HETATM    6  O   UNL     1      42.761 -12.675  -2.953  1.00  0.00    -0.272 OA
HETATM    7  N   UNL     1      42.482 -12.304  -0.772  1.00  0.00    -0.311 N 
HETATM    8  C   UNL     1      41.737 -12.203   0.380  1.00  0.00     0.134 C 
HETATM    9  C   UNL     1      40.586 -12.884   0.734  1.00  0.00     0.032 C 
HETATM   10  N   UNL     1      42.064 -11.408   1.445  1.00  0.00    -0.262 N 
HETATM   11  H   UNL     1      42.872 -10.807   1.559  1.00  0.00     0.191 HD
HETATM   12  N   UNL     1      41.122 -11.374   2.389  1.00  0.00    -0.178 NA
HETATM   13  C   UNL     1      40.230 -12.288   1.995  1.00  0.00     0.062 C 
HETATM   14  C   UNL     1      39.070 -12.596   2.875  1.00  0.00     0.073 C 
HETATM   15  H   UNL     1      43.473 -12.088  -0.768  1.00  0.00     0.170 HD
ENDROOT
BRANCH   1  16
HETATM   16  C   UNL     1      40.567 -15.276   0.696  1.00  0.00    -0.040 A 
HETATM   17  C   UNL     1      41.749 -15.816   0.157  1.00  0.00     0.009 A 
HETATM   18  C   UNL     1      42.394 -16.892   0.774  1.00  0.00     0.007 A 
HETATM   19  C   UNL     1      41.874 -17.460   1.939  1.00  0.00    -0.059 A 
HETATM   20  C   UNL     1      40.684 -16.951   2.468  1.00  0.00     0.007 A 
HETATM   21  C   UNL     1      40.035 -15.877   1.850  1.00  0.00     0.009 A 
BRANCH  19  22
HETATM   22  C   UNL     1      42.609 -18.573   2.641  1.00  0.00     0.034 C 
HETATM   23  C   UNL     1      44.017 -18.741   2.089  1.00  0.00     0.010 C 
ENDBRANCH  19  22
ENDBRANCH   1  16
TORSDOF 2
ENDMDL
MODEL 9
REMARK VINA RESULT:      -6.3      3.290      6.078
REMARK  2 active torsions:
REMARK  status: ('A' for Active; 'I' for Inactive)
REMARK    1  A    between atoms: C_2  and  C_3 
REMARK    2  A    between atoms: C_6  and  C_7 
ROOT
HETATM    1  C   UNL     1      41.777 -14.023   3.738  1.00  0.00     0.119 C 
HETATM    2  S   UNL     1      42.773 -15.537   3.645  1.00  0.00    -0.141 SA
HETATM    3  C   UNL     1      42.661 -16.191   5.334  1.00  0.00     0.136 C 
HETATM    4  C   UNL     1      43.714 -17.285   5.502  1.00  0.00     0.031 C 
HETATM    5  C   UNL     1      41.273 -16.754   5.583  1.00  0.00     0.236 C 
HETATM    6  O   UNL     1      40.978 -17.938   5.626  1.00  0.00    -0.272 OA
HETATM    7  N   UNL     1      40.202 -15.866   5.906  1.00  0.00    -0.311 N 
HETATM    8  C   UNL     1      40.295 -14.494   5.861  1.00  0.00     0.134 C 
HETATM    9  C   UNL     1      41.021 -13.700   4.992  1.00  0.00     0.032 C 
HETATM   10  N   UNL     1      39.601 -13.646   6.680  1.00  0.00    -0.262 N 
HETATM   11  H   UNL     1      38.930 -13.875   7.404  1.00  0.00     0.191 HD
HETATM   12  N   UNL     1      39.955 -12.367   6.540  1.00  0.00    -0.178 NA
HETATM   13  C   UNL     1      40.792 -12.372   5.498  1.00  0.00     0.062 C 
HETATM   14  C   UNL     1      41.319 -11.077   4.986  1.00  0.00     0.073 C 
HETATM   15  H   UNL     1      39.376 -16.317   6.283  1.00  0.00     0.170 HD
ENDROOT
BRANCH   1  16
HETATM   16  C   UNL     1      40.731 -13.955   2.631  1.00  0.00    -0.040 A 
HETATM   17  C   UNL     1      39.705 -14.908   2.500  1.00  0.00     0.009 A 
HETATM   18  C   UNL     1      38.715 -14.769   1.523  1.00  0.00     0.007 A 
HETATM   19  C   UNL     1      38.726 -13.680   0.648  1.00  0.00    -0.059 A 
HETATM   20  C   UNL     1      39.758 -12.741   0.750  1.00  0.00     0.007 A 
HETATM   21  C   UNL     1      40.751 -12.881   1.724  1.00  0.00     0.009 A 
BRANCH  19  22
HETATM   22  C   UNL     1      37.619 -13.495  -0.357  1.00  0.00     0.034 C 
HETATM   23  C   UNL     1      38.101 -13.781  -1.772  1.00  0.00     0.010 C 
ENDBRANCH  19  22
ENDBRANCH   1  16
TORSDOF 2
ENDMDL
MODEL 10
REMARK VINA RESULT:      -6.1      3.877      5.708
REMARK  2 active torsions:
REMARK  status: ('A' for Active; 'I' for Inactive)
REMARK    1  A    between atoms: C_2  and  C_3 
REMARK    2  A    between atoms: C_6  and  C_7 
ROOT
HETATM    1  C   UNL     1      40.589 -14.423  -0.223  1.00  0.00     0.119 C 
HETATM    2  S   UNL     1      41.721 -14.026  -1.584  1.00  0.00    -0.141 SA
HETATM    3  C   UNL     1      41.623 -12.215  -1.666  1.00  0.00     0.136 C 
HETATM    4  C   UNL     1      42.265 -11.754  -2.974  1.00  0.00     0.031 C 
HETATM    5  C   UNL     1      42.345 -11.600  -0.481  1.00  0.00     0.236 C 
HETATM    6  O   UNL     1      43.438 -11.057  -0.511  1.00  0.00    -0.272 OA
HETATM    7  N   UNL     1      41.686 -11.532   0.784  1.00  0.00    -0.311 N 
HETATM    8  C   UNL     1      40.477 -12.128   1.060  1.00  0.00     0.134 C 
HETATM    9  C   UNL     1      39.966 -13.320   0.580  1.00  0.00     0.032 C 
HETATM   10  N   UNL     1      39.558 -11.637   1.946  1.00  0.00    -0.262 N 
HETATM   11  H   UNL     1      39.619 -10.807   2.525  1.00  0.00     0.191 HD
HETATM   12  N   UNL     1      38.407 -12.313   1.946  1.00  0.00    -0.178 NA
HETATM   13  C   UNL     1      38.644 -13.359   1.148  1.00  0.00     0.062 C 
HETATM   14  C   UNL     1      37.593 -14.401   0.989  1.00  0.00     0.073 C 
HETATM   15  H   UNL     1      42.123 -10.912   1.457  1.00  0.00     0.170 HD
ENDROOT
BRANCH   1  16
HETATM   16  C   UNL     1      41.236 -15.333   0.815  1.00  0.00    -0.040 A 
HETATM   17  C   UNL     1      40.661 -16.554   1.215  1.00  0.00     0.009 A 
HETATM   18  C   UNL     1      41.322 -17.401   2.109  1.00  0.00     0.007 A 
HETATM   19  C   UNL     1      42.570 -17.051   2.631  1.00  0.00    -0.059 A 
HETATM   20  C   UNL     1      43.138 -15.827   2.263  1.00  0.00     0.007 A 
HETATM   21  C   UNL     1      42.476 -14.976   1.373  1.00  0.00     0.009 A 
BRANCH  19  22
HETATM   22  C   UNL     1      43.312 -17.998   3.538  1.00  0.00     0.034 C 
HETATM   23  C   UNL     1      43.971 -19.120   2.748  1.00  0.00     0.010 C 
ENDBRANCH  19  22
ENDBRANCH   1  16
TORSDOF 2
ENDMDL
