MODEL 1
REMARK VINA RESULT:      -7.5      0.000      0.000
REMARK  5 active torsions:
REMARK  status: ('A' for Active; 'I' for Inactive)
REMARK    1  A    between atoms: C_4  and  C_5 
REMARK    2  A    between atoms: C_5  and  N_6 
REMARK    3  A    between atoms: N_6  and  C_9 
REMARK    4  A    between atoms: C_12  and  O_13 
REMARK    5  A    between atoms: O_13  and  C_14 
ROOT
HETATM    1  C   UNL     1      43.593 -17.373   3.629  1.00  0.00     0.164 A 
HETATM    2  N   UNL     1      43.941 -18.365   4.475  1.00  0.00    -0.236 NA
HETATM    3  C   UNL     1      44.086 -19.601   3.933  1.00  0.00     0.142 A 
HETATM    4  C   UNL     1      43.887 -19.888   2.590  1.00  0.00     0.062 A 
HETATM    5  C   UNL     1      44.062 -21.216   2.096  1.00  0.00     0.101 C 
HETATM    6  N   UNL     1      44.203 -22.296   1.698  1.00  0.00    -0.191 NA
HETATM    7  C   UNL     1      43.515 -18.842   1.746  1.00  0.00     0.028 A 
HETATM    8  C   UNL     1      43.362 -17.562   2.275  1.00  0.00     0.059 A 
ENDROOT
BRANCH   1   9
HETATM    9  O   UNL     1      43.418 -16.092   4.106  1.00  0.00    -0.329 OA
BRANCH   9  10
HETATM   10  C   UNL     1      42.724 -15.993   5.356  1.00  0.00     0.130 C 
HETATM   11  C   UNL     1      43.598 -15.122   6.270  1.00  0.00     0.034 C 
HETATM   12  C   UNL     1      43.774 -13.706   5.713  1.00  0.00     0.035 C 
HETATM   13  C   UNL     1      42.445 -13.007   5.410  1.00  0.00     0.186 C 
HETATM   14  C   UNL     1      41.503 -13.897   4.591  1.00  0.00     0.035 C 
HETATM   15  C   UNL     1      41.361 -15.315   5.152  1.00  0.00     0.034 C 
BRANCH  13  16
HETATM   16  N   UNL     1      41.758 -12.615   6.680  1.00  0.00    -0.065 N 
HETATM   17  H   UNL     1      42.132 -13.095   7.509  1.00  0.00     0.278 HD
HETATM   18  H   UNL     1      40.769 -12.916   6.668  1.00  0.00     0.278 HD
BRANCH  16  19
HETATM   19  C   UNL     1      41.703 -11.139   6.989  1.00  0.00     0.299 C 
BRANCH  19  20
HETATM   20  C   UNL     1      42.296 -10.869   8.335  1.00  0.00     0.101 A 
HETATM   21  N   UNL     1      43.552 -11.143   8.627  1.00  0.00    -0.249 NA
HETATM   22  C   UNL     1      43.806 -10.789   9.948  1.00  0.00     0.038 A 
HETATM   23  C   UNL     1      45.166 -11.003  10.512  1.00  0.00     0.071 C 
HETATM   24  C   UNL     1      42.722 -10.257  10.622  1.00  0.00     0.078 A 
HETATM   25  S   UNL     1      41.356 -10.190   9.592  1.00  0.00    -0.083 SA
ENDBRANCH  19  20
ENDBRANCH  16  19
ENDBRANCH  13  16
ENDBRANCH   9  10
ENDBRANCH   1   9
TORSDOF 5
ENDMDL
MODEL 2
REMARK VINA RESULT:      -7.1      5.505      8.666
REMARK  5 active torsions:
REMARK  status: ('A' for Active; 'I' for Inactive)
REMARK    1  A    between atoms: C_4  and  C_5 
REMARK    2  A    between atoms: C_5  and  N_6 
REMARK    3  A    between atoms: N_6  and  C_9 
REMARK    4  A    between atoms: C_12  and  O_13 
REMARK    5  A    between atoms: O_13  and  C_14 
ROOT
HETATM    1  C   UNL     1      40.625 -15.032  -0.981  1.00  0.00     0.164 A 
HETATM    2  N   UNL     1      39.634 -14.198  -0.601  1.00  0.00    -0.236 NA
HETATM    3  C   UNL     1      38.654 -13.968  -1.512  1.00  0.00     0.142 A 
HETATM    4  C   UNL     1      38.629 -14.525  -2.783  1.00  0.00     0.062 A 
HETATM    5  C   UNL     1      37.559 -14.236  -3.684  1.00  0.00     0.101 C 
HETATM    6  N   UNL     1      36.691 -13.998  -4.414  1.00  0.00    -0.191 NA
HETATM    7  C   UNL     1      39.676 -15.372  -3.147  1.00  0.00     0.028 A 
HETATM    8  C   UNL     1      40.695 -15.628  -2.231  1.00  0.00     0.059 A 
ENDROOT
BRANCH   1   9
HETATM    9  O   UNL     1      41.661 -15.307  -0.114  1.00  0.00    -0.329 OA
BRANCH   9  10
HETATM   10  C   UNL     1      41.773 -16.677   0.291  1.00  0.00     0.130 C 
HETATM   11  C   UNL     1      43.139 -16.815   0.981  1.00  0.00     0.034 C 
HETATM   12  C   UNL     1      43.238 -15.940   2.234  1.00  0.00     0.035 C 
HETATM   13  C   UNL     1      42.102 -16.185   3.233  1.00  0.00     0.186 C 
HETATM   14  C   UNL     1      40.728 -16.165   2.553  1.00  0.00     0.035 C 
HETATM   15  C   UNL     1      40.658 -17.026   1.289  1.00  0.00     0.034 C 
BRANCH  13  16
HETATM   16  N   UNL     1      42.284 -17.502   3.918  1.00  0.00    -0.065 N 
HETATM   17  H   UNL     1      41.955 -18.301   3.360  1.00  0.00     0.278 HD
HETATM   18  H   UNL     1      41.693 -17.557   4.765  1.00  0.00     0.278 HD
BRANCH  16  19
HETATM   19  C   UNL     1      43.676 -17.823   4.404  1.00  0.00     0.299 C 
BRANCH  19  20
HETATM   20  C   UNL     1      44.024 -19.241   4.082  1.00  0.00     0.101 A 
HETATM   21  N   UNL     1      43.863 -19.757   2.879  1.00  0.00    -0.249 NA
HETATM   22  C   UNL     1      44.265 -21.088   2.891  1.00  0.00     0.038 A 
HETATM   23  C   UNL     1      44.179 -21.888   1.640  1.00  0.00     0.071 C 
HETATM   24  C   UNL     1      44.719 -21.544   4.116  1.00  0.00     0.078 A 
HETATM   25  S   UNL     1      44.648 -20.289   5.280  1.00  0.00    -0.083 SA
ENDBRANCH  19  20
ENDBRANCH  16  19
ENDBRANCH  13  16
ENDBRANCH   9  10
ENDBRANCH   1   9
TORSDOF 5
ENDMDL
MODEL 3
REMARK VINA RESULT:      -7.1      1.923      2.388
REMARK  5 active torsions:
REMARK  status: ('A' for Active; 'I' for Inactive)
REMARK    1  A    between atoms: C_4  and  C_5 
REMARK    2  A    between atoms: C_5  and  N_6 
REMARK    3  A    between atoms: N_6  and  C_9 
REMARK    4  A    between atoms: C_12  and  O_13 
REMARK    5  A    between atoms: O_13  and  C_14 
ROOT
HETATM    1  C   UNL     1      43.598 -17.596   3.817  1.00  0.00     0.164 A 
HETATM    2  N   UNL     1      43.222 -17.769   2.533  1.00  0.00    -0.236 NA
HETATM    3  C   UNL     1      43.424 -19.003   2.004  1.00  0.00     0.142 A 
HETATM    4  C   UNL     1      43.991 -20.062   2.699  1.00  0.00     0.062 A 
HETATM    5  C   UNL     1      44.167 -21.333   2.072  1.00  0.00     0.101 C 
HETATM    6  N   UNL     1      44.311 -22.363   1.560  1.00  0.00    -0.191 NA
HETATM    7  C   UNL     1      44.380 -19.844   4.020  1.00  0.00     0.028 A 
HETATM    8  C   UNL     1      44.183 -18.587   4.590  1.00  0.00     0.059 A 
ENDROOT
BRANCH   1   9
HETATM    9  O   UNL     1      43.434 -16.367   4.421  1.00  0.00    -0.329 OA
BRANCH   9  10
HETATM   10  C   UNL     1      42.761 -16.392   5.687  1.00  0.00     0.130 C 
HETATM   11  C   UNL     1      43.067 -15.048   6.366  1.00  0.00     0.034 C 
HETATM   12  C   UNL     1      42.522 -13.863   5.563  1.00  0.00     0.035 C 
HETATM   13  C   UNL     1      41.027 -13.983   5.250  1.00  0.00     0.186 C 
HETATM   14  C   UNL     1      40.670 -15.357   4.672  1.00  0.00     0.035 C 
HETATM   15  C   UNL     1      41.245 -16.527   5.477  1.00  0.00     0.034 C 
BRANCH  13  16
HETATM   16  N   UNL     1      40.214 -13.751   6.484  1.00  0.00    -0.065 N 
HETATM   17  H   UNL     1      40.775 -13.743   7.346  1.00  0.00     0.278 HD
HETATM   18  H   UNL     1      39.561 -14.536   6.643  1.00  0.00     0.278 HD
BRANCH  16  19
HETATM   19  C   UNL     1      39.341 -12.520   6.495  1.00  0.00     0.299 C 
BRANCH  19  20
HETATM   20  C   UNL     1      39.843 -11.537   7.503  1.00  0.00     0.101 A 
HETATM   21  N   UNL     1      39.276 -11.374   8.682  1.00  0.00    -0.249 NA
HETATM   22  C   UNL     1      39.958 -10.392   9.390  1.00  0.00     0.038 A 
HETATM   23  C   UNL     1      39.503 -10.029  10.760  1.00  0.00     0.071 C 
HETATM   24  C   UNL     1      41.030  -9.833   8.718  1.00  0.00     0.078 A 
HETATM   25  S   UNL     1      41.197 -10.547   7.170  1.00  0.00    -0.083 SA
ENDBRANCH  19  20
ENDBRANCH  16  19
ENDBRANCH  13  16
ENDBRANCH   9  10
ENDBRANCH   1   9
TORSDOF 5
ENDMDL
MODEL 4
REMARK VINA RESULT:      -7.1      5.794      7.959
REMARK  5 active torsions:
REMARK  status: ('A' for Active; 'I' for Inactive)
REMARK    1  A    between atoms: C_4  and  C_5 
REMARK    2  A    between atoms: C_5  and  N_6 
REMARK    3  A    between atoms: N_6  and  C_9 
REMARK    4  A    between atoms: C_12  and  O_13 
REMARK    5  A    between atoms: O_13  and  C_14 
ROOT
HETATM    1  C   UNL     1      43.400 -17.888   2.449  1.00  0.00     0.164 A 
HETATM    2  N   UNL     1      43.672 -17.745   3.763  1.00  0.00    -0.236 NA
HETATM    3  C   UNL     1      44.145 -18.842   4.407  1.00  0.00     0.142 A 
HETATM    4  C   UNL     1      44.348 -20.073   3.798  1.00  0.00     0.062 A 
HETATM    5  C   UNL     1      44.853 -21.180   4.544  1.00  0.00     0.101 C 
HETATM    6  N   UNL     1      45.261 -22.078   5.154  1.00  0.00    -0.191 NA
HETATM    7  C   UNL     1      44.043 -20.189   2.442  1.00  0.00     0.028 A 
HETATM    8  C   UNL     1      43.558 -19.078   1.755  1.00  0.00     0.059 A 
ENDROOT
BRANCH   1   9
HETATM    9  O   UNL     1      42.907 -16.821   1.729  1.00  0.00    -0.329 OA
BRANCH   9  10
HETATM   10  C   UNL     1      41.741 -17.099   0.942  1.00  0.00     0.130 C 
HETATM   11  C   UNL     1      40.546 -17.048   1.906  1.00  0.00     0.034 C 
HETATM   12  C   UNL     1      40.375 -15.660   2.533  1.00  0.00     0.035 C 
HETATM   13  C   UNL     1      40.281 -14.537   1.495  1.00  0.00     0.186 C 
HETATM   14  C   UNL     1      41.399 -14.627   0.449  1.00  0.00     0.035 C 
HETATM   15  C   UNL     1      41.569 -16.029  -0.145  1.00  0.00     0.034 C 
BRANCH  13  16
HETATM   16  N   UNL     1      38.960 -14.582   0.795  1.00  0.00    -0.065 N 
HETATM   17  H   UNL     1      38.198 -14.940   1.385  1.00  0.00     0.278 HD
HETATM   18  H   UNL     1      38.983 -15.260   0.014  1.00  0.00     0.278 HD
BRANCH  16  19
HETATM   19  C   UNL     1      38.487 -13.294   0.165  1.00  0.00     0.299 C 
BRANCH  19  20
HETATM   20  C   UNL     1      38.211 -13.499  -1.290  1.00  0.00     0.101 A 
HETATM   21  N   UNL     1      38.554 -14.599  -1.931  1.00  0.00    -0.249 NA
HETATM   22  C   UNL     1      38.174 -14.493  -3.264  1.00  0.00     0.038 A 
HETATM   23  C   UNL     1      38.454 -15.619  -4.195  1.00  0.00     0.071 C 
HETATM   24  C   UNL     1      37.552 -13.303  -3.595  1.00  0.00     0.078 A 
HETATM   25  S   UNL     1      37.433 -12.292  -2.218  1.00  0.00    -0.083 SA
ENDBRANCH  19  20
ENDBRANCH  16  19
ENDBRANCH  13  16
ENDBRANCH   9  10
ENDBRANCH   1   9
TORSDOF 5
ENDMDL
MODEL 5
REMARK VINA RESULT:      -6.8      2.167      2.587
REMARK  5 active torsions:
REMARK  status: ('A' for Active; 'I' for Inactive)
REMARK    1  A    between atoms: C_4  and  C_5 
REMARK    2  A    between atoms: C_5  and  N_6 
REMARK    3  A    between atoms: N_6  and  C_9 
REMARK    4  A    between atoms: C_12  and  O_13 
REMARK    5  A    between atoms: O_13  and  C_14 
ROOT
HETATM    1  C   UNL     1      43.610 -17.737   3.886  1.00  0.00     0.164 A 
HETATM    2  N   UNL     1      44.111 -18.701   4.685  1.00  0.00    -0.236 NA
HETATM    3  C   UNL     1      44.346 -19.907   4.106  1.00  0.00     0.142 A 
HETATM    4  C   UNL     1      44.092 -20.190   2.771  1.00  0.00     0.062 A 
HETATM    5  C   UNL     1      44.369 -21.484   2.235  1.00  0.00     0.101 C 
HETATM    6  N   UNL     1      44.593 -22.537   1.804  1.00  0.00    -0.191 NA
HETATM    7  C   UNL     1      43.560 -19.174   1.977  1.00  0.00     0.028 A 
HETATM    8  C   UNL     1      43.312 -17.925   2.545  1.00  0.00     0.059 A 
ENDROOT
BRANCH   1   9
HETATM    9  O   UNL     1      43.336 -16.489   4.403  1.00  0.00    -0.329 OA
BRANCH   9  10
HETATM   10  C   UNL     1      42.521 -15.648   3.577  1.00  0.00     0.130 C 
HETATM   11  C   UNL     1      41.164 -15.526   4.286  1.00  0.00     0.034 C 
HETATM   12  C   UNL     1      41.294 -14.859   5.659  1.00  0.00     0.035 C 
HETATM   13  C   UNL     1      41.999 -13.500   5.605  1.00  0.00     0.186 C 
HETATM   14  C   UNL     1      43.306 -13.563   4.805  1.00  0.00     0.035 C 
HETATM   15  C   UNL     1      43.159 -14.257   3.447  1.00  0.00     0.034 C 
BRANCH  13  16
HETATM   16  N   UNL     1      41.105 -12.471   4.989  1.00  0.00    -0.065 N 
HETATM   17  H   UNL     1      40.916 -12.639   3.993  1.00  0.00     0.278 HD
HETATM   18  H   UNL     1      41.565 -11.545   4.982  1.00  0.00     0.278 HD
BRANCH  16  19
HETATM   19  C   UNL     1      39.781 -12.233   5.674  1.00  0.00     0.299 C 
BRANCH  19  20
HETATM   20  C   UNL     1      39.937 -11.225   6.767  1.00  0.00     0.101 A 
HETATM   21  N   UNL     1      39.148 -11.192   7.822  1.00  0.00    -0.249 NA
HETATM   22  C   UNL     1      39.534 -10.147   8.654  1.00  0.00     0.038 A 
HETATM   23  C   UNL     1      38.788  -9.907   9.919  1.00  0.00     0.071 C 
HETATM   24  C   UNL     1      40.613  -9.412   8.197  1.00  0.00     0.078 A 
HETATM   25  S   UNL     1      41.163 -10.034   6.699  1.00  0.00    -0.083 SA
ENDBRANCH  19  20
ENDBRANCH  16  19
ENDBRANCH  13  16
ENDBRANCH   9  10
ENDBRANCH   1   9
TORSDOF 5
ENDMDL
MODEL 6
REMARK VINA RESULT:      -6.8      2.693      3.844
REMARK  5 active torsions:
REMARK  status: ('A' for Active; 'I' for Inactive)
REMARK    1  A    between atoms: C_4  and  C_5 
REMARK    2  A    between atoms: C_5  and  N_6 
REMARK    3  A    between atoms: N_6  and  C_9 
REMARK    4  A    between atoms: C_12  and  O_13 
REMARK    5  A    between atoms: O_13  and  C_14 
ROOT
HETATM    1  C   UNL     1      43.317 -17.642   3.532  1.00  0.00     0.164 A 
HETATM    2  N   UNL     1      42.896 -18.134   2.348  1.00  0.00    -0.236 NA
HETATM    3  C   UNL     1      43.256 -19.411   2.061  1.00  0.00     0.142 A 
HETATM    4  C   UNL     1      44.024 -20.209   2.898  1.00  0.00     0.062 A 
HETATM    5  C   UNL     1      44.358 -21.546   2.525  1.00  0.00     0.101 C 
HETATM    6  N   UNL     1      44.630 -22.631   2.218  1.00  0.00    -0.191 NA
HETATM    7  C   UNL     1      44.453 -19.663   4.108  1.00  0.00     0.028 A 
HETATM    8  C   UNL     1      44.096 -18.355   4.430  1.00  0.00     0.059 A 
ENDROOT
BRANCH   1   9
HETATM    9  O   UNL     1      42.999 -16.349   3.890  1.00  0.00    -0.329 OA
BRANCH   9  10
HETATM   10  C   UNL     1      42.879 -16.116   5.299  1.00  0.00     0.130 C 
HETATM   11  C   UNL     1      43.438 -14.707   5.555  1.00  0.00     0.034 C 
HETATM   12  C   UNL     1      42.629 -13.630   4.825  1.00  0.00     0.035 C 
HETATM   13  C   UNL     1      41.131 -13.683   5.142  1.00  0.00     0.186 C 
HETATM   14  C   UNL     1      40.565 -15.102   5.004  1.00  0.00     0.035 C 
HETATM   15  C   UNL     1      41.403 -16.166   5.720  1.00  0.00     0.034 C 
BRANCH  13  16
HETATM   16  N   UNL     1      40.872 -13.192   6.531  1.00  0.00    -0.065 N 
HETATM   17  H   UNL     1      41.634 -12.613   6.907  1.00  0.00     0.278 HD
HETATM   18  H   UNL     1      40.836 -13.982   7.197  1.00  0.00     0.278 HD
BRANCH  16  19
HETATM   19  C   UNL     1      39.578 -12.448   6.753  1.00  0.00     0.299 C 
BRANCH  19  20
HETATM   20  C   UNL     1      39.424 -11.362   5.737  1.00  0.00     0.101 A 
HETATM   21  N   UNL     1      38.450 -11.351   4.849  1.00  0.00    -0.249 NA
HETATM   22  C   UNL     1      38.575 -10.226   4.042  1.00  0.00     0.038 A 
HETATM   23  C   UNL     1      37.584  -9.991   2.958  1.00  0.00     0.071 C 
HETATM   24  C   UNL     1      39.652  -9.413   4.346  1.00  0.00     0.078 A 
HETATM   25  S   UNL     1      40.530 -10.059   5.667  1.00  0.00    -0.083 SA
ENDBRANCH  19  20
ENDBRANCH  16  19
ENDBRANCH  13  16
ENDBRANCH   9  10
ENDBRANCH   1   9
TORSDOF 5
ENDMDL
MODEL 7
REMARK VINA RESULT:      -6.7      3.314      4.974
REMARK  5 active torsions:
REMARK  status: ('A' for Active; 'I' for Inactive)
REMARK    1  A    between atoms: C_4  and  C_5 
REMARK    2  A    between atoms: C_5  and  N_6 
REMARK    3  A    between atoms: N_6  and  C_9 
REMARK    4  A    between atoms: C_12  and  O_13 
REMARK    5  A    between atoms: O_13  and  C_14 
ROOT
HETATM    1  C   UNL     1      43.370 -17.820   3.845  1.00  0.00     0.164 A 
HETATM    2  N   UNL     1      44.165 -18.577   4.631  1.00  0.00    -0.236 NA
HETATM    3  C   UNL     1      44.490 -19.807   4.158  1.00  0.00     0.142 A 
HETATM    4  C   UNL     1      44.049 -20.314   2.943  1.00  0.00     0.062 A 
HETATM    5  C   UNL     1      44.440 -21.618   2.514  1.00  0.00     0.101 C 
HETATM    6  N   UNL     1      44.756 -22.679   2.169  1.00  0.00    -0.191 NA
HETATM    7  C   UNL     1      43.218 -19.510   2.163  1.00  0.00     0.028 A 
HETATM    8  C   UNL     1      42.870 -18.242   2.622  1.00  0.00     0.059 A 
ENDROOT
BRANCH   1   9
HETATM    9  O   UNL     1      42.988 -16.563   4.261  1.00  0.00    -0.329 OA
BRANCH   9  10
HETATM   10  C   UNL     1      42.528 -15.688   3.224  1.00  0.00     0.130 C 
HETATM   11  C   UNL     1      41.193 -15.102   3.711  1.00  0.00     0.034 C 
HETATM   12  C   UNL     1      41.364 -14.275   4.989  1.00  0.00     0.035 C 
HETATM   13  C   UNL     1      42.421 -13.173   4.857  1.00  0.00     0.186 C 
HETATM   14  C   UNL     1      43.733 -13.705   4.267  1.00  0.00     0.035 C 
HETATM   15  C   UNL     1      43.536 -14.551   3.005  1.00  0.00     0.034 C 
BRANCH  13  16
HETATM   16  N   UNL     1      41.915 -12.064   3.991  1.00  0.00    -0.065 N 
HETATM   17  H   UNL     1      41.865 -12.315   2.995  1.00  0.00     0.278 HD
HETATM   18  H   UNL     1      42.576 -11.269   3.994  1.00  0.00     0.278 HD
BRANCH  16  19
HETATM   19  C   UNL     1      40.589 -11.457   4.378  1.00  0.00     0.299 C 
BRANCH  19  20
HETATM   20  C   UNL     1      39.682 -11.392   3.191  1.00  0.00     0.101 A 
HETATM   21  N   UNL     1      39.046 -12.447   2.723  1.00  0.00    -0.249 NA
HETATM   22  C   UNL     1      38.290 -12.076   1.616  1.00  0.00     0.038 A 
HETATM   23  C   UNL     1      37.476 -13.102   0.911  1.00  0.00     0.071 C 
HETATM   24  C   UNL     1      38.382 -10.739   1.275  1.00  0.00     0.078 A 
HETATM   25  S   UNL     1      39.429  -9.921   2.357  1.00  0.00    -0.083 SA
ENDBRANCH  19  20
ENDBRANCH  16  19
ENDBRANCH  13  16
ENDBRANCH   9  10
ENDBRANCH   1   9
TORSDOF 5
ENDMDL
MODEL 8
REMARK VINA RESULT:      -6.5      5.083      7.576
REMARK  5 active torsions:
REMARK  status: ('A' for Active; 'I' for Inactive)
REMARK    1  A    between atoms: C_4  and  C_5 
REMARK    2  A    between atoms: C_5  and  N_6 
REMARK    3  A    between atoms: N_6  and  C_9 
REMARK    4  A    between atoms: C_12  and  O_13 
REMARK    5  A    between atoms: O_13  and  C_14 
ROOT
HETATM    1  C   UNL     1      43.494 -17.523   2.848  1.00  0.00     0.164 A 
HETATM    2  N   UNL     1      43.591 -18.195   1.681  1.00  0.00    -0.236 NA
HETATM    3  C   UNL     1      43.888 -19.517   1.768  1.00  0.00     0.142 A 
HETATM    4  C   UNL     1      44.101 -20.189   2.964  1.00  0.00     0.062 A 
HETATM    5  C   UNL     1      44.406 -21.584   2.971  1.00  0.00     0.101 C 
HETATM    6  N   UNL     1      44.657 -22.716   2.973  1.00  0.00    -0.191 NA
HETATM    7  C   UNL     1      44.006 -19.460   4.149  1.00  0.00     0.028 A 
HETATM    8  C   UNL     1      43.700 -18.102   4.090  1.00  0.00     0.059 A 
ENDROOT
BRANCH   1   9
HETATM    9  O   UNL     1      43.205 -16.175   2.841  1.00  0.00    -0.329 OA
BRANCH   9  10
HETATM   10  C   UNL     1      41.854 -15.837   3.182  1.00  0.00     0.130 C 
HETATM   11  C   UNL     1      41.801 -14.304   3.273  1.00  0.00     0.034 C 
HETATM   12  C   UNL     1      42.134 -13.639   1.934  1.00  0.00     0.035 C 
HETATM   13  C   UNL     1      41.262 -14.142   0.778  1.00  0.00     0.186 C 
HETATM   14  C   UNL     1      41.205 -15.673   0.727  1.00  0.00     0.035 C 
HETATM   15  C   UNL     1      40.896 -16.318   2.082  1.00  0.00     0.034 C 
BRANCH  13  16
HETATM   16  N   UNL     1      39.870 -13.609   0.902  1.00  0.00    -0.065 N 
HETATM   17  H   UNL     1      39.686 -13.157   1.807  1.00  0.00     0.278 HD
HETATM   18  H   UNL     1      39.182 -14.380   0.887  1.00  0.00     0.278 HD
BRANCH  16  19
HETATM   19  C   UNL     1      39.410 -12.667  -0.183  1.00  0.00     0.299 C 
BRANCH  19  20
HETATM   20  C   UNL     1      39.714 -13.240  -1.530  1.00  0.00     0.101 A 
HETATM   21  N   UNL     1      39.077 -14.286  -2.018  1.00  0.00    -0.249 NA
HETATM   22  C   UNL     1      39.582 -14.587  -3.278  1.00  0.00     0.038 A 
HETATM   23  C   UNL     1      39.016 -15.735  -4.037  1.00  0.00     0.071 C 
HETATM   24  C   UNL     1      40.598 -13.753  -3.708  1.00  0.00     0.078 A 
HETATM   25  S   UNL     1      40.933 -12.564  -2.521  1.00  0.00    -0.083 SA
ENDBRANCH  19  20
ENDBRANCH  16  19
ENDBRANCH  13  16
ENDBRANCH   9  10
ENDBRANCH   1   9
TORSDOF 5
ENDMDL
MODEL 9
REMARK VINA RESULT:      -6.5      5.089      8.797
REMARK  5 active torsions:
REMARK  status: ('A' for Active; 'I' for Inactive)
REMARK    1  A    between atoms: C_4  and  C_5 
REMARK    2  A    between atoms: C_5  and  N_6 
REMARK    3  A    between atoms: N_6  and  C_9 
REMARK    4  A    between atoms: C_12  and  O_13 
REMARK    5  A    between atoms: O_13  and  C_14 
ROOT
HETATM    1  C   UNL     1      42.699 -15.395   5.177  1.00  0.00     0.164 A 
HETATM    2  N   UNL     1      42.493 -14.070   5.332  1.00  0.00    -0.236 NA
HETATM    3  C   UNL     1      43.277 -13.438   6.242  1.00  0.00     0.142 A 
HETATM    4  C   UNL     1      44.246 -14.072   7.007  1.00  0.00     0.062 A 
HETATM    5  C   UNL     1      45.034 -13.335   7.942  1.00  0.00     0.101 C 
HETATM    6  N   UNL     1      45.670 -12.734   8.703  1.00  0.00    -0.191 NA
HETATM    7  C   UNL     1      44.422 -15.445   6.831  1.00  0.00     0.028 A 
HETATM    8  C   UNL     1      43.633 -16.119   5.901  1.00  0.00     0.059 A 
ENDROOT
BRANCH   1   9
HETATM    9  O   UNL     1      41.935 -16.108   4.278  1.00  0.00    -0.329 OA
BRANCH   9  10
HETATM   10  C   UNL     1      42.607 -16.489   3.071  1.00  0.00     0.130 C 
HETATM   11  C   UNL     1      41.687 -17.497   2.363  1.00  0.00     0.034 C 
HETATM   12  C   UNL     1      40.341 -16.873   1.981  1.00  0.00     0.035 C 
HETATM   13  C   UNL     1      40.484 -15.594   1.149  1.00  0.00     0.186 C 
HETATM   14  C   UNL     1      41.482 -14.612   1.773  1.00  0.00     0.035 C 
HETATM   15  C   UNL     1      42.811 -15.262   2.170  1.00  0.00     0.034 C 
BRANCH  13  16
HETATM   16  N   UNL     1      40.930 -15.921  -0.241  1.00  0.00    -0.065 N 
HETATM   17  H   UNL     1      40.313 -16.589  -0.720  1.00  0.00     0.278 HD
HETATM   18  H   UNL     1      41.837 -16.418  -0.225  1.00  0.00     0.278 HD
BRANCH  16  19
HETATM   19  C   UNL     1      41.153 -14.753  -1.170  1.00  0.00     0.299 C 
BRANCH  19  20
HETATM   20  C   UNL     1      39.848 -14.268  -1.715  1.00  0.00     0.101 A 
HETATM   21  N   UNL     1      39.208 -14.889  -2.686  1.00  0.00    -0.249 NA
HETATM   22  C   UNL     1      38.036 -14.201  -2.979  1.00  0.00     0.038 A 
HETATM   23  C   UNL     1      37.136 -14.713  -4.048  1.00  0.00     0.071 C 
HETATM   24  C   UNL     1      37.824 -13.068  -2.214  1.00  0.00     0.078 A 
HETATM   25  S   UNL     1      39.109 -12.852  -1.103  1.00  0.00    -0.083 SA
ENDBRANCH  19  20
ENDBRANCH  16  19
ENDBRANCH  13  16
ENDBRANCH   9  10
ENDBRANCH   1   9
TORSDOF 5
ENDMDL
MODEL 10
REMARK VINA RESULT:      -6.5      5.721      8.173
REMARK  5 active torsions:
REMARK  status: ('A' for Active; 'I' for Inactive)
REMARK    1  A    between atoms: C_4  and  C_5 
REMARK    2  A    between atoms: C_5  and  N_6 
REMARK    3  A    between atoms: N_6  and  C_9 
REMARK    4  A    between atoms: C_12  and  O_13 
REMARK    5  A    between atoms: O_13  and  C_14 
ROOT
HETATM    1  C   UNL     1      40.496 -14.743  -1.102  1.00  0.00     0.164 A 
HETATM    2  N   UNL     1      39.401 -13.984  -0.888  1.00  0.00    -0.236 NA
HETATM    3  C   UNL     1      38.453 -14.002  -1.859  1.00  0.00     0.142 A 
HETATM    4  C   UNL     1      38.557 -14.735  -3.034  1.00  0.00     0.062 A 
HETATM    5  C   UNL     1      37.513 -14.703  -4.007  1.00  0.00     0.101 C 
HETATM    6  N   UNL     1      36.665 -14.674  -4.797  1.00  0.00    -0.191 NA
HETATM    7  C   UNL     1      39.709 -15.497  -3.228  1.00  0.00     0.028 A 
HETATM    8  C   UNL     1      40.698 -15.500  -2.246  1.00  0.00     0.059 A 
ENDROOT
BRANCH   1   9
HETATM    9  O   UNL     1      41.507 -14.769  -0.165  1.00  0.00    -0.329 OA
BRANCH   9  10
HETATM   10  C   UNL     1      41.077 -14.720   1.202  1.00  0.00     0.130 C 
HETATM   11  C   UNL     1      40.360 -16.051   1.478  1.00  0.00     0.034 C 
HETATM   12  C   UNL     1      41.298 -17.251   1.319  1.00  0.00     0.035 C 
HETATM   13  C   UNL     1      42.571 -17.138   2.164  1.00  0.00     0.186 C 
HETATM   14  C   UNL     1      43.253 -15.774   1.995  1.00  0.00     0.035 C 
HETATM   15  C   UNL     1      42.291 -14.590   2.133  1.00  0.00     0.034 C 
BRANCH  13  16
HETATM   16  N   UNL     1      42.258 -17.346   3.612  1.00  0.00    -0.065 N 
HETATM   17  H   UNL     1      41.746 -18.219   3.796  1.00  0.00     0.278 HD
HETATM   18  H   UNL     1      41.604 -16.621   3.951  1.00  0.00     0.278 HD
BRANCH  16  19
HETATM   19  C   UNL     1      43.423 -17.286   4.569  1.00  0.00     0.299 C 
BRANCH  19  20
HETATM   20  C   UNL     1      43.759 -18.657   5.062  1.00  0.00     0.101 A 
HETATM   21  N   UNL     1      43.404 -19.090   6.256  1.00  0.00    -0.249 NA
HETATM   22  C   UNL     1      43.863 -20.391   6.429  1.00  0.00     0.038 A 
HETATM   23  C   UNL     1      43.582 -21.101   7.705  1.00  0.00     0.071 C 
HETATM   24  C   UNL     1      44.562 -20.906   5.351  1.00  0.00     0.078 A 
HETATM   25  S   UNL     1      44.649 -19.748   4.092  1.00  0.00    -0.083 SA
ENDBRANCH  19  20
ENDBRANCH  16  19
ENDBRANCH  13  16
ENDBRANCH   9  10
ENDBRANCH   1   9
TORSDOF 5
ENDMDL
