MODEL 1
REMARK VINA RESULT:      -8.4      0.000      0.000
REMARK  3 active torsions:
REMARK  status: ('A' for Active; 'I' for Inactive)
REMARK    1  A    between atoms: C_7  and  C_8 
REMARK    2  A    between atoms: C_17  and  C_18 
REMARK       I    between atoms: C_18  and  N_19 
REMARK    3  A    between atoms: N_19  and  C_20 
ROOT
HETATM    1  C   UNL     1      41.152 -15.075   3.297  1.00  0.00     0.206 C 
HETATM    2  N   UNL     1      40.319 -13.901   2.997  1.00  0.00    -0.084 N 
HETATM    3  C   UNL     1      39.790 -13.642   1.760  1.00  0.00     0.725 A 
HETATM    4  N   UNL     1      39.031 -12.579   1.819  1.00  0.00    -0.054 NA
HETATM    5  C   UNL     1      39.093 -12.237   3.144  1.00  0.00     0.275 A 
HETATM    6  N   UNL     1      39.822 -13.046   3.921  1.00  0.00    -0.149 NA
HETATM    7  N   UNL     1      40.087 -14.458   0.733  1.00  0.00    -0.192 N 
HETATM    8  C   UNL     1      41.002 -15.499   0.825  1.00  0.00     0.037 C 
HETATM    9  C   UNL     1      41.294 -16.222  -0.469  1.00  0.00     0.070 C 
HETATM   10  C   UNL     1      41.554 -15.812   2.026  1.00  0.00     0.063 C 
HETATM   11  H   UNL     1      39.743 -14.216  -0.193  1.00  0.00     0.184 HD
ENDROOT
BRANCH  10  12
HETATM   12  C   UNL     1      42.651 -16.816   2.077  1.00  0.00     0.256 C 
HETATM   13  N   UNL     1      42.297 -18.018   2.647  1.00  0.00    -0.323 N 
HETATM   14  H   UNL     1      41.360 -18.120   3.011  1.00  0.00     0.169 HD
HETATM   15  O   UNL     1      43.750 -16.506   1.632  1.00  0.00    -0.267 OA
BRANCH  13  16
HETATM   16  C   UNL     1      43.128 -19.153   2.797  1.00  0.00     0.035 A 
HETATM   17  C   UNL     1      44.035 -19.325   3.847  1.00  0.00     0.029 A 
HETATM   18  C   UNL     1      44.833 -20.471   3.919  1.00  0.00     0.002 A 
HETATM   19  C   UNL     1      44.730 -21.460   2.945  1.00  0.00     0.000 A 
HETATM   20  C   UNL     1      43.830 -21.302   1.895  1.00  0.00     0.002 A 
HETATM   21  C   UNL     1      43.036 -20.153   1.821  1.00  0.00     0.029 A 
ENDBRANCH  13  16
ENDBRANCH  10  12
BRANCH   1  22
HETATM   22  C   UNL     1      42.289 -14.699   4.211  1.00  0.00     0.015 A 
HETATM   23  C   UNL     1      42.586 -15.229   5.461  1.00  0.00     0.036 A 
HETATM   24  C   UNL     1      41.883 -16.248   6.285  1.00  0.00     0.070 C 
HETATM   25  N   UNL     1      43.718 -14.579   5.884  1.00  0.00    -0.278 N 
HETATM   26  C   UNL     1      44.437 -14.772   7.123  1.00  0.00     0.179 C 
HETATM   27  N   UNL     1      44.155 -13.653   5.018  1.00  0.00    -0.185 NA
HETATM   28  C   UNL     1      43.288 -13.718   4.008  1.00  0.00     0.150 A 
ENDBRANCH   1  22
TORSDOF 3
ENDMDL
MODEL 2
REMARK VINA RESULT:      -8.1      1.995      4.519
REMARK  3 active torsions:
REMARK  status: ('A' for Active; 'I' for Inactive)
REMARK    1  A    between atoms: C_7  and  C_8 
REMARK    2  A    between atoms: C_17  and  C_18 
REMARK       I    between atoms: C_18  and  N_19 
REMARK    3  A    between atoms: N_19  and  C_20 
ROOT
HETATM    1  C   UNL     1      42.976 -15.555   4.188  1.00  0.00     0.206 C 
HETATM    2  N   UNL     1      42.720 -14.226   4.762  1.00  0.00    -0.084 N 
HETATM    3  C   UNL     1      42.742 -13.963   6.107  1.00  0.00     0.725 A 
HETATM    4  N   UNL     1      42.561 -12.685   6.309  1.00  0.00    -0.054 NA
HETATM    5  C   UNL     1      42.473 -12.187   5.036  1.00  0.00     0.275 A 
HETATM    6  N   UNL     1      42.621 -13.079   4.051  1.00  0.00    -0.149 NA
HETATM    7  N   UNL     1      42.942 -14.973   6.972  1.00  0.00    -0.192 N 
HETATM    8  C   UNL     1      43.018 -16.306   6.585  1.00  0.00     0.037 C 
HETATM    9  C   UNL     1      43.119 -17.303   7.715  1.00  0.00     0.070 C 
HETATM   10  C   UNL     1      43.013 -16.630   5.267  1.00  0.00     0.063 C 
HETATM   11  H   UNL     1      42.888 -14.777   7.968  1.00  0.00     0.184 HD
ENDROOT
BRANCH  10  12
HETATM   12  C   UNL     1      42.927 -18.063   4.876  1.00  0.00     0.256 C 
HETATM   13  N   UNL     1      44.122 -18.615   4.473  1.00  0.00    -0.323 N 
HETATM   14  H   UNL     1      44.938 -18.022   4.437  1.00  0.00     0.169 HD
HETATM   15  O   UNL     1      41.838 -18.622   4.932  1.00  0.00    -0.267 OA
BRANCH  13  16
HETATM   16  C   UNL     1      44.335 -19.957   4.078  1.00  0.00     0.035 A 
HETATM   17  C   UNL     1      44.213 -20.414   2.762  1.00  0.00     0.029 A 
HETATM   18  C   UNL     1      44.427 -21.761   2.452  1.00  0.00     0.002 A 
HETATM   19  C   UNL     1      44.772 -22.665   3.453  1.00  0.00     0.000 A 
HETATM   20  C   UNL     1      44.899 -22.222   4.767  1.00  0.00     0.002 A 
HETATM   21  C   UNL     1      44.679 -20.877   5.077  1.00  0.00     0.029 A 
ENDBRANCH  13  16
ENDBRANCH  10  12
BRANCH   1  22
HETATM   22  C   UNL     1      42.039 -15.827   3.040  1.00  0.00     0.015 A 
HETATM   23  C   UNL     1      42.341 -16.416   1.817  1.00  0.00     0.036 A 
HETATM   24  C   UNL     1      43.630 -16.896   1.254  1.00  0.00     0.070 C 
HETATM   25  N   UNL     1      41.159 -16.459   1.121  1.00  0.00    -0.278 N 
HETATM   26  C   UNL     1      40.935 -16.986  -0.206  1.00  0.00     0.179 C 
HETATM   27  N   UNL     1      40.129 -15.916   1.787  1.00  0.00    -0.185 NA
HETATM   28  C   UNL     1      40.660 -15.526   2.945  1.00  0.00     0.150 A 
ENDBRANCH   1  22
TORSDOF 3
ENDMDL
MODEL 3
REMARK VINA RESULT:      -7.8      1.848      3.918
REMARK  3 active torsions:
REMARK  status: ('A' for Active; 'I' for Inactive)
REMARK    1  A    between atoms: C_7  and  C_8 
REMARK    2  A    between atoms: C_17  and  C_18 
REMARK       I    between atoms: C_18  and  N_19 
REMARK    3  A    between atoms: N_19  and  C_20 
ROOT
HETATM    1  C   UNL     1      41.494 -13.615   3.944  1.00  0.00     0.206 C 
HETATM    2  N   UNL     1      40.299 -12.943   4.476  1.00  0.00    -0.084 N 
HETATM    3  C   UNL     1      39.646 -13.344   5.612  1.00  0.00     0.725 A 
HETATM    4  N   UNL     1      38.675 -12.510   5.879  1.00  0.00    -0.054 NA
HETATM    5  C   UNL     1      38.797 -11.575   4.886  1.00  0.00     0.275 A 
HETATM    6  N   UNL     1      39.811 -11.761   4.033  1.00  0.00    -0.149 NA
HETATM    7  N   UNL     1      40.065 -14.446   6.258  1.00  0.00    -0.192 N 
HETATM    8  C   UNL     1      41.064 -15.282   5.774  1.00  0.00     0.037 C 
HETATM    9  C   UNL     1      41.305 -16.537   6.579  1.00  0.00     0.070 C 
HETATM   10  C   UNL     1      41.755 -14.935   4.657  1.00  0.00     0.063 C 
HETATM   11  H   UNL     1      39.531 -14.771   7.060  1.00  0.00     0.184 HD
ENDROOT
BRANCH  10  12
HETATM   12  C   UNL     1      42.703 -15.915   4.061  1.00  0.00     0.256 C 
HETATM   13  N   UNL     1      42.232 -17.207   4.013  1.00  0.00    -0.323 N 
HETATM   14  H   UNL     1      41.321 -17.401   4.405  1.00  0.00     0.169 HD
HETATM   15  O   UNL     1      43.797 -15.514   3.680  1.00  0.00    -0.267 OA
BRANCH  13  16
HETATM   16  C   UNL     1      42.907 -18.327   3.474  1.00  0.00     0.035 A 
HETATM   17  C   UNL     1      42.717 -18.803   2.174  1.00  0.00     0.029 A 
HETATM   18  C   UNL     1      43.412 -19.927   1.717  1.00  0.00     0.002 A 
HETATM   19  C   UNL     1      44.310 -20.583   2.553  1.00  0.00     0.000 A 
HETATM   20  C   UNL     1      44.511 -20.119   3.849  1.00  0.00     0.002 A 
HETATM   21  C   UNL     1      43.810 -18.998   4.308  1.00  0.00     0.029 A 
ENDBRANCH  13  16
ENDBRANCH  10  12
BRANCH   1  22
HETATM   22  C   UNL     1      41.432 -13.696   2.441  1.00  0.00     0.015 A 
HETATM   23  C   UNL     1      40.559 -14.451   1.666  1.00  0.00     0.036 A 
HETATM   24  C   UNL     1      39.493 -15.414   2.049  1.00  0.00     0.070 C 
HETATM   25  N   UNL     1      40.884 -14.177   0.361  1.00  0.00    -0.278 N 
HETATM   26  C   UNL     1      40.266 -14.706  -0.833  1.00  0.00     0.179 C 
HETATM   27  N   UNL     1      41.917 -13.330   0.236  1.00  0.00    -0.185 NA
HETATM   28  C   UNL     1      42.256 -13.043   1.493  1.00  0.00     0.150 A 
ENDBRANCH   1  22
TORSDOF 3
ENDMDL
MODEL 4
REMARK VINA RESULT:      -7.7      2.245      5.796
REMARK  3 active torsions:
REMARK  status: ('A' for Active; 'I' for Inactive)
REMARK    1  A    between atoms: C_7  and  C_8 
REMARK    2  A    between atoms: C_17  and  C_18 
REMARK       I    between atoms: C_18  and  N_19 
REMARK    3  A    between atoms: N_19  and  C_20 
ROOT
HETATM    1  C   UNL     1      43.666 -17.286   5.057  1.00  0.00     0.206 C 
HETATM    2  N   UNL     1      43.676 -18.349   6.074  1.00  0.00    -0.084 N 
HETATM    3  C   UNL     1      43.860 -19.675   5.783  1.00  0.00     0.725 A 
HETATM    4  N   UNL     1      43.903 -20.367   6.891  1.00  0.00    -0.054 NA
HETATM    5  C   UNL     1      43.780 -19.402   7.855  1.00  0.00     0.275 A 
HETATM    6  N   UNL     1      43.696 -18.143   7.411  1.00  0.00    -0.149 NA
HETATM    7  N   UNL     1      43.975 -20.058   4.499  1.00  0.00    -0.192 N 
HETATM    8  C   UNL     1      43.804 -19.192   3.426  1.00  0.00     0.037 C 
HETATM    9  C   UNL     1      43.848 -19.837   2.060  1.00  0.00     0.070 C 
HETATM   10  C   UNL     1      43.629 -17.864   3.648  1.00  0.00     0.063 C 
HETATM   11  H   UNL     1      44.043 -21.052   4.293  1.00  0.00     0.184 HD
ENDROOT
BRANCH  10  12
HETATM   12  C   UNL     1      43.283 -16.980   2.502  1.00  0.00     0.256 C 
HETATM   13  N   UNL     1      41.936 -16.889   2.239  1.00  0.00    -0.323 N 
HETATM   14  H   UNL     1      41.298 -17.437   2.799  1.00  0.00     0.169 HD
HETATM   15  O   UNL     1      44.193 -16.426   1.895  1.00  0.00    -0.267 OA
BRANCH  13  16
HETATM   16  C   UNL     1      41.328 -16.101   1.234  1.00  0.00     0.035 A 
HETATM   17  C   UNL     1      41.548 -16.275  -0.136  1.00  0.00     0.029 A 
HETATM   18  C   UNL     1      40.920 -15.446  -1.071  1.00  0.00     0.002 A 
HETATM   19  C   UNL     1      40.061 -14.437  -0.647  1.00  0.00     0.000 A 
HETATM   20  C   UNL     1      39.831 -14.254   0.714  1.00  0.00     0.002 A 
HETATM   21  C   UNL     1      40.464 -15.080   1.648  1.00  0.00     0.029 A 
ENDBRANCH  13  16
ENDBRANCH  10  12
BRANCH   1  22
HETATM   22  C   UNL     1      42.598 -16.269   5.364  1.00  0.00     0.015 A 
HETATM   23  C   UNL     1      42.723 -14.884   5.381  1.00  0.00     0.036 A 
HETATM   24  C   UNL     1      43.902 -14.005   5.167  1.00  0.00     0.070 C 
HETATM   25  N   UNL     1      41.478 -14.400   5.696  1.00  0.00    -0.278 N 
HETATM   26  C   UNL     1      41.076 -13.019   5.833  1.00  0.00     0.179 C 
HETATM   27  N   UNL     1      40.570 -15.365   5.911  1.00  0.00    -0.185 NA
HETATM   28  C   UNL     1      41.247 -16.497   5.718  1.00  0.00     0.150 A 
ENDBRANCH   1  22
TORSDOF 3
ENDMDL
MODEL 5
REMARK VINA RESULT:      -7.6      2.207      5.821
REMARK  3 active torsions:
REMARK  status: ('A' for Active; 'I' for Inactive)
REMARK    1  A    between atoms: C_7  and  C_8 
REMARK    2  A    between atoms: C_17  and  C_18 
REMARK       I    between atoms: C_18  and  N_19 
REMARK    3  A    between atoms: N_19  and  C_20 
ROOT
HETATM    1  C   UNL     1      43.244 -16.575   4.285  1.00  0.00     0.206 C 
HETATM    2  N   UNL     1      43.896 -17.410   5.306  1.00  0.00    -0.084 N 
HETATM    3  C   UNL     1      44.257 -18.715   5.100  1.00  0.00     0.725 A 
HETATM    4  N   UNL     1      44.886 -19.169   6.153  1.00  0.00    -0.054 NA
HETATM    5  C   UNL     1      44.925 -18.076   6.976  1.00  0.00     0.275 A 
HETATM    6  N   UNL     1      44.383 -16.956   6.483  1.00  0.00    -0.149 NA
HETATM    7  N   UNL     1      43.951 -19.308   3.932  1.00  0.00    -0.192 N 
HETATM    8  C   UNL     1      43.180 -18.701   2.948  1.00  0.00     0.037 C 
HETATM    9  C   UNL     1      42.841 -19.574   1.762  1.00  0.00     0.070 C 
HETATM   10  C   UNL     1      42.800 -17.405   3.088  1.00  0.00     0.063 C 
HETATM   11  H   UNL     1      44.164 -20.295   3.819  1.00  0.00     0.184 HD
ENDROOT
BRANCH  10  12
HETATM   12  C   UNL     1      41.841 -16.825   2.109  1.00  0.00     0.256 C 
HETATM   13  N   UNL     1      42.397 -15.916   1.237  1.00  0.00    -0.323 N 
HETATM   14  H   UNL     1      43.375 -15.688   1.340  1.00  0.00     0.169 HD
HETATM   15  O   UNL     1      40.668 -17.179   2.158  1.00  0.00    -0.267 OA
BRANCH  13  16
HETATM   16  C   UNL     1      41.727 -15.238   0.192  1.00  0.00     0.035 A 
HETATM   17  C   UNL     1      41.307 -15.849  -0.993  1.00  0.00     0.029 A 
HETATM   18  C   UNL     1      40.661 -15.107  -1.988  1.00  0.00     0.002 A 
HETATM   19  C   UNL     1      40.423 -13.748  -1.806  1.00  0.00     0.000 A 
HETATM   20  C   UNL     1      40.833 -13.128  -0.629  1.00  0.00     0.002 A 
HETATM   21  C   UNL     1      41.485 -13.869   0.362  1.00  0.00     0.029 A 
ENDBRANCH  13  16
ENDBRANCH  10  12
BRANCH   1  22
HETATM   22  C   UNL     1      42.173 -15.717   4.907  1.00  0.00     0.015 A 
HETATM   23  C   UNL     1      42.039 -14.335   4.829  1.00  0.00     0.036 A 
HETATM   24  C   UNL     1      42.895 -13.304   4.186  1.00  0.00     0.070 C 
HETATM   25  N   UNL     1      40.905 -14.028   5.538  1.00  0.00    -0.278 N 
HETATM   26  C   UNL     1      40.325 -12.723   5.755  1.00  0.00     0.179 C 
HETATM   27  N   UNL     1      40.317 -15.100   6.091  1.00  0.00    -0.185 NA
HETATM   28  C   UNL     1      41.086 -16.122   5.717  1.00  0.00     0.150 A 
ENDBRANCH   1  22
TORSDOF 3
ENDMDL
MODEL 6
REMARK VINA RESULT:      -7.5      1.722      4.299
REMARK  3 active torsions:
REMARK  status: ('A' for Active; 'I' for Inactive)
REMARK    1  A    between atoms: C_7  and  C_8 
REMARK    2  A    between atoms: C_17  and  C_18 
REMARK       I    between atoms: C_18  and  N_19 
REMARK    3  A    between atoms: N_19  and  C_20 
ROOT
HETATM    1  C   UNL     1      42.775 -15.107   4.107  1.00  0.00     0.206 C 
HETATM    2  N   UNL     1      42.608 -13.838   4.831  1.00  0.00    -0.084 N 
HETATM    3  C   UNL     1      42.783 -13.708   6.183  1.00  0.00     0.725 A 
HETATM    4  N   UNL     1      42.648 -12.454   6.527  1.00  0.00    -0.054 NA
HETATM    5  C   UNL     1      42.428 -11.833   5.326  1.00  0.00     0.275 A 
HETATM    6  N   UNL     1      42.451 -12.627   4.249  1.00  0.00    -0.149 NA
HETATM    7  N   UNL     1      43.060 -14.798   6.920  1.00  0.00    -0.192 N 
HETATM    8  C   UNL     1      43.069 -16.088   6.401  1.00  0.00     0.037 C 
HETATM    9  C   UNL     1      43.277 -17.191   7.411  1.00  0.00     0.070 C 
HETATM   10  C   UNL     1      42.911 -16.282   5.066  1.00  0.00     0.063 C 
HETATM   11  H   UNL     1      43.120 -14.700   7.930  1.00  0.00     0.184 HD
ENDROOT
BRANCH  10  12
HETATM   12  C   UNL     1      42.758 -17.669   4.551  1.00  0.00     0.256 C 
HETATM   13  N   UNL     1      43.896 -18.196   3.986  1.00  0.00    -0.323 N 
HETATM   14  H   UNL     1      44.719 -17.613   3.929  1.00  0.00     0.169 HD
HETATM   15  O   UNL     1      41.666 -18.216   4.658  1.00  0.00    -0.267 OA
BRANCH  13  16
HETATM   16  C   UNL     1      44.042 -19.496   3.447  1.00  0.00     0.035 A 
HETATM   17  C   UNL     1      43.631 -19.861   2.162  1.00  0.00     0.029 A 
HETATM   18  C   UNL     1      43.797 -21.172   1.705  1.00  0.00     0.002 A 
HETATM   19  C   UNL     1      44.380 -22.132   2.526  1.00  0.00     0.000 A 
HETATM   20  C   UNL     1      44.795 -21.782   3.808  1.00  0.00     0.002 A 
HETATM   21  C   UNL     1      44.624 -20.472   4.266  1.00  0.00     0.029 A 
ENDBRANCH  13  16
ENDBRANCH  10  12
BRANCH   1  22
HETATM   22  C   UNL     1      41.711 -15.258   3.050  1.00  0.00     0.015 A 
HETATM   23  C   UNL     1      40.362 -14.938   3.150  1.00  0.00     0.036 A 
HETATM   24  C   UNL     1      39.561 -14.421   4.291  1.00  0.00     0.070 C 
HETATM   25  N   UNL     1      39.814 -15.238   1.928  1.00  0.00    -0.278 N 
HETATM   26  C   UNL     1      38.439 -15.081   1.514  1.00  0.00     0.179 C 
HETATM   27  N   UNL     1      40.699 -15.753   1.061  1.00  0.00    -0.185 NA
HETATM   28  C   UNL     1      41.846 -15.773   1.739  1.00  0.00     0.150 A 
ENDBRANCH   1  22
TORSDOF 3
ENDMDL
MODEL 7
REMARK VINA RESULT:      -7.4      2.225      3.675
REMARK  3 active torsions:
REMARK  status: ('A' for Active; 'I' for Inactive)
REMARK    1  A    between atoms: C_7  and  C_8 
REMARK    2  A    between atoms: C_17  and  C_18 
REMARK       I    between atoms: C_18  and  N_19 
REMARK    3  A    between atoms: N_19  and  C_20 
ROOT
HETATM    1  C   UNL     1      40.700 -15.387   2.377  1.00  0.00     0.206 C 
HETATM    2  N   UNL     1      40.864 -14.601   1.145  1.00  0.00    -0.084 N 
HETATM    3  C   UNL     1      41.666 -14.985   0.102  1.00  0.00     0.725 A 
HETATM    4  N   UNL     1      41.546 -14.133  -0.883  1.00  0.00    -0.054 NA
HETATM    5  C   UNL     1      40.613 -13.250  -0.406  1.00  0.00     0.275 A 
HETATM    6  N   UNL     1      40.120 -13.523   0.807  1.00  0.00    -0.149 NA
HETATM    7  N   UNL     1      42.403 -16.104   0.214  1.00  0.00    -0.192 N 
HETATM    8  C   UNL     1      42.488 -16.847   1.385  1.00  0.00     0.037 C 
HETATM    9  C   UNL     1      43.465 -17.999   1.351  1.00  0.00     0.070 C 
HETATM   10  C   UNL     1      41.711 -16.524   2.451  1.00  0.00     0.063 C 
HETATM   11  H   UNL     1      43.044 -16.340  -0.539  1.00  0.00     0.184 HD
ENDROOT
BRANCH  10  12
HETATM   12  C   UNL     1      41.933 -17.224   3.745  1.00  0.00     0.256 C 
HETATM   13  N   UNL     1      43.058 -16.816   4.426  1.00  0.00    -0.323 N 
HETATM   14  H   UNL     1      43.653 -16.120   4.000  1.00  0.00     0.169 HD
HETATM   15  O   UNL     1      41.133 -18.085   4.091  1.00  0.00    -0.267 OA
BRANCH  13  16
HETATM   16  C   UNL     1      43.492 -17.288   5.688  1.00  0.00     0.035 A 
HETATM   17  C   UNL     1      44.483 -18.258   5.861  1.00  0.00     0.029 A 
HETATM   18  C   UNL     1      44.849 -18.683   7.142  1.00  0.00     0.002 A 
HETATM   19  C   UNL     1      44.231 -18.139   8.264  1.00  0.00     0.000 A 
HETATM   20  C   UNL     1      43.244 -17.171   8.106  1.00  0.00     0.002 A 
HETATM   21  C   UNL     1      42.874 -16.750   6.825  1.00  0.00     0.029 A 
ENDBRANCH  13  16
ENDBRANCH  10  12
BRANCH   1  22
HETATM   22  C   UNL     1      40.660 -14.482   3.581  1.00  0.00     0.015 A 
HETATM   23  C   UNL     1      41.653 -13.617   4.028  1.00  0.00     0.036 A 
HETATM   24  C   UNL     1      43.026 -13.358   3.521  1.00  0.00     0.070 C 
HETATM   25  N   UNL     1      41.141 -13.004   5.144  1.00  0.00    -0.278 N 
HETATM   26  C   UNL     1      41.778 -12.010   5.977  1.00  0.00     0.179 C 
HETATM   27  N   UNL     1      39.909 -13.429   5.467  1.00  0.00    -0.185 NA
HETATM   28  C   UNL     1      39.619 -14.328   4.527  1.00  0.00     0.150 A 
ENDBRANCH   1  22
TORSDOF 3
ENDMDL
MODEL 8
REMARK VINA RESULT:      -7.3      2.577      6.421
REMARK  3 active torsions:
REMARK  status: ('A' for Active; 'I' for Inactive)
REMARK    1  A    between atoms: C_7  and  C_8 
REMARK    2  A    between atoms: C_17  and  C_18 
REMARK       I    between atoms: C_18  and  N_19 
REMARK    3  A    between atoms: N_19  and  C_20 
ROOT
HETATM    1  C   UNL     1      42.430 -16.379   4.792  1.00  0.00     0.206 C 
HETATM    2  N   UNL     1      42.472 -17.193   3.568  1.00  0.00    -0.084 N 
HETATM    3  C   UNL     1      43.306 -18.267   3.400  1.00  0.00     0.725 A 
HETATM    4  N   UNL     1      43.061 -18.840   2.251  1.00  0.00    -0.054 NA
HETATM    5  C   UNL     1      42.022 -18.096   1.758  1.00  0.00     0.275 A 
HETATM    6  N   UNL     1      41.584 -17.111   2.551  1.00  0.00    -0.149 NA
HETATM    7  N   UNL     1      44.190 -18.573   4.366  1.00  0.00    -0.192 N 
HETATM    8  C   UNL     1      44.388 -17.787   5.495  1.00  0.00     0.037 C 
HETATM    9  C   UNL     1      45.512 -18.229   6.403  1.00  0.00     0.070 C 
HETATM   10  C   UNL     1      43.586 -16.715   5.725  1.00  0.00     0.063 C 
HETATM   11  H   UNL     1      44.849 -19.329   4.200  1.00  0.00     0.184 HD
ENDROOT
BRANCH  10  12
HETATM   12  C   UNL     1      43.916 -15.793   6.845  1.00  0.00     0.256 C 
HETATM   13  N   UNL     1      44.652 -14.690   6.476  1.00  0.00    -0.323 N 
HETATM   14  H   UNL     1      44.937 -14.603   5.511  1.00  0.00     0.169 HD
HETATM   15  O   UNL     1      43.530 -16.079   7.972  1.00  0.00    -0.267 OA
BRANCH  13  16
HETATM   16  C   UNL     1      45.076 -13.641   7.326  1.00  0.00     0.035 A 
HETATM   17  C   UNL     1      44.286 -13.085   8.336  1.00  0.00     0.029 A 
HETATM   18  C   UNL     1      44.771 -12.040   9.128  1.00  0.00     0.002 A 
HETATM   19  C   UNL     1      46.055 -11.543   8.923  1.00  0.00     0.000 A 
HETATM   20  C   UNL     1      46.853 -12.089   7.922  1.00  0.00     0.002 A 
HETATM   21  C   UNL     1      46.365 -13.130   7.126  1.00  0.00     0.029 A 
ENDBRANCH  13  16
ENDBRANCH  10  12
BRANCH   1  22
HETATM   22  C   UNL     1      42.280 -14.919   4.453  1.00  0.00     0.015 A 
HETATM   23  C   UNL     1      41.346 -14.020   4.955  1.00  0.00     0.036 A 
HETATM   24  C   UNL     1      40.214 -14.212   5.900  1.00  0.00     0.070 C 
HETATM   25  N   UNL     1      41.625 -12.816   4.359  1.00  0.00    -0.278 N 
HETATM   26  C   UNL     1      40.944 -11.557   4.551  1.00  0.00     0.179 C 
HETATM   27  N   UNL     1      42.647 -12.877   3.491  1.00  0.00    -0.185 NA
HETATM   28  C   UNL     1      43.040 -14.149   3.540  1.00  0.00     0.150 A 
ENDBRANCH   1  22
TORSDOF 3
ENDMDL
MODEL 9
REMARK VINA RESULT:      -7.2      2.431      7.054
REMARK  3 active torsions:
REMARK  status: ('A' for Active; 'I' for Inactive)
REMARK    1  A    between atoms: C_7  and  C_8 
REMARK    2  A    between atoms: C_17  and  C_18 
REMARK       I    between atoms: C_18  and  N_19 
REMARK    3  A    between atoms: N_19  and  C_20 
ROOT
HETATM    1  C   UNL     1      41.907 -18.086   3.992  1.00  0.00     0.206 C 
HETATM    2  N   UNL     1      43.036 -18.930   3.575  1.00  0.00    -0.084 N 
HETATM    3  C   UNL     1      44.085 -19.254   4.395  1.00  0.00     0.725 A 
HETATM    4  N   UNL     1      44.889 -20.080   3.778  1.00  0.00    -0.054 NA
HETATM    5  C   UNL     1      44.261 -20.270   2.576  1.00  0.00     0.275 A 
HETATM    6  N   UNL     1      43.094 -19.634   2.421  1.00  0.00    -0.149 NA
HETATM    7  N   UNL     1      44.139 -18.731   5.633  1.00  0.00    -0.192 N 
HETATM    8  C   UNL     1      43.240 -17.779   6.099  1.00  0.00     0.037 C 
HETATM    9  C   UNL     1      43.541 -17.221   7.471  1.00  0.00     0.070 C 
HETATM   10  C   UNL     1      42.174 -17.423   5.337  1.00  0.00     0.063 C 
HETATM   11  H   UNL     1      44.956 -18.925   6.207  1.00  0.00     0.184 HD
ENDROOT
BRANCH  10  12
HETATM   12  C   UNL     1      41.319 -16.287   5.777  1.00  0.00     0.256 C 
HETATM   13  N   UNL     1      41.751 -15.051   5.352  1.00  0.00    -0.323 N 
HETATM   14  H   UNL     1      42.608 -14.998   4.820  1.00  0.00     0.169 HD
HETATM   15  O   UNL     1      40.335 -16.528   6.467  1.00  0.00    -0.267 OA
BRANCH  13  16
HETATM   16  C   UNL     1      41.117 -13.811   5.598  1.00  0.00     0.035 A 
HETATM   17  C   UNL     1      39.769 -13.555   5.330  1.00  0.00     0.029 A 
HETATM   18  C   UNL     1      39.217 -12.296   5.588  1.00  0.00     0.002 A 
HETATM   19  C   UNL     1      40.004 -11.281   6.123  1.00  0.00     0.000 A 
HETATM   20  C   UNL     1      41.347 -11.524   6.397  1.00  0.00     0.002 A 
HETATM   21  C   UNL     1      41.901 -12.781   6.133  1.00  0.00     0.029 A 
ENDBRANCH  13  16
ENDBRANCH  10  12
BRANCH   1  22
HETATM   22  C   UNL     1      41.506 -17.150   2.882  1.00  0.00     0.015 A 
HETATM   23  C   UNL     1      42.307 -16.232   2.212  1.00  0.00     0.036 A 
HETATM   24  C   UNL     1      43.733 -15.857   2.401  1.00  0.00     0.070 C 
HETATM   25  N   UNL     1      41.495 -15.635   1.281  1.00  0.00    -0.278 N 
HETATM   26  C   UNL     1      41.852 -14.611   0.325  1.00  0.00     0.179 C 
HETATM   27  N   UNL     1      40.228 -16.074   1.320  1.00  0.00    -0.185 NA
HETATM   28  C   UNL     1      40.230 -16.986   2.292  1.00  0.00     0.150 A 
ENDBRANCH   1  22
TORSDOF 3
ENDMDL
MODEL 10
REMARK VINA RESULT:      -7.1      2.388      7.191
REMARK  3 active torsions:
REMARK  status: ('A' for Active; 'I' for Inactive)
REMARK    1  A    between atoms: C_7  and  C_8 
REMARK    2  A    between atoms: C_17  and  C_18 
REMARK       I    between atoms: C_18  and  N_19 
REMARK    3  A    between atoms: N_19  and  C_20 
ROOT
HETATM    1  C   UNL     1      42.796 -16.410   4.757  1.00  0.00     0.206 C 
HETATM    2  N   UNL     1      43.395 -17.595   5.388  1.00  0.00    -0.084 N 
HETATM    3  C   UNL     1      44.238 -17.535   6.467  1.00  0.00     0.725 A 
HETATM    4  N   UNL     1      44.542 -18.745   6.856  1.00  0.00    -0.054 NA
HETATM    5  C   UNL     1      43.819 -19.529   5.998  1.00  0.00     0.275 A 
HETATM    6  N   UNL     1      43.054 -18.875   5.116  1.00  0.00    -0.149 NA
HETATM    7  N   UNL     1      44.602 -16.335   6.952  1.00  0.00    -0.192 N 
HETATM    8  C   UNL     1      44.261 -15.131   6.347  1.00  0.00     0.037 C 
HETATM    9  C   UNL     1      44.869 -13.897   6.971  1.00  0.00     0.070 C 
HETATM   10  C   UNL     1      43.420 -15.123   5.281  1.00  0.00     0.063 C 
HETATM   11  H   UNL     1      45.281 -16.303   7.709  1.00  0.00     0.184 HD
ENDROOT
BRANCH  10  12
HETATM   12  C   UNL     1      43.197 -13.848   4.546  1.00  0.00     0.256 C 
HETATM   13  N   UNL     1      41.984 -13.251   4.798  1.00  0.00    -0.323 N 
HETATM   14  H   UNL     1      41.335 -13.719   5.415  1.00  0.00     0.169 HD
HETATM   15  O   UNL     1      44.076 -13.446   3.792  1.00  0.00    -0.267 OA
BRANCH  13  16
HETATM   16  C   UNL     1      41.525 -12.024   4.262  1.00  0.00     0.035 A 
HETATM   17  C   UNL     1      41.442 -10.834   4.991  1.00  0.00     0.029 A 
HETATM   18  C   UNL     1      40.964  -9.664   4.394  1.00  0.00     0.002 A 
HETATM   19  C   UNL     1      40.570  -9.668   3.059  1.00  0.00     0.000 A 
HETATM   20  C   UNL     1      40.650 -10.845   2.321  1.00  0.00     0.002 A 
HETATM   21  C   UNL     1      41.122 -12.017   2.920  1.00  0.00     0.029 A 
ENDBRANCH  13  16
ENDBRANCH  10  12
BRANCH   1  22
HETATM   22  C   UNL     1      42.785 -16.556   3.257  1.00  0.00     0.015 A 
HETATM   23  C   UNL     1      41.750 -16.254   2.380  1.00  0.00     0.036 A 
HETATM   24  C   UNL     1      40.368 -15.764   2.629  1.00  0.00     0.070 C 
HETATM   25  N   UNL     1      42.225 -16.539   1.125  1.00  0.00    -0.278 N 
HETATM   26  C   UNL     1      41.536 -16.391  -0.136  1.00  0.00     0.179 C 
HETATM   27  N   UNL     1      43.474 -17.030   1.129  1.00  0.00    -0.185 NA
HETATM   28  C   UNL     1      43.813 -17.048   2.418  1.00  0.00     0.150 A 
ENDBRANCH   1  22
TORSDOF 3
ENDMDL
