MODEL 1
REMARK VINA RESULT:      -9.0      0.000      0.000
REMARK  6 active torsions:
REMARK  status: ('A' for Active; 'I' for Inactive)
REMARK    1  A    between atoms: C_2  and  N_3 
REMARK    2  A    between atoms: C_2  and  C_25 
REMARK       I    between atoms: N_3  and  C_4 
REMARK    3  A    between atoms: C_4  and  C_5 
REMARK    4  A    between atoms: C_5  and  N_6 
REMARK    5  A    between atoms: C_10  and  N_11 
REMARK       I    between atoms: N_11  and  C_12 
REMARK       I    between atoms: C_12  and  N_13 
REMARK    6  A    between atoms: N_13  and  C_14 
ROOT
HETATM    1  N   UNL     1      43.121 -14.279   6.389  1.00  0.00    -0.063 N 
HETATM    2  H   UNL     1      42.626 -13.483   6.817  1.00  0.00     0.280 HD
HETATM    3  C   UNL     1      43.600 -13.800   5.037  1.00  0.00     0.237 C 
HETATM    4  C   UNL     1      42.493 -13.806   4.004  1.00  0.00     0.053 C 
HETATM    5  C   UNL     1      41.758 -15.138   3.904  1.00  0.00     0.089 C 
HETATM    6  C   UNL     1      41.228 -15.553   5.272  1.00  0.00     0.053 C 
HETATM    7  C   UNL     1      42.228 -15.492   6.413  1.00  0.00     0.237 C 
ENDROOT
BRANCH   1   8
HETATM    8  C   UNL     1      44.330 -14.546   7.312  1.00  0.00     0.337 C 
BRANCH   8   9
HETATM    9  C   UNL     1      44.933 -13.267   7.890  1.00  0.00     0.244 C 
HETATM   10  N   UNL     1      44.125 -12.594   8.770  1.00  0.00    -0.351 N 
HETATM   11  H   UNL     1      43.206 -12.948   9.013  1.00  0.00     0.163 HD
HETATM   12  O   UNL     1      46.087 -12.945   7.620  1.00  0.00    -0.272 OA
BRANCH  10  13
HETATM   13  C   UNL     1      44.548 -11.395   9.482  1.00  0.00     0.120 C 
HETATM   14  C   UNL     1      45.362 -11.730  10.732  1.00  0.00     0.038 C 
BRANCH  13  15
HETATM   15  C   UNL     1      43.312 -10.595   9.814  1.00  0.00     0.005 A 
HETATM   16  S   UNL     1      42.052 -10.373   8.661  1.00  0.00    -0.104 SA
HETATM   17  C   UNL     1      41.128  -9.436   9.748  1.00  0.00     0.050 A 
HETATM   18  C   UNL     1      41.756  -9.286  10.963  1.00  0.00     0.008 A 
HETATM   19  C   UNL     1      43.014  -9.952  11.001  1.00  0.00     0.017 A 
ENDBRANCH  13  15
ENDBRANCH  10  13
ENDBRANCH   8   9
ENDBRANCH   1   8
BRANCH   5  20
HETATM   20  N   UNL     1      42.496 -16.155   3.150  1.00  0.00    -0.338 N 
HETATM   21  C   UNL     1      42.526 -17.506   3.396  1.00  0.00     0.321 C 
HETATM   22  N   UNL     1      43.549 -18.128   2.722  1.00  0.00    -0.309 N 
HETATM   23  O   UNL     1      41.775 -18.037   4.200  1.00  0.00    -0.247 OA
HETATM   24  H   UNL     1      44.259 -17.526   2.329  1.00  0.00     0.170 HD
HETATM   25  H   UNL     1      42.914 -15.857   2.276  1.00  0.00     0.164 HD
BRANCH  22  26
HETATM   26  C   UNL     1      43.885 -19.497   2.817  1.00  0.00     0.036 A 
HETATM   27  C   UNL     1      43.562 -20.442   1.836  1.00  0.00     0.032 A 
HETATM   28  C   UNL     1      43.888 -21.789   2.013  1.00  0.00     0.044 A 
HETATM   29  C   UNL     1      44.540 -22.190   3.170  1.00  0.00     0.116 A 
HETATM   30  F   UNL     1      44.837 -23.483   3.346  1.00  0.00    -0.206 F 
HETATM   31  C   UNL     1      44.890 -21.266   4.146  1.00  0.00     0.044 A 
HETATM   32  C   UNL     1      44.573 -19.917   3.966  1.00  0.00     0.032 A 
ENDBRANCH  22  26
ENDBRANCH   5  20
TORSDOF 6
ENDMDL
MODEL 2
REMARK VINA RESULT:      -8.5      4.289     10.559
REMARK  6 active torsions:
REMARK  status: ('A' for Active; 'I' for Inactive)
REMARK    1  A    between atoms: C_2  and  N_3 
REMARK    2  A    between atoms: C_2  and  C_25 
REMARK       I    between atoms: N_3  and  C_4 
REMARK    3  A    between atoms: C_4  and  C_5 
REMARK    4  A    between atoms: C_5  and  N_6 
REMARK    5  A    between atoms: C_10  and  N_11 
REMARK       I    between atoms: N_11  and  C_12 
REMARK       I    between atoms: C_12  and  N_13 
REMARK    6  A    between atoms: N_13  and  C_14 
ROOT
HETATM    1  N   UNL     1      43.319 -15.066   5.212  1.00  0.00    -0.063 N 
HETATM    2  H   UNL     1      43.891 -15.789   4.750  1.00  0.00     0.280 HD
HETATM    3  C   UNL     1      44.148 -13.802   5.202  1.00  0.00     0.237 C 
HETATM    4  C   UNL     1      45.204 -13.801   6.287  1.00  0.00     0.053 C 
HETATM    5  C   UNL     1      44.653 -14.104   7.675  1.00  0.00     0.089 C 
HETATM    6  C   UNL     1      43.885 -15.421   7.664  1.00  0.00     0.053 C 
HETATM    7  C   UNL     1      42.861 -15.578   6.554  1.00  0.00     0.237 C 
ENDROOT
BRANCH   1   8
HETATM    8  C   UNL     1      42.080 -14.892   4.309  1.00  0.00     0.337 C 
BRANCH   8   9
HETATM    9  C   UNL     1      42.200 -15.639   2.981  1.00  0.00     0.244 C 
HETATM   10  N   UNL     1      42.567 -16.956   3.090  1.00  0.00    -0.351 N 
HETATM   11  H   UNL     1      42.726 -17.382   3.998  1.00  0.00     0.163 HD
HETATM   12  O   UNL     1      41.905 -15.085   1.926  1.00  0.00    -0.272 OA
BRANCH  10  13
HETATM   13  C   UNL     1      42.663 -17.853   1.947  1.00  0.00     0.120 C 
HETATM   14  C   UNL     1      41.293 -18.155   1.340  1.00  0.00     0.038 C 
BRANCH  13  15
HETATM   15  C   UNL     1      43.365 -19.109   2.403  1.00  0.00     0.005 A 
HETATM   16  S   UNL     1      44.145 -19.193   3.936  1.00  0.00    -0.104 SA
HETATM   17  C   UNL     1      44.639 -20.806   3.674  1.00  0.00     0.050 A 
HETATM   18  C   UNL     1      44.227 -21.280   2.449  1.00  0.00     0.008 A 
HETATM   19  C   UNL     1      43.494 -20.302   1.716  1.00  0.00     0.017 A 
ENDBRANCH  13  15
ENDBRANCH  10  13
ENDBRANCH   8   9
ENDBRANCH   1   8
BRANCH   5  20
HETATM   20  N   UNL     1      43.982 -12.959   8.298  1.00  0.00    -0.338 N 
HETATM   21  C   UNL     1      44.135 -12.513   9.588  1.00  0.00     0.321 C 
HETATM   22  N   UNL     1      43.143 -11.634   9.949  1.00  0.00    -0.309 N 
HETATM   23  O   UNL     1      45.009 -12.944  10.326  1.00  0.00    -0.247 OA
HETATM   24  H   UNL     1      42.336 -11.596   9.342  1.00  0.00     0.170 HD
HETATM   25  H   UNL     1      43.461 -12.348   7.679  1.00  0.00     0.164 HD
BRANCH  22  26
HETATM   26  C   UNL     1      42.982 -11.053  11.227  1.00  0.00     0.036 A 
HETATM   27  C   UNL     1      43.875 -10.119  11.767  1.00  0.00     0.032 A 
HETATM   28  C   UNL     1      43.679  -9.615  13.055  1.00  0.00     0.044 A 
HETATM   29  C   UNL     1      42.589 -10.041  13.801  1.00  0.00     0.116 A 
HETATM   30  F   UNL     1      42.412  -9.569  15.040  1.00  0.00    -0.206 F 
HETATM   31  C   UNL     1      41.679 -10.949  13.275  1.00  0.00     0.044 A 
HETATM   32  C   UNL     1      41.869 -11.447  11.983  1.00  0.00     0.032 A 
ENDBRANCH  22  26
ENDBRANCH   5  20
TORSDOF 6
ENDMDL
MODEL 3
REMARK VINA RESULT:      -8.5      3.789      6.480
REMARK  6 active torsions:
REMARK  status: ('A' for Active; 'I' for Inactive)
REMARK    1  A    between atoms: C_2  and  N_3 
REMARK    2  A    between atoms: C_2  and  C_25 
REMARK       I    between atoms: N_3  and  C_4 
REMARK    3  A    between atoms: C_4  and  C_5 
REMARK    4  A    between atoms: C_5  and  N_6 
REMARK    5  A    between atoms: C_10  and  N_11 
REMARK       I    between atoms: N_11  and  C_12 
REMARK       I    between atoms: C_12  and  N_13 
REMARK    6  A    between atoms: N_13  and  C_14 
ROOT
HETATM    1  N   UNL     1      40.744 -12.641   5.138  1.00  0.00    -0.063 N 
HETATM    2  H   UNL     1      40.330 -12.191   5.968  1.00  0.00     0.280 HD
HETATM    3  C   UNL     1      40.067 -13.986   5.004  1.00  0.00     0.237 C 
HETATM    4  C   UNL     1      40.635 -15.010   5.964  1.00  0.00     0.053 C 
HETATM    5  C   UNL     1      42.153 -15.132   5.899  1.00  0.00     0.089 C 
HETATM    6  C   UNL     1      42.803 -13.769   6.109  1.00  0.00     0.053 C 
HETATM    7  C   UNL     1      42.245 -12.635   5.267  1.00  0.00     0.237 C 
ENDROOT
BRANCH   1   8
HETATM    8  C   UNL     1      40.355 -11.734   3.951  1.00  0.00     0.337 C 
BRANCH   8   9
HETATM    9  C   UNL     1      40.434 -12.450   2.603  1.00  0.00     0.244 C 
HETATM   10  N   UNL     1      39.273 -13.059   2.203  1.00  0.00    -0.351 N 
HETATM   11  H   UNL     1      38.433 -13.010   2.770  1.00  0.00     0.163 HD
HETATM   12  O   UNL     1      41.458 -12.393   1.927  1.00  0.00    -0.272 OA
BRANCH  10  13
HETATM   13  C   UNL     1      39.127 -13.728   0.917  1.00  0.00     0.120 C 
HETATM   14  C   UNL     1      37.660 -13.977   0.565  1.00  0.00     0.038 C 
BRANCH  13  15
HETATM   15  C   UNL     1      39.917 -15.014   0.974  1.00  0.00     0.005 A 
HETATM   16  S   UNL     1      41.160 -15.352  -0.169  1.00  0.00    -0.104 SA
HETATM   17  C   UNL     1      41.502 -16.864   0.546  1.00  0.00     0.050 A 
HETATM   18  C   UNL     1      40.693 -17.117   1.630  1.00  0.00     0.008 A 
HETATM   19  C   UNL     1      39.779 -16.052   1.876  1.00  0.00     0.017 A 
ENDBRANCH  13  15
ENDBRANCH  10  13
ENDBRANCH   8   9
ENDBRANCH   1   8
BRANCH   5  20
HETATM   20  N   UNL     1      42.624 -15.914   4.753  1.00  0.00    -0.338 N 
HETATM   21  C   UNL     1      42.705 -17.282   4.662  1.00  0.00     0.321 C 
HETATM   22  N   UNL     1      43.478 -17.682   3.599  1.00  0.00    -0.309 N 
HETATM   23  O   UNL     1      42.213 -18.019   5.504  1.00  0.00    -0.247 OA
HETATM   24  H   UNL     1      44.051 -16.970   3.169  1.00  0.00     0.170 HD
HETATM   25  H   UNL     1      42.774 -15.406   3.888  1.00  0.00     0.164 HD
BRANCH  22  26
HETATM   26  C   UNL     1      43.808 -19.018   3.278  1.00  0.00     0.036 A 
HETATM   27  C   UNL     1      43.388 -19.655   2.104  1.00  0.00     0.032 A 
HETATM   28  C   UNL     1      43.715 -20.993   1.867  1.00  0.00     0.044 A 
HETATM   29  C   UNL     1      44.464 -21.692   2.803  1.00  0.00     0.116 A 
HETATM   30  F   UNL     1      44.763 -22.977   2.583  1.00  0.00    -0.206 F 
HETATM   31  C   UNL     1      44.910 -21.072   3.963  1.00  0.00     0.044 A 
HETATM   32  C   UNL     1      44.591 -19.731   4.197  1.00  0.00     0.032 A 
ENDBRANCH  22  26
ENDBRANCH   5  20
TORSDOF 6
ENDMDL
MODEL 4
REMARK VINA RESULT:      -8.5      4.621     10.557
REMARK  6 active torsions:
REMARK  status: ('A' for Active; 'I' for Inactive)
REMARK    1  A    between atoms: C_2  and  N_3 
REMARK    2  A    between atoms: C_2  and  C_25 
REMARK       I    between atoms: N_3  and  C_4 
REMARK    3  A    between atoms: C_4  and  C_5 
REMARK    4  A    between atoms: C_5  and  N_6 
REMARK    5  A    between atoms: C_10  and  N_11 
REMARK       I    between atoms: N_11  and  C_12 
REMARK       I    between atoms: C_12  and  N_13 
REMARK    6  A    between atoms: N_13  and  C_14 
ROOT
HETATM    1  N   UNL     1      41.236 -13.805   5.206  1.00  0.00    -0.063 N 
HETATM    2  H   UNL     1      41.040 -13.725   4.198  1.00  0.00     0.280 HD
HETATM    3  C   UNL     1      39.895 -13.956   5.887  1.00  0.00     0.237 C 
HETATM    4  C   UNL     1      39.175 -12.632   6.032  1.00  0.00     0.053 C 
HETATM    5  C   UNL     1      40.021 -11.545   6.684  1.00  0.00     0.089 C 
HETATM    6  C   UNL     1      41.334 -11.371   5.929  1.00  0.00     0.053 C 
HETATM    7  C   UNL     1      42.101 -12.648   5.637  1.00  0.00     0.237 C 
ENDROOT
BRANCH   1   8
HETATM    8  C   UNL     1      42.054 -15.106   5.356  1.00  0.00     0.337 C 
BRANCH   8   9
HETATM    9  C   UNL     1      42.642 -15.597   4.034  1.00  0.00     0.244 C 
HETATM   10  N   UNL     1      42.206 -16.834   3.632  1.00  0.00    -0.351 N 
HETATM   11  H   UNL     1      41.532 -17.356   4.182  1.00  0.00     0.163 HD
HETATM   12  O   UNL     1      43.384 -14.874   3.376  1.00  0.00    -0.272 OA
BRANCH  10  13
HETATM   13  C   UNL     1      42.594 -17.441   2.367  1.00  0.00     0.120 C 
HETATM   14  C   UNL     1      41.392 -17.670   1.450  1.00  0.00     0.038 C 
BRANCH  13  15
HETATM   15  C   UNL     1      43.318 -18.730   2.675  1.00  0.00     0.005 A 
HETATM   16  S   UNL     1      44.089 -18.981   4.195  1.00  0.00    -0.104 SA
HETATM   17  C   UNL     1      44.616 -20.542   3.747  1.00  0.00     0.050 A 
HETATM   18  C   UNL     1      44.222 -20.874   2.470  1.00  0.00     0.008 A 
HETATM   19  C   UNL     1      43.475 -19.830   1.853  1.00  0.00     0.017 A 
ENDBRANCH  13  15
ENDBRANCH  10  13
ENDBRANCH   8   9
ENDBRANCH   1   8
BRANCH   5  20
HETATM   20  N   UNL     1      40.115 -11.678   8.141  1.00  0.00    -0.338 N 
HETATM   21  C   UNL     1      40.760 -10.829   9.008  1.00  0.00     0.321 C 
HETATM   22  N   UNL     1      40.935 -11.396  10.247  1.00  0.00    -0.309 N 
HETATM   23  O   UNL     1      41.195  -9.744   8.652  1.00  0.00    -0.247 OA
HETATM   24  H   UNL     1      40.786 -12.394  10.308  1.00  0.00     0.170 HD
HETATM   25  H   UNL     1      39.530 -12.385   8.571  1.00  0.00     0.164 HD
BRANCH  22  26
HETATM   26  C   UNL     1      41.620 -10.807  11.333  1.00  0.00     0.036 A 
HETATM   27  C   UNL     1      40.972 -10.194  12.413  1.00  0.00     0.032 A 
HETATM   28  C   UNL     1      41.711  -9.593  13.434  1.00  0.00     0.044 A 
HETATM   29  C   UNL     1      43.098  -9.607  13.378  1.00  0.00     0.116 A 
HETATM   30  F   UNL     1      43.804  -9.017  14.349  1.00  0.00    -0.206 F 
HETATM   31  C   UNL     1      43.761 -10.230  12.328  1.00  0.00     0.044 A 
HETATM   32  C   UNL     1      43.022 -10.839  11.310  1.00  0.00     0.032 A 
ENDBRANCH  22  26
ENDBRANCH   5  20
TORSDOF 6
ENDMDL
MODEL 5
REMARK VINA RESULT:      -8.4      4.064      7.336
REMARK  6 active torsions:
REMARK  status: ('A' for Active; 'I' for Inactive)
REMARK    1  A    between atoms: C_2  and  N_3 
REMARK    2  A    between atoms: C_2  and  C_25 
REMARK       I    between atoms: N_3  and  C_4 
REMARK    3  A    between atoms: C_4  and  C_5 
REMARK    4  A    between atoms: C_5  and  N_6 
REMARK    5  A    between atoms: C_10  and  N_11 
REMARK       I    between atoms: N_11  and  C_12 
REMARK       I    between atoms: C_12  and  N_13 
REMARK    6  A    between atoms: N_13  and  C_14 
ROOT
HETATM    1  N   UNL     1      40.195 -13.031   4.011  1.00  0.00    -0.063 N 
HETATM    2  H   UNL     1      39.682 -12.478   4.713  1.00  0.00     0.280 HD
HETATM    3  C   UNL     1      39.920 -14.482   4.333  1.00  0.00     0.237 C 
HETATM    4  C   UNL     1      40.764 -14.982   5.486  1.00  0.00     0.053 C 
HETATM    5  C   UNL     1      42.255 -14.714   5.312  1.00  0.00     0.089 C 
HETATM    6  C   UNL     1      42.500 -13.230   5.061  1.00  0.00     0.053 C 
HETATM    7  C   UNL     1      41.636 -12.591   3.988  1.00  0.00     0.237 C 
ENDROOT
BRANCH   1   8
HETATM    8  C   UNL     1      39.552 -12.660   2.657  1.00  0.00     0.337 C 
BRANCH   8   9
HETATM    9  C   UNL     1      39.469 -13.842   1.693  1.00  0.00     0.244 C 
HETATM   10  N   UNL     1      40.674 -14.271   1.199  1.00  0.00    -0.351 N 
HETATM   11  H   UNL     1      41.543 -13.828   1.481  1.00  0.00     0.163 HD
HETATM   12  O   UNL     1      38.392 -14.387   1.466  1.00  0.00    -0.272 OA
BRANCH  10  13
HETATM   13  C   UNL     1      40.810 -15.428   0.326  1.00  0.00     0.120 C 
HETATM   14  C   UNL     1      41.885 -16.396   0.822  1.00  0.00     0.038 C 
BRANCH  13  15
HETATM   15  C   UNL     1      41.107 -14.925  -1.066  1.00  0.00     0.005 A 
HETATM   16  S   UNL     1      41.790 -13.365  -1.327  1.00  0.00    -0.104 SA
HETATM   17  C   UNL     1      41.795 -13.575  -3.022  1.00  0.00     0.050 A 
HETATM   18  C   UNL     1      41.288 -14.799  -3.392  1.00  0.00     0.008 A 
HETATM   19  C   UNL     1      40.891 -15.577  -2.266  1.00  0.00     0.017 A 
ENDBRANCH  13  15
ENDBRANCH  10  13
ENDBRANCH   8   9
ENDBRANCH   1   8
BRANCH   5  20
HETATM   20  N   UNL     1      42.912 -15.651   4.397  1.00  0.00    -0.338 N 
HETATM   21  C   UNL     1      42.843 -17.023   4.429  1.00  0.00     0.321 C 
HETATM   22  N   UNL     1      43.813 -17.604   3.649  1.00  0.00    -0.309 N 
HETATM   23  O   UNL     1      42.058 -17.618   5.153  1.00  0.00    -0.247 OA
HETATM   24  H   UNL     1      44.564 -17.001   3.344  1.00  0.00     0.170 HD
HETATM   25  H   UNL     1      43.347 -15.251   3.573  1.00  0.00     0.164 HD
BRANCH  22  26
HETATM   26  C   UNL     1      44.047 -18.992   3.525  1.00  0.00     0.036 A 
HETATM   27  C   UNL     1      44.636 -19.768   4.531  1.00  0.00     0.032 A 
HETATM   28  C   UNL     1      44.878 -21.129   4.327  1.00  0.00     0.044 A 
HETATM   29  C   UNL     1      44.528 -21.714   3.117  1.00  0.00     0.116 A 
HETATM   30  F   UNL     1      44.775 -23.014   2.917  1.00  0.00    -0.206 F 
HETATM   31  C   UNL     1      43.922 -20.968   2.115  1.00  0.00     0.044 A 
HETATM   32  C   UNL     1      43.671 -19.608   2.322  1.00  0.00     0.032 A 
ENDBRANCH  22  26
ENDBRANCH   5  20
TORSDOF 6
ENDMDL
MODEL 6
REMARK VINA RESULT:      -8.3      2.432      3.534
REMARK  6 active torsions:
REMARK  status: ('A' for Active; 'I' for Inactive)
REMARK    1  A    between atoms: C_2  and  N_3 
REMARK    2  A    between atoms: C_2  and  C_25 
REMARK       I    between atoms: N_3  and  C_4 
REMARK    3  A    between atoms: C_4  and  C_5 
REMARK    4  A    between atoms: C_5  and  N_6 
REMARK    5  A    between atoms: C_10  and  N_11 
REMARK       I    between atoms: N_11  and  C_12 
REMARK       I    between atoms: C_12  and  N_13 
REMARK    6  A    between atoms: N_13  and  C_14 
ROOT
HETATM    1  N   UNL     1      41.080 -13.246   2.952  1.00  0.00    -0.063 N 
HETATM    2  H   UNL     1      40.299 -12.620   2.708  1.00  0.00     0.280 HD
HETATM    3  C   UNL     1      42.003 -13.255   1.754  1.00  0.00     0.237 C 
HETATM    4  C   UNL     1      41.496 -14.156   0.649  1.00  0.00     0.053 C 
HETATM    5  C   UNL     1      41.163 -15.569   1.116  1.00  0.00     0.089 C 
HETATM    6  C   UNL     1      40.176 -15.523   2.276  1.00  0.00     0.053 C 
HETATM    7  C   UNL     1      40.531 -14.574   3.408  1.00  0.00     0.237 C 
ENDROOT
BRANCH   1   8
HETATM    8  C   UNL     1      41.780 -12.572   4.152  1.00  0.00     0.337 C 
BRANCH   8   9
HETATM    9  C   UNL     1      43.079 -13.270   4.554  1.00  0.00     0.244 C 
HETATM   10  N   UNL     1      43.107 -13.741   5.841  1.00  0.00    -0.351 N 
HETATM   11  H   UNL     1      42.306 -13.634   6.456  1.00  0.00     0.163 HD
HETATM   12  O   UNL     1      43.973 -13.443   3.731  1.00  0.00    -0.272 OA
BRANCH  10  13
HETATM   13  C   UNL     1      44.225 -14.498   6.388  1.00  0.00     0.120 C 
HETATM   14  C   UNL     1      43.756 -15.673   7.244  1.00  0.00     0.038 C 
BRANCH  13  15
HETATM   15  C   UNL     1      45.091 -13.541   7.172  1.00  0.00     0.005 A 
HETATM   16  S   UNL     1      44.484 -12.712   8.554  1.00  0.00    -0.104 SA
HETATM   17  C   UNL     1      45.970 -11.911   8.811  1.00  0.00     0.050 A 
HETATM   18  C   UNL     1      46.912 -12.256   7.870  1.00  0.00     0.008 A 
HETATM   19  C   UNL     1      46.406 -13.195   6.925  1.00  0.00     0.017 A 
ENDBRANCH  13  15
ENDBRANCH  10  13
ENDBRANCH   8   9
ENDBRANCH   1   8
BRANCH   5  20
HETATM   20  N   UNL     1      42.346 -16.416   1.294  1.00  0.00    -0.338 N 
HETATM   21  C   UNL     1      42.364 -17.759   1.586  1.00  0.00     0.321 C 
HETATM   22  N   UNL     1      43.605 -18.177   2.000  1.00  0.00    -0.309 N 
HETATM   23  O   UNL     1      41.351 -18.443   1.560  1.00  0.00    -0.247 OA
HETATM   24  H   UNL     1      44.263 -17.452   2.248  1.00  0.00     0.170 HD
HETATM   25  H   UNL     1      43.238 -16.009   1.038  1.00  0.00     0.164 HD
BRANCH  22  26
HETATM   26  C   UNL     1      43.931 -19.482   2.435  1.00  0.00     0.036 A 
HETATM   27  C   UNL     1      43.764 -20.624   1.643  1.00  0.00     0.032 A 
HETATM   28  C   UNL     1      44.067 -21.890   2.150  1.00  0.00     0.044 A 
HETATM   29  C   UNL     1      44.541 -22.013   3.449  1.00  0.00     0.116 A 
HETATM   30  F   UNL     1      44.816 -23.227   3.939  1.00  0.00    -0.206 F 
HETATM   31  C   UNL     1      44.736 -20.891   4.244  1.00  0.00     0.044 A 
HETATM   32  C   UNL     1      44.441 -19.623   3.734  1.00  0.00     0.032 A 
ENDBRANCH  22  26
ENDBRANCH   5  20
TORSDOF 6
ENDMDL
MODEL 7
REMARK VINA RESULT:      -8.2      4.645      7.955
REMARK  6 active torsions:
REMARK  status: ('A' for Active; 'I' for Inactive)
REMARK    1  A    between atoms: C_2  and  N_3 
REMARK    2  A    between atoms: C_2  and  C_25 
REMARK       I    between atoms: N_3  and  C_4 
REMARK    3  A    between atoms: C_4  and  C_5 
REMARK    4  A    between atoms: C_5  and  N_6 
REMARK    5  A    between atoms: C_10  and  N_11 
REMARK       I    between atoms: N_11  and  C_12 
REMARK       I    between atoms: C_12  and  N_13 
REMARK    6  A    between atoms: N_13  and  C_14 
ROOT
HETATM    1  N   UNL     1      40.337 -12.535   2.792  1.00  0.00    -0.063 N 
HETATM    2  H   UNL     1      39.601 -12.026   3.302  1.00  0.00     0.280 HD
HETATM    3  C   UNL     1      39.812 -13.936   2.579  1.00  0.00     0.237 C 
HETATM    4  C   UNL     1      39.946 -14.792   3.821  1.00  0.00     0.053 C 
HETATM    5  C   UNL     1      41.352 -14.798   4.410  1.00  0.00     0.089 C 
HETATM    6  C   UNL     1      41.819 -13.372   4.678  1.00  0.00     0.053 C 
HETATM    7  C   UNL     1      41.643 -12.393   3.531  1.00  0.00     0.237 C 
ENDROOT
BRANCH   1   8
HETATM    8  C   UNL     1      40.465 -11.808   1.436  1.00  0.00     0.337 C 
BRANCH   8   9
HETATM    9  C   UNL     1      41.306 -12.581   0.421  1.00  0.00     0.244 C 
HETATM   10  N   UNL     1      40.628 -12.992  -0.698  1.00  0.00    -0.351 N 
HETATM   11  H   UNL     1      39.645 -12.773  -0.825  1.00  0.00     0.163 HD
HETATM   12  O   UNL     1      42.511 -12.734   0.598  1.00  0.00    -0.272 OA
BRANCH  10  13
HETATM   13  C   UNL     1      41.270 -13.678  -1.811  1.00  0.00     0.120 C 
HETATM   14  C   UNL     1      42.031 -12.710  -2.717  1.00  0.00     0.038 C 
BRANCH  13  15
HETATM   15  C   UNL     1      40.203 -14.433  -2.566  1.00  0.00     0.005 A 
HETATM   16  S   UNL     1      38.550 -13.954  -2.499  1.00  0.00    -0.104 SA
HETATM   17  C   UNL     1      38.068 -15.225  -3.532  1.00  0.00     0.050 A 
HETATM   18  C   UNL     1      39.133 -16.005  -3.923  1.00  0.00     0.008 A 
HETATM   19  C   UNL     1      40.363 -15.549  -3.366  1.00  0.00     0.017 A 
ENDBRANCH  13  15
ENDBRANCH  10  13
ENDBRANCH   8   9
ENDBRANCH   1   8
BRANCH   5  20
HETATM   20  N   UNL     1      42.282 -15.668   3.685  1.00  0.00    -0.338 N 
HETATM   21  C   UNL     1      42.294 -17.042   3.678  1.00  0.00     0.321 C 
HETATM   22  N   UNL     1      43.468 -17.543   3.170  1.00  0.00    -0.309 N 
HETATM   23  O   UNL     1      41.388 -17.703   4.164  1.00  0.00    -0.247 OA
HETATM   24  H   UNL     1      44.233 -16.888   3.080  1.00  0.00     0.170 HD
HETATM   25  H   UNL     1      42.889 -15.219   3.008  1.00  0.00     0.164 HD
BRANCH  22  26
HETATM   26  C   UNL     1      43.815 -18.911   3.092  1.00  0.00     0.036 A 
HETATM   27  C   UNL     1      43.539 -19.714   1.980  1.00  0.00     0.032 A 
HETATM   28  C   UNL     1      43.871 -21.071   1.985  1.00  0.00     0.044 A 
HETATM   29  C   UNL     1      44.483 -21.623   3.102  1.00  0.00     0.116 A 
HETATM   30  F   UNL     1      44.786 -22.926   3.111  1.00  0.00    -0.206 F 
HETATM   31  C   UNL     1      44.786 -20.839   4.207  1.00  0.00     0.044 A 
HETATM   32  C   UNL     1      44.462 -19.479   4.199  1.00  0.00     0.032 A 
ENDBRANCH  22  26
ENDBRANCH   5  20
TORSDOF 6
ENDMDL
MODEL 8
REMARK VINA RESULT:      -8.0      2.630      3.056
REMARK  6 active torsions:
REMARK  status: ('A' for Active; 'I' for Inactive)
REMARK    1  A    between atoms: C_2  and  N_3 
REMARK    2  A    between atoms: C_2  and  C_25 
REMARK       I    between atoms: N_3  and  C_4 
REMARK    3  A    between atoms: C_4  and  C_5 
REMARK    4  A    between atoms: C_5  and  N_6 
REMARK    5  A    between atoms: C_10  and  N_11 
REMARK       I    between atoms: N_11  and  C_12 
REMARK       I    between atoms: C_12  and  N_13 
REMARK    6  A    between atoms: N_13  and  C_14 
ROOT
HETATM    1  N   UNL     1      40.760 -12.646   4.791  1.00  0.00    -0.063 N 
HETATM    2  H   UNL     1      39.977 -12.007   4.588  1.00  0.00     0.280 HD
HETATM    3  C   UNL     1      41.754 -12.467   3.667  1.00  0.00     0.237 C 
HETATM    4  C   UNL     1      41.341 -13.212   2.415  1.00  0.00     0.053 C 
HETATM    5  C   UNL     1      41.021 -14.682   2.657  1.00  0.00     0.089 C 
HETATM    6  C   UNL     1      39.963 -14.821   3.747  1.00  0.00     0.053 C 
HETATM    7  C   UNL     1      40.221 -14.035   5.020  1.00  0.00     0.237 C 
ENDROOT
BRANCH   1   8
HETATM    8  C   UNL     1      41.365 -12.135   6.117  1.00  0.00     0.337 C 
BRANCH   8   9
HETATM    9  C   UNL     1      40.310 -11.616   7.093  1.00  0.00     0.244 C 
HETATM   10  N   UNL     1      40.780 -11.313   8.345  1.00  0.00    -0.351 N 
HETATM   11  H   UNL     1      41.762 -11.421   8.575  1.00  0.00     0.163 HD
HETATM   12  O   UNL     1      39.155 -11.426   6.720  1.00  0.00    -0.272 OA
BRANCH  10  13
HETATM   13  C   UNL     1      39.946 -10.738   9.391  1.00  0.00     0.120 C 
HETATM   14  C   UNL     1      39.656  -9.258   9.142  1.00  0.00     0.038 C 
BRANCH  13  15
HETATM   15  C   UNL     1      40.643 -10.959  10.712  1.00  0.00     0.005 A 
HETATM   16  S   UNL     1      42.361 -11.026  10.817  1.00  0.00    -0.104 SA
HETATM   17  C   UNL     1      42.316 -11.284  12.505  1.00  0.00     0.050 A 
HETATM   18  C   UNL     1      41.028 -11.324  12.987  1.00  0.00     0.008 A 
HETATM   19  C   UNL     1      40.064 -11.138  11.954  1.00  0.00     0.017 A 
ENDBRANCH  13  15
ENDBRANCH  10  13
ENDBRANCH   8   9
ENDBRANCH   1   8
BRANCH   5  20
HETATM   20  N   UNL     1      42.214 -15.523   2.791  1.00  0.00    -0.338 N 
HETATM   21  C   UNL     1      42.296 -16.880   2.589  1.00  0.00     0.321 C 
HETATM   22  N   UNL     1      43.457 -17.406   3.100  1.00  0.00    -0.309 N 
HETATM   23  O   UNL     1      41.380 -17.520   2.093  1.00  0.00    -0.247 OA
HETATM   24  H   UNL     1      43.979 -16.813   3.730  1.00  0.00     0.170 HD
HETATM   25  H   UNL     1      43.098 -15.041   2.905  1.00  0.00     0.164 HD
BRANCH  22  26
HETATM   26  C   UNL     1      43.806 -18.776   3.111  1.00  0.00     0.036 A 
HETATM   27  C   UNL     1      43.631 -19.625   2.012  1.00  0.00     0.032 A 
HETATM   28  C   UNL     1      43.958 -20.980   2.104  1.00  0.00     0.044 A 
HETATM   29  C   UNL     1      44.463 -21.485   3.295  1.00  0.00     0.116 A 
HETATM   30  F   UNL     1      44.760 -22.786   3.386  1.00  0.00    -0.206 F 
HETATM   31  C   UNL     1      44.666 -20.655   4.389  1.00  0.00     0.044 A 
HETATM   32  C   UNL     1      44.347 -19.297   4.295  1.00  0.00     0.032 A 
ENDBRANCH  22  26
ENDBRANCH   5  20
TORSDOF 6
ENDMDL
MODEL 9
REMARK VINA RESULT:      -8.0      3.172      4.323
REMARK  6 active torsions:
REMARK  status: ('A' for Active; 'I' for Inactive)
REMARK    1  A    between atoms: C_2  and  N_3 
REMARK    2  A    between atoms: C_2  and  C_25 
REMARK       I    between atoms: N_3  and  C_4 
REMARK    3  A    between atoms: C_4  and  C_5 
REMARK    4  A    between atoms: C_5  and  N_6 
REMARK    5  A    between atoms: C_10  and  N_11 
REMARK       I    between atoms: N_11  and  C_12 
REMARK       I    between atoms: C_12  and  N_13 
REMARK    6  A    between atoms: N_13  and  C_14 
ROOT
HETATM    1  N   UNL     1      41.165 -13.064   3.079  1.00  0.00    -0.063 N 
HETATM    2  H   UNL     1      40.400 -12.442   2.782  1.00  0.00     0.280 HD
HETATM    3  C   UNL     1      42.143 -13.111   1.928  1.00  0.00     0.237 C 
HETATM    4  C   UNL     1      41.684 -14.042   0.825  1.00  0.00     0.053 C 
HETATM    5  C   UNL     1      41.321 -15.438   1.316  1.00  0.00     0.089 C 
HETATM    6  C   UNL     1      40.281 -15.355   2.427  1.00  0.00     0.053 C 
HETATM    7  C   UNL     1      40.587 -14.375   3.546  1.00  0.00     0.237 C 
ENDROOT
BRANCH   1   8
HETATM    8  C   UNL     1      41.811 -12.359   4.291  1.00  0.00     0.337 C 
BRANCH   8   9
HETATM    9  C   UNL     1      42.932 -13.178   4.930  1.00  0.00     0.244 C 
HETATM   10  N   UNL     1      42.700 -13.564   6.225  1.00  0.00    -0.351 N 
HETATM   11  H   UNL     1      41.834 -13.323   6.696  1.00  0.00     0.163 HD
HETATM   12  O   UNL     1      43.914 -13.510   4.272  1.00  0.00    -0.272 OA
BRANCH  10  13
HETATM   13  C   UNL     1      43.614 -14.410   6.979  1.00  0.00     0.120 C 
HETATM   14  C   UNL     1      45.074 -14.153   6.604  1.00  0.00     0.038 C 
BRANCH  13  15
HETATM   15  C   UNL     1      43.217 -15.847   6.741  1.00  0.00     0.005 A 
HETATM   16  S   UNL     1      43.482 -17.060   7.935  1.00  0.00    -0.104 SA
HETATM   17  C   UNL     1      42.811 -18.279   6.946  1.00  0.00     0.050 A 
HETATM   18  C   UNL     1      42.395 -17.786   5.730  1.00  0.00     0.008 A 
HETATM   19  C   UNL     1      42.629 -16.386   5.611  1.00  0.00     0.017 A 
ENDBRANCH  13  15
ENDBRANCH  10  13
ENDBRANCH   8   9
ENDBRANCH   1   8
BRANCH   5  20
HETATM   20  N   UNL     1      42.489 -16.286   1.574  1.00  0.00    -0.338 N 
HETATM   21  C   UNL     1      42.508 -17.655   1.690  1.00  0.00     0.321 C 
HETATM   22  N   UNL     1      43.681 -18.107   2.243  1.00  0.00    -0.309 N 
HETATM   23  O   UNL     1      41.537 -18.344   1.411  1.00  0.00    -0.247 OA
HETATM   24  H   UNL     1      44.265 -17.412   2.686  1.00  0.00     0.170 HD
HETATM   25  H   UNL     1      43.396 -15.836   1.522  1.00  0.00     0.164 HD
BRANCH  22  26
HETATM   26  C   UNL     1      43.979 -19.453   2.553  1.00  0.00     0.036 A 
HETATM   27  C   UNL     1      43.731 -20.520   1.681  1.00  0.00     0.032 A 
HETATM   28  C   UNL     1      44.011 -21.833   2.068  1.00  0.00     0.044 A 
HETATM   29  C   UNL     1      44.543 -22.078   3.326  1.00  0.00     0.116 A 
HETATM   30  F   UNL     1      44.796 -23.337   3.701  1.00  0.00    -0.206 F 
HETATM   31  C   UNL     1      44.819 -21.033   4.198  1.00  0.00     0.044 A 
HETATM   32  C   UNL     1      44.547 -19.718   3.808  1.00  0.00     0.032 A 
ENDBRANCH  22  26
ENDBRANCH   5  20
TORSDOF 6
ENDMDL
MODEL 10
REMARK VINA RESULT:      -7.9      7.969     10.890
REMARK  6 active torsions:
REMARK  status: ('A' for Active; 'I' for Inactive)
REMARK    1  A    between atoms: C_2  and  N_3 
REMARK    2  A    between atoms: C_2  and  C_25 
REMARK       I    between atoms: N_3  and  C_4 
REMARK    3  A    between atoms: C_4  and  C_5 
REMARK    4  A    between atoms: C_5  and  N_6 
REMARK    5  A    between atoms: C_10  and  N_11 
REMARK       I    between atoms: N_11  and  C_12 
REMARK       I    between atoms: C_12  and  N_13 
REMARK    6  A    between atoms: N_13  and  C_14 
ROOT
HETATM    1  N   UNL     1      38.659 -14.545  -3.218  1.00  0.00    -0.063 N 
HETATM    2  H   UNL     1      38.702 -13.661  -3.744  1.00  0.00     0.280 HD
HETATM    3  C   UNL     1      38.584 -14.164  -1.757  1.00  0.00     0.237 C 
HETATM    4  C   UNL     1      39.937 -13.781  -1.196  1.00  0.00     0.053 C 
HETATM    5  C   UNL     1      41.022 -14.820  -1.454  1.00  0.00     0.089 C 
HETATM    6  C   UNL     1      41.118 -15.126  -2.945  1.00  0.00     0.053 C 
HETATM    7  C   UNL     1      39.803 -15.431  -3.641  1.00  0.00     0.237 C 
ENDROOT
BRANCH   1   8
HETATM    8  C   UNL     1      37.339 -15.214  -3.657  1.00  0.00     0.337 C 
BRANCH   8   9
HETATM    9  C   UNL     1      36.408 -14.261  -4.406  1.00  0.00     0.244 C 
HETATM   10  N   UNL     1      36.500 -12.947  -4.027  1.00  0.00    -0.351 N 
HETATM   11  H   UNL     1      37.155 -12.653  -3.310  1.00  0.00     0.163 HD
HETATM   12  O   UNL     1      35.705 -14.672  -5.325  1.00  0.00    -0.272 OA
BRANCH  10  13
HETATM   13  C   UNL     1      35.750 -11.878  -4.672  1.00  0.00     0.120 C 
HETATM   14  C   UNL     1      36.590 -10.612  -4.842  1.00  0.00     0.038 C 
BRANCH  13  15
HETATM   15  C   UNL     1      34.509 -11.623  -3.851  1.00  0.00     0.005 A 
HETATM   16  S   UNL     1      32.983 -12.275  -4.309  1.00  0.00    -0.104 SA
HETATM   17  C   UNL     1      32.200 -11.568  -2.966  1.00  0.00     0.050 A 
HETATM   18  C   UNL     1      33.071 -10.846  -2.182  1.00  0.00     0.008 A 
HETATM   19  C   UNL     1      34.401 -10.877  -2.691  1.00  0.00     0.017 A 
ENDBRANCH  13  15
ENDBRANCH  10  13
ENDBRANCH   8   9
ENDBRANCH   1   8
BRANCH   5  20
HETATM   20  N   UNL     1      40.951 -15.972  -0.551  1.00  0.00    -0.338 N 
HETATM   21  C   UNL     1      41.721 -16.198   0.564  1.00  0.00     0.321 C 
HETATM   22  N   UNL     1      41.630 -17.498   0.997  1.00  0.00    -0.309 N 
HETATM   23  O   UNL     1      42.459 -15.341   1.028  1.00  0.00    -0.247 OA
HETATM   24  H   UNL     1      41.215 -18.157   0.352  1.00  0.00     0.170 HD
HETATM   25  H   UNL     1      40.163 -16.598  -0.676  1.00  0.00     0.164 HD
BRANCH  22  26
HETATM   26  C   UNL     1      42.350 -18.060   2.075  1.00  0.00     0.036 A 
HETATM   27  C   UNL     1      42.067 -17.785   3.418  1.00  0.00     0.032 A 
HETATM   28  C   UNL     1      42.846 -18.341   4.436  1.00  0.00     0.044 A 
HETATM   29  C   UNL     1      43.907 -19.175   4.109  1.00  0.00     0.116 A 
HETATM   30  F   UNL     1      44.662 -19.694   5.084  1.00  0.00    -0.206 F 
HETATM   31  C   UNL     1      44.191 -19.479   2.784  1.00  0.00     0.044 A 
HETATM   32  C   UNL     1      43.406 -18.930   1.766  1.00  0.00     0.032 A 
ENDBRANCH  22  26
ENDBRANCH   5  20
TORSDOF 6
ENDMDL
