MODEL 1
REMARK VINA RESULT:      -8.4      0.000      0.000
REMARK  6 active torsions:
REMARK  status: ('A' for Active; 'I' for Inactive)
REMARK    1  A    between atoms: C_5  and  C_6 
REMARK    2  A    between atoms: C_6  and  O_7 
REMARK    3  A    between atoms: C_6  and  C_8 
REMARK    4  A    between atoms: C_8  and  N_9 
REMARK    5  A    between atoms: C_11  and  C_12 
REMARK    6  A    between atoms: C_13  and  O_14 
ROOT
HETATM    1  N   UNL     1      43.977 -19.182   6.604  1.00  0.00    -0.395 N 
HETATM    2  H   UNL     1      43.054 -19.612   6.437  1.00  0.00     0.159 HD
HETATM    3  C   UNL     1      44.789 -19.159   5.606  1.00  0.00     0.098 C 
ENDROOT
BRANCH   1   4
HETATM    4  C   UNL     1      44.232 -18.633   7.958  1.00  0.00     0.155 C 
BRANCH   4   5
HETATM    5  C   UNL     1      43.223 -17.519   8.284  1.00  0.00     0.170 C 
BRANCH   5   6
HETATM    6  C   UNL     1      43.208 -16.410   7.262  1.00  0.00    -0.011 A 
HETATM    7  C   UNL     1      42.076 -16.200   6.479  1.00  0.00     0.126 A 
HETATM    8  N   UNL     1      41.985 -15.266   5.512  1.00  0.00    -0.265 NA
HETATM    9  C   UNL     1      43.046 -14.450   5.318  1.00  0.00     0.030 A 
HETATM   10  C   UNL     1      42.910 -13.373   4.283  1.00  0.00     0.070 C 
HETATM   11  C   UNL     1      44.215 -14.568   6.060  1.00  0.00     0.027 A 
HETATM   12  C   UNL     1      44.299 -15.565   7.032  1.00  0.00     0.013 A 
ENDBRANCH   5   6
BRANCH   5  13
HETATM   13  O   UNL     1      43.505 -17.022   9.595  1.00  0.00    -0.389 OA
HETATM   14  H   UNL     1      42.715 -16.524   9.888  1.00  0.00     0.210 HD
ENDBRANCH   5  13
ENDBRANCH   4   5
ENDBRANCH   1   4
BRANCH   3  15
HETATM   15  C   UNL     1      44.474 -19.738   4.275  1.00  0.00     0.023 A 
HETATM   16  C   UNL     1      44.641 -21.121   4.052  1.00  0.00     0.078 A 
HETATM   17  C   UNL     1      44.408 -21.676   2.801  1.00  0.00     0.038 A 
HETATM   18  C   UNL     1      44.001 -20.852   1.756  1.00  0.00     0.015 A 
HETATM   19  C   UNL     1      43.808 -19.477   1.945  1.00  0.00    -0.025 A 
HETATM   20  C   UNL     1      44.036 -18.887   3.216  1.00  0.00    -0.012 A 
HETATM   21  C   UNL     1      43.384 -18.691   0.861  1.00  0.00     0.012 A 
HETATM   22  C   UNL     1      43.794 -17.490   3.327  1.00  0.00     0.013 A 
HETATM   23  C   UNL     1      43.368 -16.725   2.238  1.00  0.00     0.001 A 
HETATM   24  C   UNL     1      43.166 -17.324   1.005  1.00  0.00     0.001 A 
BRANCH  16  25
HETATM   25  O   UNL     1      45.041 -21.942   5.080  1.00  0.00    -0.360 OA
HETATM   26  H   UNL     1      45.822 -22.452   4.775  1.00  0.00     0.217 HD
ENDBRANCH  16  25
ENDBRANCH   3  15
TORSDOF 6
ENDMDL
MODEL 2
REMARK VINA RESULT:      -7.8      3.796      5.067
REMARK  6 active torsions:
REMARK  status: ('A' for Active; 'I' for Inactive)
REMARK    1  A    between atoms: C_5  and  C_6 
REMARK    2  A    between atoms: C_6  and  O_7 
REMARK    3  A    between atoms: C_6  and  C_8 
REMARK    4  A    between atoms: C_8  and  N_9 
REMARK    5  A    between atoms: C_11  and  C_12 
REMARK    6  A    between atoms: C_13  and  O_14 
ROOT
HETATM    1  N   UNL     1      44.424 -14.874   7.189  1.00  0.00    -0.395 N 
HETATM    2  H   UNL     1      45.286 -15.340   7.513  1.00  0.00     0.159 HD
HETATM    3  C   UNL     1      43.500 -15.637   6.721  1.00  0.00     0.098 C 
ENDROOT
BRANCH   1   4
HETATM    4  C   UNL     1      44.360 -13.398   7.327  1.00  0.00     0.155 C 
BRANCH   4   5
HETATM    5  C   UNL     1      45.294 -12.924   8.453  1.00  0.00     0.170 C 
BRANCH   5   6
HETATM    6  C   UNL     1      44.655 -11.916   9.374  1.00  0.00    -0.011 A 
HETATM    7  C   UNL     1      43.480 -11.272   8.992  1.00  0.00     0.126 A 
HETATM    8  N   UNL     1      42.861 -10.326   9.726  1.00  0.00    -0.265 NA
HETATM    9  C   UNL     1      43.390 -10.012  10.930  1.00  0.00     0.030 A 
HETATM   10  C   UNL     1      42.657  -9.004  11.765  1.00  0.00     0.070 C 
HETATM   11  C   UNL     1      44.550 -10.611  11.407  1.00  0.00     0.027 A 
HETATM   12  C   UNL     1      45.192 -11.562  10.616  1.00  0.00     0.013 A 
ENDBRANCH   5   6
BRANCH   5  13
HETATM   13  O   UNL     1      46.491 -12.411   7.863  1.00  0.00    -0.389 OA
HETATM   14  H   UNL     1      47.078 -12.139   8.597  1.00  0.00     0.210 HD
ENDBRANCH   5  13
ENDBRANCH   4   5
ENDBRANCH   1   4
BRANCH   3  15
HETATM   15  C   UNL     1      43.631 -17.111   6.600  1.00  0.00     0.023 A 
HETATM   16  C   UNL     1      43.687 -17.910   7.762  1.00  0.00     0.078 A 
HETATM   17  C   UNL     1      43.866 -19.284   7.675  1.00  0.00     0.038 A 
HETATM   18  C   UNL     1      43.990 -19.878   6.423  1.00  0.00     0.015 A 
HETATM   19  C   UNL     1      43.922 -19.118   5.247  1.00  0.00    -0.025 A 
HETATM   20  C   UNL     1      43.735 -17.712   5.309  1.00  0.00    -0.012 A 
HETATM   21  C   UNL     1      44.039 -19.766   4.006  1.00  0.00     0.012 A 
HETATM   22  C   UNL     1      43.655 -17.021   4.069  1.00  0.00     0.013 A 
HETATM   23  C   UNL     1      43.769 -17.684   2.844  1.00  0.00     0.001 A 
HETATM   24  C   UNL     1      43.965 -19.056   2.813  1.00  0.00     0.001 A 
BRANCH  16  25
HETATM   25  O   UNL     1      43.564 -17.332   9.003  1.00  0.00    -0.360 OA
HETATM   26  H   UNL     1      44.464 -17.129   9.334  1.00  0.00     0.217 HD
ENDBRANCH  16  25
ENDBRANCH   3  15
TORSDOF 6
ENDMDL
MODEL 3
REMARK VINA RESULT:      -7.7      3.951      6.194
REMARK  6 active torsions:
REMARK  status: ('A' for Active; 'I' for Inactive)
REMARK    1  A    between atoms: C_5  and  C_6 
REMARK    2  A    between atoms: C_6  and  O_7 
REMARK    3  A    between atoms: C_6  and  C_8 
REMARK    4  A    between atoms: C_8  and  N_9 
REMARK    5  A    between atoms: C_11  and  C_12 
REMARK    6  A    between atoms: C_13  and  O_14 
ROOT
HETATM    1  N   UNL     1      42.028 -16.910   1.239  1.00  0.00    -0.395 N 
HETATM    2  H   UNL     1      41.499 -16.696   2.099  1.00  0.00     0.159 HD
HETATM    3  C   UNL     1      43.047 -17.684   1.369  1.00  0.00     0.098 C 
ENDROOT
BRANCH   1   4
HETATM    4  C   UNL     1      41.531 -16.314  -0.026  1.00  0.00     0.155 C 
BRANCH   4   5
HETATM    5  C   UNL     1      40.788 -14.998   0.257  1.00  0.00     0.170 C 
BRANCH   5   6
HETATM    6  C   UNL     1      41.521 -13.779  -0.244  1.00  0.00    -0.011 A 
HETATM    7  C   UNL     1      41.934 -12.798   0.654  1.00  0.00     0.126 A 
HETATM    8  N   UNL     1      42.554 -11.656   0.296  1.00  0.00    -0.265 NA
HETATM    9  C   UNL     1      42.833 -11.470  -1.014  1.00  0.00     0.030 A 
HETATM   10  C   UNL     1      43.580 -10.226  -1.391  1.00  0.00     0.070 C 
HETATM   11  C   UNL     1      42.477 -12.398  -1.985  1.00  0.00     0.027 A 
HETATM   12  C   UNL     1      41.806 -13.556  -1.596  1.00  0.00     0.013 A 
ENDBRANCH   5   6
BRANCH   5  13
HETATM   13  O   UNL     1      40.530 -14.916   1.661  1.00  0.00    -0.389 OA
HETATM   14  H   UNL     1      41.362 -14.628   2.088  1.00  0.00     0.210 HD
ENDBRANCH   5  13
ENDBRANCH   4   5
ENDBRANCH   1   4
BRANCH   3  15
HETATM   15  C   UNL     1      43.499 -18.239   2.670  1.00  0.00     0.023 A 
HETATM   16  C   UNL     1      43.610 -17.395   3.795  1.00  0.00     0.078 A 
HETATM   17  C   UNL     1      44.084 -17.879   5.007  1.00  0.00     0.038 A 
HETATM   18  C   UNL     1      44.450 -19.217   5.110  1.00  0.00     0.015 A 
HETATM   19  C   UNL     1      44.338 -20.089   4.018  1.00  0.00    -0.025 A 
HETATM   20  C   UNL     1      43.852 -19.619   2.769  1.00  0.00    -0.012 A 
HETATM   21  C   UNL     1      44.708 -21.434   4.177  1.00  0.00     0.012 A 
HETATM   22  C   UNL     1      43.747 -20.574   1.722  1.00  0.00     0.013 A 
HETATM   23  C   UNL     1      44.117 -21.911   1.900  1.00  0.00     0.001 A 
HETATM   24  C   UNL     1      44.601 -22.339   3.126  1.00  0.00     0.001 A 
BRANCH  16  25
HETATM   25  O   UNL     1      43.248 -16.071   3.703  1.00  0.00    -0.360 OA
HETATM   26  H   UNL     1      42.308 -16.032   3.426  1.00  0.00     0.217 HD
ENDBRANCH  16  25
ENDBRANCH   3  15
TORSDOF 6
ENDMDL
MODEL 4
REMARK VINA RESULT:      -7.7      2.908      4.873
REMARK  6 active torsions:
REMARK  status: ('A' for Active; 'I' for Inactive)
REMARK    1  A    between atoms: C_5  and  C_6 
REMARK    2  A    between atoms: C_6  and  O_7 
REMARK    3  A    between atoms: C_6  and  C_8 
REMARK    4  A    between atoms: C_8  and  N_9 
REMARK    5  A    between atoms: C_11  and  C_12 
REMARK    6  A    between atoms: C_13  and  O_14 
ROOT
HETATM    1  N   UNL     1      41.666 -16.900   2.160  1.00  0.00    -0.395 N 
HETATM    2  H   UNL     1      41.085 -17.156   2.974  1.00  0.00     0.159 HD
HETATM    3  C   UNL     1      42.880 -17.324   2.165  1.00  0.00     0.098 C 
ENDROOT
BRANCH   1   4
HETATM    4  C   UNL     1      41.018 -16.098   1.093  1.00  0.00     0.155 C 
BRANCH   4   5
HETATM    5  C   UNL     1      39.969 -15.149   1.697  1.00  0.00     0.170 C 
BRANCH   5   6
HETATM    6  C   UNL     1      40.462 -14.414   2.918  1.00  0.00    -0.011 A 
HETATM    7  C   UNL     1      41.495 -13.488   2.803  1.00  0.00     0.126 A 
HETATM    8  N   UNL     1      42.031 -12.817   3.842  1.00  0.00    -0.265 NA
HETATM    9  C   UNL     1      41.504 -13.024   5.070  1.00  0.00     0.030 A 
HETATM   10  C   UNL     1      42.066 -12.225   6.207  1.00  0.00     0.070 C 
HETATM   11  C   UNL     1      40.460 -13.916   5.285  1.00  0.00     0.027 A 
HETATM   12  C   UNL     1      39.944 -14.624   4.201  1.00  0.00     0.013 A 
ENDBRANCH   5   6
BRANCH   5  13
HETATM   13  O   UNL     1      38.786 -15.902   1.979  1.00  0.00    -0.389 OA
HETATM   14  H   UNL     1      38.057 -15.489   1.473  1.00  0.00     0.210 HD
ENDBRANCH   5  13
ENDBRANCH   4   5
ENDBRANCH   1   4
BRANCH   3  15
HETATM   15  C   UNL     1      43.472 -18.116   3.273  1.00  0.00     0.023 A 
HETATM   16  C   UNL     1      43.744 -17.499   4.512  1.00  0.00     0.078 A 
HETATM   17  C   UNL     1      44.348 -18.204   5.544  1.00  0.00     0.038 A 
HETATM   18  C   UNL     1      44.686 -19.540   5.350  1.00  0.00     0.015 A 
HETATM   19  C   UNL     1      44.415 -20.191   4.139  1.00  0.00    -0.025 A 
HETATM   20  C   UNL     1      43.794 -19.492   3.070  1.00  0.00    -0.012 A 
HETATM   21  C   UNL     1      44.763 -21.544   3.997  1.00  0.00     0.012 A 
HETATM   22  C   UNL     1      43.534 -20.234   1.885  1.00  0.00     0.013 A 
HETATM   23  C   UNL     1      43.884 -21.582   1.764  1.00  0.00     0.001 A 
HETATM   24  C   UNL     1      44.502 -22.235   2.819  1.00  0.00     0.001 A 
BRANCH  16  25
HETATM   25  O   UNL     1      43.412 -16.179   4.713  1.00  0.00    -0.360 OA
HETATM   26  H   UNL     1      44.019 -15.813   5.391  1.00  0.00     0.217 HD
ENDBRANCH  16  25
ENDBRANCH   3  15
TORSDOF 6
ENDMDL
MODEL 5
REMARK VINA RESULT:      -7.6      3.502      5.517
REMARK  6 active torsions:
REMARK  status: ('A' for Active; 'I' for Inactive)
REMARK    1  A    between atoms: C_5  and  C_6 
REMARK    2  A    between atoms: C_6  and  O_7 
REMARK    3  A    between atoms: C_6  and  C_8 
REMARK    4  A    between atoms: C_8  and  N_9 
REMARK    5  A    between atoms: C_11  and  C_12 
REMARK    6  A    between atoms: C_13  and  O_14 
ROOT
HETATM    1  N   UNL     1      41.357 -16.106   4.104  1.00  0.00    -0.395 N 
HETATM    2  H   UNL     1      41.125 -16.432   5.055  1.00  0.00     0.159 HD
HETATM    3  C   UNL     1      42.411 -16.610   3.565  1.00  0.00     0.098 C 
ENDROOT
BRANCH   1   4
HETATM    4  C   UNL     1      40.438 -15.120   3.485  1.00  0.00     0.155 C 
BRANCH   4   5
HETATM    5  C   UNL     1      40.178 -15.480   2.012  1.00  0.00     0.170 C 
BRANCH   5   6
HETATM    6  C   UNL     1      40.860 -14.549   1.041  1.00  0.00    -0.011 A 
HETATM    7  C   UNL     1      41.597 -13.467   1.516  1.00  0.00     0.126 A 
HETATM    8  N   UNL     1      42.203 -12.558   0.726  1.00  0.00    -0.265 NA
HETATM    9  C   UNL     1      42.126 -12.730  -0.613  1.00  0.00     0.030 A 
HETATM   10  C   UNL     1      42.857 -11.748  -1.479  1.00  0.00     0.070 C 
HETATM   11  C   UNL     1      41.427 -13.787  -1.183  1.00  0.00     0.027 A 
HETATM   12  C   UNL     1      40.780 -14.697  -0.348  1.00  0.00     0.013 A 
ENDBRANCH   5   6
BRANCH   5  13
HETATM   13  O   UNL     1      38.765 -15.519   1.798  1.00  0.00    -0.389 OA
HETATM   14  H   UNL     1      38.619 -15.950   0.932  1.00  0.00     0.210 HD
ENDBRANCH   5  13
ENDBRANCH   4   5
ENDBRANCH   1   4
BRANCH   3  15
HETATM   15  C   UNL     1      43.297 -17.588   4.246  1.00  0.00     0.023 A 
HETATM   16  C   UNL     1      43.857 -17.274   5.502  1.00  0.00     0.078 A 
HETATM   17  C   UNL     1      44.733 -18.149   6.131  1.00  0.00     0.038 A 
HETATM   18  C   UNL     1      45.057 -19.352   5.513  1.00  0.00     0.015 A 
HETATM   19  C   UNL     1      44.506 -19.705   4.273  1.00  0.00    -0.025 A 
HETATM   20  C   UNL     1      43.605 -18.829   3.611  1.00  0.00    -0.012 A 
HETATM   21  C   UNL     1      44.855 -20.937   3.695  1.00  0.00     0.012 A 
HETATM   22  C   UNL     1      43.075 -19.275   2.369  1.00  0.00     0.013 A 
HETATM   23  C   UNL     1      43.431 -20.507   1.812  1.00  0.00     0.001 A 
HETATM   24  C   UNL     1      44.323 -21.335   2.474  1.00  0.00     0.001 A 
BRANCH  16  25
HETATM   25  O   UNL     1      43.541 -16.088   6.122  1.00  0.00    -0.360 OA
HETATM   26  H   UNL     1      44.373 -15.589   6.264  1.00  0.00     0.217 HD
ENDBRANCH  16  25
ENDBRANCH   3  15
TORSDOF 6
ENDMDL
MODEL 6
REMARK VINA RESULT:      -7.4      4.343      6.377
REMARK  6 active torsions:
REMARK  status: ('A' for Active; 'I' for Inactive)
REMARK    1  A    between atoms: C_5  and  C_6 
REMARK    2  A    between atoms: C_6  and  O_7 
REMARK    3  A    between atoms: C_6  and  C_8 
REMARK    4  A    between atoms: C_8  and  N_9 
REMARK    5  A    between atoms: C_11  and  C_12 
REMARK    6  A    between atoms: C_13  and  O_14 
ROOT
HETATM    1  N   UNL     1      41.805 -17.088   1.347  1.00  0.00    -0.395 N 
HETATM    2  H   UNL     1      41.198 -17.115   2.181  1.00  0.00     0.159 HD
HETATM    3  C   UNL     1      42.977 -17.606   1.472  1.00  0.00     0.098 C 
ENDROOT
BRANCH   1   4
HETATM    4  C   UNL     1      41.239 -16.479   0.119  1.00  0.00     0.155 C 
BRANCH   4   5
HETATM    5  C   UNL     1      41.420 -14.952   0.145  1.00  0.00     0.170 C 
BRANCH   5   6
HETATM    6  C   UNL     1      40.122 -14.199   0.294  1.00  0.00    -0.011 A 
HETATM    7  C   UNL     1      39.984 -12.932  -0.267  1.00  0.00     0.126 A 
HETATM    8  N   UNL     1      38.881 -12.167  -0.149  1.00  0.00    -0.265 NA
HETATM    9  C   UNL     1      37.823 -12.680   0.520  1.00  0.00     0.030 A 
HETATM   10  C   UNL     1      36.579 -11.845   0.590  1.00  0.00     0.070 C 
HETATM   11  C   UNL     1      37.857 -13.942   1.101  1.00  0.00     0.027 A 
HETATM   12  C   UNL     1      39.021 -14.702   0.996  1.00  0.00     0.013 A 
ENDBRANCH   5   6
BRANCH   5  13
HETATM   13  O   UNL     1      42.123 -14.558  -1.037  1.00  0.00    -0.389 OA
HETATM   14  H   UNL     1      42.044 -13.586  -1.106  1.00  0.00     0.210 HD
ENDBRANCH   5  13
ENDBRANCH   4   5
ENDBRANCH   1   4
BRANCH   3  15
HETATM   15  C   UNL     1      43.487 -18.192   2.737  1.00  0.00     0.023 A 
HETATM   16  C   UNL     1      43.659 -17.373   3.873  1.00  0.00     0.078 A 
HETATM   17  C   UNL     1      44.188 -17.886   5.050  1.00  0.00     0.038 A 
HETATM   18  C   UNL     1      44.549 -19.228   5.106  1.00  0.00     0.015 A 
HETATM   19  C   UNL     1      44.377 -20.076   4.003  1.00  0.00    -0.025 A 
HETATM   20  C   UNL     1      43.834 -19.576   2.789  1.00  0.00    -0.012 A 
HETATM   21  C   UNL     1      44.745 -21.427   4.114  1.00  0.00     0.012 A 
HETATM   22  C   UNL     1      43.671 -20.507   1.729  1.00  0.00     0.013 A 
HETATM   23  C   UNL     1      44.040 -21.850   1.859  1.00  0.00     0.001 A 
HETATM   24  C   UNL     1      44.580 -22.308   3.051  1.00  0.00     0.001 A 
BRANCH  16  25
HETATM   25  O   UNL     1      43.303 -16.045   3.827  1.00  0.00    -0.360 OA
HETATM   26  H   UNL     1      42.369 -15.971   4.120  1.00  0.00     0.217 HD
ENDBRANCH  16  25
ENDBRANCH   3  15
TORSDOF 6
ENDMDL
MODEL 7
REMARK VINA RESULT:      -7.4      4.241      6.627
REMARK  6 active torsions:
REMARK  status: ('A' for Active; 'I' for Inactive)
REMARK    1  A    between atoms: C_5  and  C_6 
REMARK    2  A    between atoms: C_6  and  O_7 
REMARK    3  A    between atoms: C_6  and  C_8 
REMARK    4  A    between atoms: C_8  and  N_9 
REMARK    5  A    between atoms: C_11  and  C_12 
REMARK    6  A    between atoms: C_13  and  O_14 
ROOT
HETATM    1  N   UNL     1      41.013 -15.695   2.011  1.00  0.00    -0.395 N 
HETATM    2  H   UNL     1      40.469 -15.831   2.877  1.00  0.00     0.159 HD
HETATM    3  C   UNL     1      42.211 -16.164   2.007  1.00  0.00     0.098 C 
ENDROOT
BRANCH   1   4
HETATM    4  C   UNL     1      40.336 -14.999   0.889  1.00  0.00     0.155 C 
BRANCH   4   5
HETATM    5  C   UNL     1      41.203 -15.058  -0.380  1.00  0.00     0.170 C 
BRANCH   5   6
HETATM    6  C   UNL     1      41.821 -13.731  -0.742  1.00  0.00    -0.011 A 
HETATM    7  C   UNL     1      42.084 -12.791   0.252  1.00  0.00     0.126 A 
HETATM    8  N   UNL     1      42.591 -11.564   0.021  1.00  0.00    -0.265 NA
HETATM    9  C   UNL     1      42.907 -11.240  -1.253  1.00  0.00     0.030 A 
HETATM   10  C   UNL     1      43.530  -9.896  -1.490  1.00  0.00     0.070 C 
HETATM   11  C   UNL     1      42.698 -12.114  -2.313  1.00  0.00     0.027 A 
HETATM   12  C   UNL     1      42.140 -13.366  -2.054  1.00  0.00     0.013 A 
ENDBRANCH   5   6
BRANCH   5  13
HETATM   13  O   UNL     1      40.407 -15.576  -1.449  1.00  0.00    -0.389 OA
HETATM   14  H   UNL     1      39.513 -15.190  -1.352  1.00  0.00     0.210 HD
ENDBRANCH   5  13
ENDBRANCH   4   5
ENDBRANCH   1   4
BRANCH   3  15
HETATM   15  C   UNL     1      42.834 -16.843   3.171  1.00  0.00     0.023 A 
HETATM   16  C   UNL     1      42.968 -16.157   4.396  1.00  0.00     0.078 A 
HETATM   17  C   UNL     1      43.599 -16.751   5.481  1.00  0.00     0.038 A 
HETATM   18  C   UNL     1      44.100 -18.042   5.356  1.00  0.00     0.015 A 
HETATM   19  C   UNL     1      43.970 -18.761   4.159  1.00  0.00    -0.025 A 
HETATM   20  C   UNL     1      43.326 -18.177   3.036  1.00  0.00    -0.012 A 
HETATM   21  C   UNL     1      44.481 -20.067   4.086  1.00  0.00     0.012 A 
HETATM   22  C   UNL     1      43.215 -18.982   1.870  1.00  0.00     0.013 A 
HETATM   23  C   UNL     1      43.727 -20.282   1.818  1.00  0.00     0.001 A 
HETATM   24  C   UNL     1      44.363 -20.823   2.924  1.00  0.00     0.001 A 
BRANCH  16  25
HETATM   25  O   UNL     1      42.474 -14.881   4.531  1.00  0.00    -0.360 OA
HETATM   26  H   UNL     1      41.542 -14.882   4.224  1.00  0.00     0.217 HD
ENDBRANCH  16  25
ENDBRANCH   3  15
TORSDOF 6
ENDMDL
MODEL 8
REMARK VINA RESULT:      -7.2      3.057      5.013
REMARK  6 active torsions:
REMARK  status: ('A' for Active; 'I' for Inactive)
REMARK    1  A    between atoms: C_5  and  C_6 
REMARK    2  A    between atoms: C_6  and  O_7 
REMARK    3  A    between atoms: C_6  and  C_8 
REMARK    4  A    between atoms: C_8  and  N_9 
REMARK    5  A    between atoms: C_11  and  C_12 
REMARK    6  A    between atoms: C_13  and  O_14 
ROOT
HETATM    1  N   UNL     1      42.578 -17.303   1.228  1.00  0.00    -0.395 N 
HETATM    2  H   UNL     1      43.582 -17.143   1.052  1.00  0.00     0.159 HD
HETATM    3  C   UNL     1      42.283 -18.033   2.246  1.00  0.00     0.098 C 
ENDROOT
BRANCH   1   4
HETATM    4  C   UNL     1      41.617 -16.657   0.301  1.00  0.00     0.155 C 
BRANCH   4   5
HETATM    5  C   UNL     1      41.743 -15.126   0.380  1.00  0.00     0.170 C 
BRANCH   5   6
HETATM    6  C   UNL     1      41.579 -14.584   1.778  1.00  0.00    -0.011 A 
HETATM    7  C   UNL     1      42.589 -13.814   2.349  1.00  0.00     0.126 A 
HETATM    8  N   UNL     1      42.551 -13.326   3.604  1.00  0.00    -0.265 NA
HETATM    9  C   UNL     1      41.443 -13.562   4.343  1.00  0.00     0.030 A 
HETATM   10  C   UNL     1      41.387 -12.960   5.715  1.00  0.00     0.070 C 
HETATM   11  C   UNL     1      40.375 -14.305   3.856  1.00  0.00     0.027 A 
HETATM   12  C   UNL     1      40.450 -14.829   2.567  1.00  0.00     0.013 A 
ENDBRANCH   5   6
BRANCH   5  13
HETATM   13  O   UNL     1      40.798 -14.547  -0.523  1.00  0.00    -0.389 OA
HETATM   14  H   UNL     1      41.310 -14.077  -1.211  1.00  0.00     0.210 HD
ENDBRANCH   5  13
ENDBRANCH   4   5
ENDBRANCH   1   4
BRANCH   3  15
HETATM   15  C   UNL     1      43.297 -18.661   3.130  1.00  0.00     0.023 A 
HETATM   16  C   UNL     1      43.858 -19.908   2.783  1.00  0.00     0.078 A 
HETATM   17  C   UNL     1      44.765 -20.542   3.621  1.00  0.00     0.038 A 
HETATM   18  C   UNL     1      45.126 -19.933   4.819  1.00  0.00     0.015 A 
HETATM   19  C   UNL     1      44.603 -18.686   5.189  1.00  0.00    -0.025 A 
HETATM   20  C   UNL     1      43.676 -18.017   4.347  1.00  0.00    -0.012 A 
HETATM   21  C   UNL     1      45.009 -18.108   6.402  1.00  0.00     0.012 A 
HETATM   22  C   UNL     1      43.213 -16.747   4.786  1.00  0.00     0.013 A 
HETATM   23  C   UNL     1      43.632 -16.184   5.995  1.00  0.00     0.001 A 
HETATM   24  C   UNL     1      44.527 -16.866   6.805  1.00  0.00     0.001 A 
BRANCH  16  25
HETATM   25  O   UNL     1      43.508 -20.516   1.600  1.00  0.00    -0.360 OA
HETATM   26  H   UNL     1      43.794 -21.454   1.644  1.00  0.00     0.217 HD
ENDBRANCH  16  25
ENDBRANCH   3  15
TORSDOF 6
ENDMDL
MODEL 9
REMARK VINA RESULT:      -7.1      4.219      6.157
REMARK  6 active torsions:
REMARK  status: ('A' for Active; 'I' for Inactive)
REMARK    1  A    between atoms: C_5  and  C_6 
REMARK    2  A    between atoms: C_6  and  O_7 
REMARK    3  A    between atoms: C_6  and  C_8 
REMARK    4  A    between atoms: C_8  and  N_9 
REMARK    5  A    between atoms: C_11  and  C_12 
REMARK    6  A    between atoms: C_13  and  O_14 
ROOT
HETATM    1  N   UNL     1      40.879 -16.238   4.126  1.00  0.00    -0.395 N 
HETATM    2  H   UNL     1      40.286 -16.864   4.693  1.00  0.00     0.159 HD
HETATM    3  C   UNL     1      42.148 -16.444   4.181  1.00  0.00     0.098 C 
ENDROOT
BRANCH   1   4
HETATM    4  C   UNL     1      40.189 -15.206   3.315  1.00  0.00     0.155 C 
BRANCH   4   5
HETATM    5  C   UNL     1      40.287 -15.546   1.818  1.00  0.00     0.170 C 
BRANCH   5   6
HETATM    6  C   UNL     1      39.447 -14.648   0.945  1.00  0.00    -0.011 A 
HETATM    7  C   UNL     1      39.990 -14.096  -0.212  1.00  0.00     0.126 A 
HETATM    8  N   UNL     1      39.333 -13.249  -1.029  1.00  0.00    -0.265 NA
HETATM    9  C   UNL     1      38.049 -12.948  -0.729  1.00  0.00     0.030 A 
HETATM   10  C   UNL     1      37.308 -12.055  -1.679  1.00  0.00     0.070 C 
HETATM   11  C   UNL     1      37.413 -13.461   0.395  1.00  0.00     0.027 A 
HETATM   12  C   UNL     1      38.123 -14.308   1.244  1.00  0.00     0.013 A 
ENDBRANCH   5   6
BRANCH   5  13
HETATM   13  O   UNL     1      39.941 -16.922   1.643  1.00  0.00    -0.389 OA
HETATM   14  H   UNL     1      40.186 -17.164   0.727  1.00  0.00     0.210 HD
ENDBRANCH   5  13
ENDBRANCH   4   5
ENDBRANCH   1   4
BRANCH   3  15
HETATM   15  C   UNL     1      42.777 -17.491   5.025  1.00  0.00     0.023 A 
HETATM   16  C   UNL     1      42.762 -17.365   6.430  1.00  0.00     0.078 A 
HETATM   17  C   UNL     1      43.392 -18.302   7.237  1.00  0.00     0.038 A 
HETATM   18  C   UNL     1      44.045 -19.381   6.648  1.00  0.00     0.015 A 
HETATM   19  C   UNL     1      44.066 -19.548   5.257  1.00  0.00    -0.025 A 
HETATM   20  C   UNL     1      43.424 -18.605   4.409  1.00  0.00    -0.012 A 
HETATM   21  C   UNL     1      44.726 -20.660   4.711  1.00  0.00     0.012 A 
HETATM   22  C   UNL     1      43.474 -18.862   3.012  1.00  0.00     0.013 A 
HETATM   23  C   UNL     1      44.133 -19.978   2.488  1.00  0.00     0.001 A 
HETATM   24  C   UNL     1      44.762 -20.875   3.337  1.00  0.00     0.001 A 
BRANCH  16  25
HETATM   25  O   UNL     1      42.118 -16.304   7.021  1.00  0.00    -0.360 OA
HETATM   26  H   UNL     1      42.129 -15.553   6.390  1.00  0.00     0.217 HD
ENDBRANCH  16  25
ENDBRANCH   3  15
TORSDOF 6
ENDMDL
MODEL 10
REMARK VINA RESULT:      -7.0      3.311      5.024
REMARK  6 active torsions:
REMARK  status: ('A' for Active; 'I' for Inactive)
REMARK    1  A    between atoms: C_5  and  C_6 
REMARK    2  A    between atoms: C_6  and  O_7 
REMARK    3  A    between atoms: C_6  and  C_8 
REMARK    4  A    between atoms: C_8  and  N_9 
REMARK    5  A    between atoms: C_11  and  C_12 
REMARK    6  A    between atoms: C_13  and  O_14 
ROOT
HETATM    1  N   UNL     1      41.909 -16.263   1.821  1.00  0.00    -0.395 N 
HETATM    2  H   UNL     1      41.694 -17.121   1.290  1.00  0.00     0.159 HD
HETATM    3  C   UNL     1      42.747 -16.382   2.789  1.00  0.00     0.098 C 
ENDROOT
BRANCH   1   4
HETATM    4  C   UNL     1      41.243 -15.012   1.383  1.00  0.00     0.155 C 
BRANCH   4   5
HETATM    5  C   UNL     1      39.826 -14.923   1.975  1.00  0.00     0.170 C 
BRANCH   5   6
HETATM    6  C   UNL     1      39.779 -14.215   3.306  1.00  0.00    -0.011 A 
HETATM    7  C   UNL     1      39.411 -12.874   3.368  1.00  0.00     0.126 A 
HETATM    8  N   UNL     1      39.384 -12.147   4.502  1.00  0.00    -0.265 NA
HETATM    9  C   UNL     1      39.692 -12.770   5.662  1.00  0.00     0.030 A 
HETATM   10  C   UNL     1      39.596 -11.968   6.925  1.00  0.00     0.070 C 
HETATM   11  C   UNL     1      40.056 -14.111   5.707  1.00  0.00     0.027 A 
HETATM   12  C   UNL     1      40.110 -14.835   4.516  1.00  0.00     0.013 A 
ENDBRANCH   5   6
BRANCH   5  13
HETATM   13  O   UNL     1      39.289 -16.245   2.064  1.00  0.00    -0.389 OA
HETATM   14  H   UNL     1      38.451 -16.248   1.560  1.00  0.00     0.210 HD
ENDBRANCH   5  13
ENDBRANCH   4   5
ENDBRANCH   1   4
BRANCH   3  15
HETATM   15  C   UNL     1      43.372 -17.670   3.184  1.00  0.00     0.023 A 
HETATM   16  C   UNL     1      43.861 -18.547   2.193  1.00  0.00     0.078 A 
HETATM   17  C   UNL     1      44.399 -19.781   2.534  1.00  0.00     0.038 A 
HETATM   18  C   UNL     1      44.456 -20.153   3.874  1.00  0.00     0.015 A 
HETATM   19  C   UNL     1      43.995 -19.300   4.887  1.00  0.00    -0.025 A 
HETATM   20  C   UNL     1      43.445 -18.031   4.563  1.00  0.00    -0.012 A 
HETATM   21  C   UNL     1      44.087 -19.715   6.225  1.00  0.00     0.012 A 
HETATM   22  C   UNL     1      43.024 -17.220   5.652  1.00  0.00     0.013 A 
HETATM   23  C   UNL     1      43.127 -17.649   6.978  1.00  0.00     0.001 A 
HETATM   24  C   UNL     1      43.656 -18.898   7.264  1.00  0.00     0.001 A 
BRANCH  16  25
HETATM   25  O   UNL     1      43.811 -18.188   0.867  1.00  0.00    -0.360 OA
HETATM   26  H   UNL     1      44.711 -18.286   0.491  1.00  0.00     0.217 HD
ENDBRANCH  16  25
ENDBRANCH   3  15
TORSDOF 6
ENDMDL
