MODEL 1
REMARK VINA RESULT:      -8.5      0.000      0.000
REMARK  6 active torsions:
REMARK  status: ('A' for Active; 'I' for Inactive)
REMARK    1  A    between atoms: C_7  and  C_8 
REMARK    2  A    between atoms: N_9  and  N_10 
REMARK       I    between atoms: N_10  and  C_11 
REMARK    3  A    between atoms: C_11  and  C_12 
REMARK    4  A    between atoms: C_12  and  N_13 
REMARK    5  A    between atoms: N_13  and  C_14 
REMARK    6  A    between atoms: C_15  and  O_16 
ROOT
HETATM    1  N   UNL     1      42.542 -15.161   2.357  1.00  0.00    -0.246 N 
HETATM    2  C   UNL     1      42.875 -13.852   2.696  1.00  0.00     0.250 C 
HETATM    3  O   UNL     1      43.862 -13.510   3.346  1.00  0.00    -0.270 OA
HETATM    4  H   UNL     1      41.883 -15.274   1.587  1.00  0.00     0.192 HD
ENDROOT
BRANCH   1   5
HETATM    5  N   UNL     1      43.273 -16.277   2.677  1.00  0.00    -0.184 NA
HETATM    6  C   UNL     1      42.943 -16.910   3.760  1.00  0.00     0.153 C 
BRANCH   6   7
HETATM    7  C   UNL     1      43.671 -18.093   4.182  1.00  0.00     0.018 A 
HETATM    8  C   UNL     1      44.398 -18.270   5.353  1.00  0.00     0.018 A 
HETATM    9  C   UNL     1      44.641 -17.360   6.502  1.00  0.00     0.069 C 
HETATM   10  N   UNL     1      44.924 -19.538   5.328  1.00  0.00    -0.358 N 
HETATM   11  H   UNL     1      45.498 -19.943   6.054  1.00  0.00     0.166 HD
HETATM   12  C   UNL     1      44.563 -20.195   4.176  1.00  0.00     0.043 A 
HETATM   13  C   UNL     1      43.770 -19.318   3.438  1.00  0.00     0.004 A 
HETATM   14  C   UNL     1      44.875 -21.488   3.738  1.00  0.00     0.030 A 
HETATM   15  C   UNL     1      43.264 -19.758   2.196  1.00  0.00     0.014 A 
HETATM   16  C   UNL     1      43.569 -21.046   1.741  1.00  0.00     0.001 A 
HETATM   17  C   UNL     1      44.363 -21.897   2.503  1.00  0.00     0.002 A 
ENDBRANCH   6   7
ENDBRANCH   1   5
BRANCH   2  18
HETATM   18  C   UNL     1      41.881 -12.824   2.143  1.00  0.00     0.197 C 
BRANCH  18  19
HETATM   19  N   UNL     1      42.511 -11.972   1.117  1.00  0.00    -0.282 NA
HETATM   20  H   UNL     1      43.535 -11.985   1.202  1.00  0.00     0.128 HD
BRANCH  19  21
HETATM   21  C   UNL     1      42.239 -12.350  -0.223  1.00  0.00     0.042 A 
HETATM   22  C   UNL     1      42.901 -11.667  -1.267  1.00  0.00     0.089 A 
HETATM   23  C   UNL     1      42.659 -11.999  -2.602  1.00  0.00     0.038 A 
HETATM   24  C   UNL     1      41.708 -12.971  -2.912  1.00  0.00     0.003 A 
HETATM   25  C   UNL     1      41.000 -13.604  -1.893  1.00  0.00     0.002 A 
HETATM   26  C   UNL     1      41.256 -13.288  -0.556  1.00  0.00     0.026 A 
BRANCH  22  27
HETATM   27  O   UNL     1      43.842 -10.740  -0.878  1.00  0.00    -0.354 OA
HETATM   28  C   UNL     1      43.672  -9.456  -1.472  1.00  0.00     0.210 C 
ENDBRANCH  22  27
ENDBRANCH  19  21
ENDBRANCH  18  19
ENDBRANCH   2  18
TORSDOF 6
ENDMDL
MODEL 2
REMARK VINA RESULT:      -8.3      2.697      3.388
REMARK  6 active torsions:
REMARK  status: ('A' for Active; 'I' for Inactive)
REMARK    1  A    between atoms: C_7  and  C_8 
REMARK    2  A    between atoms: N_9  and  N_10 
REMARK       I    between atoms: N_10  and  C_11 
REMARK    3  A    between atoms: C_11  and  C_12 
REMARK    4  A    between atoms: C_12  and  N_13 
REMARK    5  A    between atoms: N_13  and  C_14 
REMARK    6  A    between atoms: C_15  and  O_16 
ROOT
HETATM    1  N   UNL     1      42.825 -15.175   2.747  1.00  0.00    -0.246 N 
HETATM    2  C   UNL     1      43.204 -13.873   3.064  1.00  0.00     0.250 C 
HETATM    3  O   UNL     1      44.247 -13.549   3.629  1.00  0.00    -0.270 OA
HETATM    4  H   UNL     1      42.100 -15.275   2.036  1.00  0.00     0.192 HD
ENDROOT
BRANCH   1   5
HETATM    5  N   UNL     1      43.566 -16.304   2.995  1.00  0.00    -0.184 NA
HETATM    6  C   UNL     1      43.098 -17.137   3.872  1.00  0.00     0.153 C 
BRANCH   6   7
HETATM    7  C   UNL     1      43.823 -18.350   4.207  1.00  0.00     0.018 A 
HETATM    8  C   UNL     1      44.598 -18.592   5.334  1.00  0.00     0.018 A 
HETATM    9  C   UNL     1      44.911 -17.738   6.510  1.00  0.00     0.069 C 
HETATM   10  N   UNL     1      45.100 -19.866   5.229  1.00  0.00    -0.358 N 
HETATM   11  H   UNL     1      45.699 -20.311   5.909  1.00  0.00     0.166 HD
HETATM   12  C   UNL     1      44.674 -20.463   4.067  1.00  0.00     0.043 A 
HETATM   13  C   UNL     1      43.865 -19.541   3.405  1.00  0.00     0.004 A 
HETATM   14  C   UNL     1      44.943 -21.740   3.558  1.00  0.00     0.030 A 
HETATM   15  C   UNL     1      43.295 -19.916   2.170  1.00  0.00     0.014 A 
HETATM   16  C   UNL     1      43.555 -21.187   1.645  1.00  0.00     0.001 A 
HETATM   17  C   UNL     1      44.368 -22.084   2.331  1.00  0.00     0.002 A 
ENDBRANCH   6   7
ENDBRANCH   1   5
BRANCH   2  18
HETATM   18  C   UNL     1      42.180 -12.829   2.606  1.00  0.00     0.197 C 
BRANCH  18  19
HETATM   19  N   UNL     1      40.895 -12.997   3.312  1.00  0.00    -0.282 NA
HETATM   20  H   UNL     1      40.710 -12.203   3.938  1.00  0.00     0.128 HD
BRANCH  19  21
HETATM   21  C   UNL     1      39.758 -13.086   2.469  1.00  0.00     0.042 A 
HETATM   22  C   UNL     1      39.273 -14.365   2.118  1.00  0.00     0.089 A 
HETATM   23  C   UNL     1      38.161 -14.502   1.284  1.00  0.00     0.038 A 
HETATM   24  C   UNL     1      37.558 -13.367   0.741  1.00  0.00     0.003 A 
HETATM   25  C   UNL     1      38.069 -12.102   1.027  1.00  0.00     0.002 A 
HETATM   26  C   UNL     1      39.170 -11.963   1.877  1.00  0.00     0.026 A 
BRANCH  22  27
HETATM   27  O   UNL     1      39.906 -15.433   2.715  1.00  0.00    -0.354 OA
HETATM   28  C   UNL     1      39.965 -16.600   1.902  1.00  0.00     0.210 C 
ENDBRANCH  22  27
ENDBRANCH  19  21
ENDBRANCH  18  19
ENDBRANCH   2  18
TORSDOF 6
ENDMDL
MODEL 3
REMARK VINA RESULT:      -8.2      1.234      2.018
REMARK  6 active torsions:
REMARK  status: ('A' for Active; 'I' for Inactive)
REMARK    1  A    between atoms: C_7  and  C_8 
REMARK    2  A    between atoms: N_9  and  N_10 
REMARK       I    between atoms: N_10  and  C_11 
REMARK    3  A    between atoms: C_11  and  C_12 
REMARK    4  A    between atoms: C_12  and  N_13 
REMARK    5  A    between atoms: N_13  and  C_14 
REMARK    6  A    between atoms: C_15  and  O_16 
ROOT
HETATM    1  N   UNL     1      42.777 -15.140   2.277  1.00  0.00    -0.246 N 
HETATM    2  C   UNL     1      42.936 -13.800   2.621  1.00  0.00     0.250 C 
HETATM    3  O   UNL     1      43.757 -13.360   3.425  1.00  0.00    -0.270 OA
HETATM    4  H   UNL     1      42.280 -15.327   1.406  1.00  0.00     0.192 HD
ENDROOT
BRANCH   1   5
HETATM    5  N   UNL     1      43.524 -16.183   2.765  1.00  0.00    -0.184 NA
HETATM    6  C   UNL     1      42.887 -17.132   3.376  1.00  0.00     0.153 C 
BRANCH   6   7
HETATM    7  C   UNL     1      43.599 -18.266   3.937  1.00  0.00     0.018 A 
HETATM    8  C   UNL     1      44.242 -18.342   5.166  1.00  0.00     0.018 A 
HETATM    9  C   UNL     1      44.390 -17.345   6.258  1.00  0.00     0.069 C 
HETATM   10  N   UNL     1      44.787 -19.598   5.274  1.00  0.00    -0.358 N 
HETATM   11  H   UNL     1      45.313 -19.936   6.067  1.00  0.00     0.166 HD
HETATM   12  C   UNL     1      44.518 -20.345   4.152  1.00  0.00     0.043 A 
HETATM   13  C   UNL     1      43.769 -19.540   3.296  1.00  0.00     0.004 A 
HETATM   14  C   UNL     1      44.880 -21.661   3.836  1.00  0.00     0.030 A 
HETATM   15  C   UNL     1      43.359 -20.081   2.058  1.00  0.00     0.014 A 
HETATM   16  C   UNL     1      43.714 -21.393   1.724  1.00  0.00     0.001 A 
HETATM   17  C   UNL     1      44.463 -22.169   2.602  1.00  0.00     0.002 A 
ENDBRANCH   6   7
ENDBRANCH   1   5
BRANCH   2  18
HETATM   18  C   UNL     1      41.981 -12.874   1.859  1.00  0.00     0.197 C 
BRANCH  18  19
HETATM   19  N   UNL     1      41.452 -13.533   0.650  1.00  0.00    -0.282 NA
HETATM   20  H   UNL     1      40.425 -13.538   0.650  1.00  0.00     0.128 HD
BRANCH  19  21
HETATM   21  C   UNL     1      41.826 -12.922  -0.574  1.00  0.00     0.042 A 
HETATM   22  C   UNL     1      41.629 -13.637  -1.776  1.00  0.00     0.089 A 
HETATM   23  C   UNL     1      41.990 -13.080  -3.005  1.00  0.00     0.038 A 
HETATM   24  C   UNL     1      42.608 -11.830  -3.044  1.00  0.00     0.003 A 
HETATM   25  C   UNL     1      42.868 -11.144  -1.859  1.00  0.00     0.002 A 
HETATM   26  C   UNL     1      42.489 -11.692  -0.630  1.00  0.00     0.026 A 
BRANCH  22  27
HETATM   27  O   UNL     1      40.991 -14.852  -1.656  1.00  0.00    -0.354 OA
HETATM   28  C   UNL     1      40.946 -15.606  -2.863  1.00  0.00     0.210 C 
ENDBRANCH  22  27
ENDBRANCH  19  21
ENDBRANCH  18  19
ENDBRANCH   2  18
TORSDOF 6
ENDMDL
MODEL 4
REMARK VINA RESULT:      -8.2      2.261      2.863
REMARK  6 active torsions:
REMARK  status: ('A' for Active; 'I' for Inactive)
REMARK    1  A    between atoms: C_7  and  C_8 
REMARK    2  A    between atoms: N_9  and  N_10 
REMARK       I    between atoms: N_10  and  C_11 
REMARK    3  A    between atoms: C_11  and  C_12 
REMARK    4  A    between atoms: C_12  and  N_13 
REMARK    5  A    between atoms: N_13  and  C_14 
REMARK    6  A    between atoms: C_15  and  O_16 
ROOT
HETATM    1  N   UNL     1      40.845 -16.440   1.733  1.00  0.00    -0.246 N 
HETATM    2  C   UNL     1      40.144 -15.314   2.157  1.00  0.00     0.250 C 
HETATM    3  O   UNL     1      39.932 -15.002   3.328  1.00  0.00    -0.270 OA
HETATM    4  H   UNL     1      41.194 -16.421   0.774  1.00  0.00     0.192 HD
ENDROOT
BRANCH   1   5
HETATM    5  N   UNL     1      41.429 -17.371   2.555  1.00  0.00    -0.184 NA
HETATM    6  C   UNL     1      42.725 -17.395   2.595  1.00  0.00     0.153 C 
BRANCH   6   7
HETATM    7  C   UNL     1      43.427 -18.357   3.427  1.00  0.00     0.018 A 
HETATM    8  C   UNL     1      43.920 -18.169   4.711  1.00  0.00     0.018 A 
HETATM    9  C   UNL     1      43.878 -16.989   5.614  1.00  0.00     0.069 C 
HETATM   10  N   UNL     1      44.517 -19.342   5.104  1.00  0.00    -0.358 N 
HETATM   11  H   UNL     1      44.961 -19.496   5.998  1.00  0.00     0.166 HD
HETATM   12  C   UNL     1      44.428 -20.290   4.113  1.00  0.00     0.043 A 
HETATM   13  C   UNL     1      43.744 -19.706   3.049  1.00  0.00     0.004 A 
HETATM   14  C   UNL     1      44.898 -21.609   4.082  1.00  0.00     0.030 A 
HETATM   15  C   UNL     1      43.518 -20.483   1.892  1.00  0.00     0.014 A 
HETATM   16  C   UNL     1      43.983 -21.802   1.842  1.00  0.00     0.001 A 
HETATM   17  C   UNL     1      44.663 -22.354   2.923  1.00  0.00     0.002 A 
ENDBRANCH   6   7
ENDBRANCH   1   5
BRANCH   2  18
HETATM   18  C   UNL     1      39.662 -14.442   0.992  1.00  0.00     0.197 C 
BRANCH  18  19
HETATM   19  N   UNL     1      39.984 -15.062  -0.307  1.00  0.00    -0.282 NA
HETATM   20  H   UNL     1      39.132 -15.240  -0.854  1.00  0.00     0.128 HD
BRANCH  19  21
HETATM   21  C   UNL     1      40.819 -14.285  -1.150  1.00  0.00     0.042 A 
HETATM   22  C   UNL     1      40.995 -14.692  -2.491  1.00  0.00     0.089 A 
HETATM   23  C   UNL     1      41.815 -13.963  -3.355  1.00  0.00     0.038 A 
HETATM   24  C   UNL     1      42.516 -12.857  -2.876  1.00  0.00     0.003 A 
HETATM   25  C   UNL     1      42.402 -12.485  -1.538  1.00  0.00     0.002 A 
HETATM   26  C   UNL     1      41.566 -13.202  -0.677  1.00  0.00     0.026 A 
BRANCH  22  27
HETATM   27  O   UNL     1      40.250 -15.778  -2.893  1.00  0.00    -0.354 OA
HETATM   28  C   UNL     1      39.350 -15.501  -3.961  1.00  0.00     0.210 C 
ENDBRANCH  22  27
ENDBRANCH  19  21
ENDBRANCH  18  19
ENDBRANCH   2  18
TORSDOF 6
ENDMDL
MODEL 5
REMARK VINA RESULT:      -8.2      1.903      2.373
REMARK  6 active torsions:
REMARK  status: ('A' for Active; 'I' for Inactive)
REMARK    1  A    between atoms: C_7  and  C_8 
REMARK    2  A    between atoms: N_9  and  N_10 
REMARK       I    between atoms: N_10  and  C_11 
REMARK    3  A    between atoms: C_11  and  C_12 
REMARK    4  A    between atoms: C_12  and  N_13 
REMARK    5  A    between atoms: N_13  and  C_14 
REMARK    6  A    between atoms: C_15  and  O_16 
ROOT
HETATM    1  N   UNL     1      42.250 -15.063   3.863  1.00  0.00    -0.246 N 
HETATM    2  C   UNL     1      42.935 -13.851   3.910  1.00  0.00     0.250 C 
HETATM    3  O   UNL     1      44.022 -13.664   4.454  1.00  0.00    -0.270 OA
HETATM    4  H   UNL     1      41.528 -15.146   3.147  1.00  0.00     0.192 HD
ENDROOT
BRANCH   1   5
HETATM    5  N   UNL     1      42.689 -16.248   4.398  1.00  0.00    -0.184 NA
HETATM    6  C   UNL     1      43.513 -16.950   3.685  1.00  0.00     0.153 C 
BRANCH   6   7
HETATM    7  C   UNL     1      44.018 -18.223   4.168  1.00  0.00     0.018 A 
HETATM    8  C   UNL     1      44.599 -18.495   5.399  1.00  0.00     0.018 A 
HETATM    9  C   UNL     1      44.866 -17.620   6.571  1.00  0.00     0.069 C 
HETATM   10  N   UNL     1      44.933 -19.827   5.417  1.00  0.00    -0.358 N 
HETATM   11  H   UNL     1      45.372 -20.304   6.191  1.00  0.00     0.166 HD
HETATM   12  C   UNL     1      44.588 -20.433   4.233  1.00  0.00     0.043 A 
HETATM   13  C   UNL     1      44.004 -19.455   3.429  1.00  0.00     0.004 A 
HETATM   14  C   UNL     1      44.746 -21.762   3.820  1.00  0.00     0.030 A 
HETATM   15  C   UNL     1      43.556 -19.827   2.143  1.00  0.00     0.014 A 
HETATM   16  C   UNL     1      43.709 -21.150   1.712  1.00  0.00     0.001 A 
HETATM   17  C   UNL     1      44.296 -22.101   2.540  1.00  0.00     0.002 A 
ENDBRANCH   6   7
ENDBRANCH   1   5
BRANCH   2  18
HETATM   18  C   UNL     1      42.202 -12.726   3.171  1.00  0.00     0.197 C 
BRANCH  18  19
HETATM   19  N   UNL     1      42.573 -12.696   1.743  1.00  0.00    -0.282 NA
HETATM   20  H   UNL     1      43.249 -13.437   1.521  1.00  0.00     0.128 HD
BRANCH  19  21
HETATM   21  C   UNL     1      41.494 -12.886   0.842  1.00  0.00     0.042 A 
HETATM   22  C   UNL     1      41.303 -14.164   0.273  1.00  0.00     0.089 A 
HETATM   23  C   UNL     1      40.260 -14.396  -0.626  1.00  0.00     0.038 A 
HETATM   24  C   UNL     1      39.434 -13.342  -1.015  1.00  0.00     0.003 A 
HETATM   25  C   UNL     1      39.655 -12.061  -0.512  1.00  0.00     0.002 A 
HETATM   26  C   UNL     1      40.686 -11.832   0.403  1.00  0.00     0.026 A 
BRANCH  22  27
HETATM   27  O   UNL     1      42.143 -15.157   0.728  1.00  0.00    -0.354 OA
HETATM   28  C   UNL     1      41.656 -16.476   0.505  1.00  0.00     0.210 C 
ENDBRANCH  22  27
ENDBRANCH  19  21
ENDBRANCH  18  19
ENDBRANCH   2  18
TORSDOF 6
ENDMDL
MODEL 6
REMARK VINA RESULT:      -8.2      2.504      3.115
REMARK  6 active torsions:
REMARK  status: ('A' for Active; 'I' for Inactive)
REMARK    1  A    between atoms: C_7  and  C_8 
REMARK    2  A    between atoms: N_9  and  N_10 
REMARK       I    between atoms: N_10  and  C_11 
REMARK    3  A    between atoms: C_11  and  C_12 
REMARK    4  A    between atoms: C_12  and  N_13 
REMARK    5  A    between atoms: N_13  and  C_14 
REMARK    6  A    between atoms: C_15  and  O_16 
ROOT
HETATM    1  N   UNL     1      39.535 -16.097   1.838  1.00  0.00    -0.246 N 
HETATM    2  C   UNL     1      39.105 -14.785   2.024  1.00  0.00     0.250 C 
HETATM    3  O   UNL     1      39.432 -14.050   2.955  1.00  0.00    -0.270 OA
HETATM    4  H   UNL     1      39.429 -16.478   0.899  1.00  0.00     0.192 HD
ENDROOT
BRANCH   1   5
HETATM    5  N   UNL     1      40.409 -16.772   2.654  1.00  0.00    -0.184 NA
HETATM    6  C   UNL     1      41.657 -16.785   2.302  1.00  0.00     0.153 C 
BRANCH   6   7
HETATM    7  C   UNL     1      42.648 -17.487   3.098  1.00  0.00     0.018 A 
HETATM    8  C   UNL     1      43.283 -17.042   4.250  1.00  0.00     0.018 A 
HETATM    9  C   UNL     1      43.152 -15.773   5.013  1.00  0.00     0.069 C 
HETATM   10  N   UNL     1      44.147 -18.028   4.657  1.00  0.00    -0.358 N 
HETATM   11  H   UNL     1      44.742 -17.978   5.472  1.00  0.00     0.166 HD
HETATM   12  C   UNL     1      44.094 -19.106   3.806  1.00  0.00     0.043 A 
HETATM   13  C   UNL     1      43.158 -18.801   2.819  1.00  0.00     0.004 A 
HETATM   14  C   UNL     1      44.799 -20.316   3.836  1.00  0.00     0.030 A 
HETATM   15  C   UNL     1      42.914 -19.758   1.811  1.00  0.00     0.014 A 
HETATM   16  C   UNL     1      43.612 -20.971   1.823  1.00  0.00     0.001 A 
HETATM   17  C   UNL     1      44.540 -21.243   2.823  1.00  0.00     0.002 A 
ENDBRANCH   6   7
ENDBRANCH   1   5
BRANCH   2  18
HETATM   18  C   UNL     1      38.172 -14.303   0.908  1.00  0.00     0.197 C 
BRANCH  18  19
HETATM   19  N   UNL     1      38.915 -13.548  -0.119  1.00  0.00    -0.282 NA
HETATM   20  H   UNL     1      39.866 -13.325   0.201  1.00  0.00     0.128 HD
BRANCH  19  21
HETATM   21  C   UNL     1      39.080 -14.223  -1.355  1.00  0.00     0.042 A 
HETATM   22  C   UNL     1      40.333 -14.804  -1.647  1.00  0.00     0.089 A 
HETATM   23  C   UNL     1      40.545 -15.472  -2.856  1.00  0.00     0.038 A 
HETATM   24  C   UNL     1      39.530 -15.513  -3.811  1.00  0.00     0.003 A 
HETATM   25  C   UNL     1      38.311 -14.885  -3.561  1.00  0.00     0.002 A 
HETATM   26  C   UNL     1      38.091 -14.234  -2.344  1.00  0.00     0.026 A 
BRANCH  22  27
HETATM   27  O   UNL     1      41.274 -14.743  -0.644  1.00  0.00    -0.354 OA
HETATM   28  C   UNL     1      42.036 -13.540  -0.635  1.00  0.00     0.210 C 
ENDBRANCH  22  27
ENDBRANCH  19  21
ENDBRANCH  18  19
ENDBRANCH   2  18
TORSDOF 6
ENDMDL
MODEL 7
REMARK VINA RESULT:      -8.1      5.257      7.752
REMARK  6 active torsions:
REMARK  status: ('A' for Active; 'I' for Inactive)
REMARK    1  A    between atoms: C_7  and  C_8 
REMARK    2  A    between atoms: N_9  and  N_10 
REMARK       I    between atoms: N_10  and  C_11 
REMARK    3  A    between atoms: C_11  and  C_12 
REMARK    4  A    between atoms: C_12  and  N_13 
REMARK    5  A    between atoms: N_13  and  C_14 
REMARK    6  A    between atoms: C_15  and  O_16 
ROOT
HETATM    1  N   UNL     1      43.720 -14.407   6.951  1.00  0.00    -0.246 N 
HETATM    2  C   UNL     1      44.815 -13.657   7.373  1.00  0.00     0.250 C 
HETATM    3  O   UNL     1      45.877 -13.536   6.764  1.00  0.00    -0.270 OA
HETATM    4  H   UNL     1      42.826 -14.187   7.389  1.00  0.00     0.192 HD
ENDROOT
BRANCH   1   5
HETATM    5  N   UNL     1      43.644 -15.116   5.779  1.00  0.00    -0.184 NA
HETATM    6  C   UNL     1      42.921 -16.193   5.784  1.00  0.00     0.153 C 
BRANCH   6   7
HETATM    7  C   UNL     1      42.796 -17.012   4.592  1.00  0.00     0.018 A 
HETATM    8  C   UNL     1      41.957 -16.806   3.504  1.00  0.00     0.018 A 
HETATM    9  C   UNL     1      40.977 -15.728   3.214  1.00  0.00     0.069 C 
HETATM   10  N   UNL     1      42.167 -17.833   2.617  1.00  0.00    -0.358 N 
HETATM   11  H   UNL     1      41.692 -17.941   1.732  1.00  0.00     0.166 HD
HETATM   12  C   UNL     1      43.118 -18.703   3.092  1.00  0.00     0.043 A 
HETATM   13  C   UNL     1      43.538 -18.213   4.328  1.00  0.00     0.004 A 
HETATM   14  C   UNL     1      43.632 -19.876   2.525  1.00  0.00     0.030 A 
HETATM   15  C   UNL     1      44.526 -18.935   5.032  1.00  0.00     0.014 A 
HETATM   16  C   UNL     1      45.049 -20.111   4.483  1.00  0.00     0.001 A 
HETATM   17  C   UNL     1      44.607 -20.573   3.247  1.00  0.00     0.002 A 
ENDBRANCH   6   7
ENDBRANCH   1   5
BRANCH   2  18
HETATM   18  C   UNL     1      44.565 -12.939   8.704  1.00  0.00     0.197 C 
BRANCH  18  19
HETATM   19  N   UNL     1      43.638 -11.804   8.532  1.00  0.00    -0.282 NA
HETATM   20  H   UNL     1      42.714 -12.125   8.215  1.00  0.00     0.128 HD
BRANCH  19  21
HETATM   21  C   UNL     1      43.393 -11.049   9.707  1.00  0.00     0.042 A 
HETATM   22  C   UNL     1      42.275 -10.187   9.738  1.00  0.00     0.089 A 
HETATM   23  C   UNL     1      41.999  -9.417  10.870  1.00  0.00     0.038 A 
HETATM   24  C   UNL     1      42.868  -9.453  11.960  1.00  0.00     0.003 A 
HETATM   25  C   UNL     1      44.011 -10.249  11.915  1.00  0.00     0.002 A 
HETATM   26  C   UNL     1      44.278 -11.035  10.790  1.00  0.00     0.026 A 
BRANCH  22  27
HETATM   27  O   UNL     1      41.452 -10.229   8.634  1.00  0.00    -0.354 OA
HETATM   28  C   UNL     1      40.161 -10.773   8.893  1.00  0.00     0.210 C 
ENDBRANCH  22  27
ENDBRANCH  19  21
ENDBRANCH  18  19
ENDBRANCH   2  18
TORSDOF 6
ENDMDL
MODEL 8
REMARK VINA RESULT:      -8.1      2.373      3.988
REMARK  6 active torsions:
REMARK  status: ('A' for Active; 'I' for Inactive)
REMARK    1  A    between atoms: C_7  and  C_8 
REMARK    2  A    between atoms: N_9  and  N_10 
REMARK       I    between atoms: N_10  and  C_11 
REMARK    3  A    between atoms: C_11  and  C_12 
REMARK    4  A    between atoms: C_12  and  N_13 
REMARK    5  A    between atoms: N_13  and  C_14 
REMARK    6  A    between atoms: C_15  and  O_16 
ROOT
HETATM    1  N   UNL     1      43.247 -15.360   2.253  1.00  0.00    -0.246 N 
HETATM    2  C   UNL     1      42.222 -15.181   1.328  1.00  0.00     0.250 C 
HETATM    3  O   UNL     1      41.686 -16.073   0.672  1.00  0.00    -0.270 OA
HETATM    4  H   UNL     1      43.390 -14.604   2.922  1.00  0.00     0.192 HD
ENDROOT
BRANCH   1   5
HETATM    5  N   UNL     1      43.810 -16.565   2.596  1.00  0.00    -0.184 NA
HETATM    6  C   UNL     1      43.422 -17.103   3.710  1.00  0.00     0.153 C 
BRANCH   6   7
HETATM    7  C   UNL     1      43.975 -18.369   4.158  1.00  0.00     0.018 A 
HETATM    8  C   UNL     1      44.603 -18.642   5.366  1.00  0.00     0.018 A 
HETATM    9  C   UNL     1      44.886 -17.776   6.540  1.00  0.00     0.069 C 
HETATM   10  N   UNL     1      44.973 -19.964   5.354  1.00  0.00    -0.358 N 
HETATM   11  H   UNL     1      45.449 -20.440   6.107  1.00  0.00     0.166 HD
HETATM   12  C   UNL     1      44.604 -20.564   4.174  1.00  0.00     0.043 A 
HETATM   13  C   UNL     1      43.969 -19.591   3.403  1.00  0.00     0.004 A 
HETATM   14  C   UNL     1      44.783 -21.882   3.737  1.00  0.00     0.030 A 
HETATM   15  C   UNL     1      43.488 -19.958   2.128  1.00  0.00     0.014 A 
HETATM   16  C   UNL     1      43.661 -21.270   1.673  1.00  0.00     0.001 A 
HETATM   17  C   UNL     1      44.300 -22.217   2.468  1.00  0.00     0.002 A 
ENDBRANCH   6   7
ENDBRANCH   1   5
BRANCH   2  18
HETATM   18  C   UNL     1      41.778 -13.719   1.211  1.00  0.00     0.197 C 
BRANCH  18  19
HETATM   19  N   UNL     1      42.524 -12.858   2.147  1.00  0.00    -0.282 NA
HETATM   20  H   UNL     1      42.801 -11.976   1.700  1.00  0.00     0.128 HD
BRANCH  19  21
HETATM   21  C   UNL     1      41.809 -12.482   3.313  1.00  0.00     0.042 A 
HETATM   22  C   UNL     1      42.354 -12.804   4.576  1.00  0.00     0.089 A 
HETATM   23  C   UNL     1      41.681 -12.461   5.751  1.00  0.00     0.038 A 
HETATM   24  C   UNL     1      40.429 -11.850   5.679  1.00  0.00     0.003 A 
HETATM   25  C   UNL     1      39.851 -11.589   4.438  1.00  0.00     0.002 A 
HETATM   26  C   UNL     1      40.532 -11.913   3.261  1.00  0.00     0.026 A 
BRANCH  22  27
HETATM   27  O   UNL     1      43.604 -13.383   4.562  1.00  0.00    -0.354 OA
HETATM   28  C   UNL     1      43.937 -14.072   5.763  1.00  0.00     0.210 C 
ENDBRANCH  22  27
ENDBRANCH  19  21
ENDBRANCH  18  19
ENDBRANCH   2  18
TORSDOF 6
ENDMDL
MODEL 9
REMARK VINA RESULT:      -7.9      2.539      2.990
REMARK  6 active torsions:
REMARK  status: ('A' for Active; 'I' for Inactive)
REMARK    1  A    between atoms: C_7  and  C_8 
REMARK    2  A    between atoms: N_9  and  N_10 
REMARK       I    between atoms: N_10  and  C_11 
REMARK    3  A    between atoms: C_11  and  C_12 
REMARK    4  A    between atoms: C_12  and  N_13 
REMARK    5  A    between atoms: N_13  and  C_14 
REMARK    6  A    between atoms: C_15  and  O_16 
ROOT
HETATM    1  N   UNL     1      42.862 -15.711   1.459  1.00  0.00    -0.246 N 
HETATM    2  C   UNL     1      41.832 -15.897   0.541  1.00  0.00     0.250 C 
HETATM    3  O   UNL     1      41.404 -16.985   0.156  1.00  0.00    -0.270 OA
HETATM    4  H   UNL     1      42.914 -14.793   1.900  1.00  0.00     0.192 HD
ENDROOT
BRANCH   1   5
HETATM    5  N   UNL     1      43.550 -16.713   2.098  1.00  0.00    -0.184 NA
HETATM    6  C   UNL     1      42.970 -17.276   3.111  1.00  0.00     0.153 C 
BRANCH   6   7
HETATM    7  C   UNL     1      43.631 -18.334   3.855  1.00  0.00     0.018 A 
HETATM    8  C   UNL     1      44.163 -18.267   5.136  1.00  0.00     0.018 A 
HETATM    9  C   UNL     1      44.213 -17.153   6.119  1.00  0.00     0.069 C 
HETATM   10  N   UNL     1      44.697 -19.498   5.430  1.00  0.00    -0.358 N 
HETATM   11  H   UNL     1      45.151 -19.740   6.299  1.00  0.00     0.166 HD
HETATM   12  C   UNL     1      44.528 -20.367   4.379  1.00  0.00     0.043 A 
HETATM   13  C   UNL     1      43.856 -19.669   3.376  1.00  0.00     0.004 A 
HETATM   14  C   UNL     1      44.917 -21.706   4.243  1.00  0.00     0.030 A 
HETATM   15  C   UNL     1      43.558 -20.348   2.175  1.00  0.00     0.014 A 
HETATM   16  C   UNL     1      43.941 -21.685   2.021  1.00  0.00     0.001 A 
HETATM   17  C   UNL     1      44.611 -22.352   3.042  1.00  0.00     0.002 A 
ENDBRANCH   6   7
ENDBRANCH   1   5
BRANCH   2  18
HETATM   18  C   UNL     1      41.231 -14.576   0.048  1.00  0.00     0.197 C 
BRANCH  18  19
HETATM   19  N   UNL     1      41.546 -14.345  -1.375  1.00  0.00    -0.282 NA
HETATM   20  H   UNL     1      42.355 -14.905  -1.671  1.00  0.00     0.128 HD
BRANCH  19  21
HETATM   21  C   UNL     1      40.505 -14.679  -2.278  1.00  0.00     0.042 A 
HETATM   22  C   UNL     1      39.393 -13.814  -2.380  1.00  0.00     0.089 A 
HETATM   23  C   UNL     1      38.340 -14.105  -3.250  1.00  0.00     0.038 A 
HETATM   24  C   UNL     1      38.355 -15.292  -3.982  1.00  0.00     0.003 A 
HETATM   25  C   UNL     1      39.415 -16.186  -3.840  1.00  0.00     0.002 A 
HETATM   26  C   UNL     1      40.479 -15.886  -2.984  1.00  0.00     0.026 A 
BRANCH  22  27
HETATM   27  O   UNL     1      39.465 -12.651  -1.645  1.00  0.00    -0.354 OA
HETATM   28  C   UNL     1      38.302 -12.382  -0.868  1.00  0.00     0.210 C 
ENDBRANCH  22  27
ENDBRANCH  19  21
ENDBRANCH  18  19
ENDBRANCH   2  18
TORSDOF 6
ENDMDL
MODEL 10
REMARK VINA RESULT:      -7.9      5.190      7.669
REMARK  6 active torsions:
REMARK  status: ('A' for Active; 'I' for Inactive)
REMARK    1  A    between atoms: C_7  and  C_8 
REMARK    2  A    between atoms: N_9  and  N_10 
REMARK       I    between atoms: N_10  and  C_11 
REMARK    3  A    between atoms: C_11  and  C_12 
REMARK    4  A    between atoms: C_12  and  N_13 
REMARK    5  A    between atoms: N_13  and  C_14 
REMARK    6  A    between atoms: C_15  and  O_16 
ROOT
HETATM    1  N   UNL     1      43.791 -14.860   7.332  1.00  0.00    -0.246 N 
HETATM    2  C   UNL     1      44.693 -13.811   7.174  1.00  0.00     0.250 C 
HETATM    3  O   UNL     1      45.379 -13.601   6.175  1.00  0.00    -0.270 OA
HETATM    4  H   UNL     1      43.092 -14.749   8.067  1.00  0.00     0.192 HD
ENDROOT
BRANCH   1   5
HETATM    5  N   UNL     1      43.509 -15.817   6.389  1.00  0.00    -0.184 NA
HETATM    6  C   UNL     1      44.235 -16.891   6.402  1.00  0.00     0.153 C 
BRANCH   6   7
HETATM    7  C   UNL     1      44.015 -17.949   5.432  1.00  0.00     0.018 A 
HETATM    8  C   UNL     1      43.903 -19.313   5.672  1.00  0.00     0.018 A 
HETATM    9  C   UNL     1      43.953 -20.092   6.937  1.00  0.00     0.069 C 
HETATM   10  N   UNL     1      43.712 -19.935   4.463  1.00  0.00    -0.358 N 
HETATM   11  H   UNL     1      43.596 -20.930   4.335  1.00  0.00     0.166 HD
HETATM   12  C   UNL     1      43.695 -19.018   3.440  1.00  0.00     0.043 A 
HETATM   13  C   UNL     1      43.876 -17.761   4.014  1.00  0.00     0.004 A 
HETATM   14  C   UNL     1      43.533 -19.207   2.061  1.00  0.00     0.030 A 
HETATM   15  C   UNL     1      43.897 -16.634   3.164  1.00  0.00     0.014 A 
HETATM   16  C   UNL     1      43.740 -16.804   1.784  1.00  0.00     0.001 A 
HETATM   17  C   UNL     1      43.560 -18.074   1.243  1.00  0.00     0.002 A 
ENDBRANCH   6   7
ENDBRANCH   1   5
BRANCH   2  18
HETATM   18  C   UNL     1      44.741 -12.881   8.392  1.00  0.00     0.197 C 
BRANCH  18  19
HETATM   19  N   UNL     1      43.541 -12.025   8.456  1.00  0.00    -0.282 NA
HETATM   20  H   UNL     1      42.682 -12.588   8.436  1.00  0.00     0.128 HD
BRANCH  19  21
HETATM   21  C   UNL     1      43.441 -11.224   9.623  1.00  0.00     0.042 A 
HETATM   22  C   UNL     1      42.386 -10.289   9.714  1.00  0.00     0.089 A 
HETATM   23  C   UNL     1      42.252  -9.474  10.840  1.00  0.00     0.038 A 
HETATM   24  C   UNL     1      43.202  -9.538  11.859  1.00  0.00     0.003 A 
HETATM   25  C   UNL     1      44.284 -10.409  11.749  1.00  0.00     0.002 A 
HETATM   26  C   UNL     1      44.409 -11.240  10.632  1.00  0.00     0.026 A 
BRANCH  22  27
HETATM   27  O   UNL     1      41.476 -10.306   8.680  1.00  0.00    -0.354 OA
HETATM   28  C   UNL     1      40.153 -10.654   9.077  1.00  0.00     0.210 C 
ENDBRANCH  22  27
ENDBRANCH  19  21
ENDBRANCH  18  19
ENDBRANCH   2  18
TORSDOF 6
ENDMDL
