MODEL 1
REMARK VINA RESULT:      -7.6      0.000      0.000
REMARK  7 active torsions:
REMARK  status: ('A' for Active; 'I' for Inactive)
REMARK    1  A    between atoms: C_2  and  C_3 
REMARK    2  A    between atoms: C_3  and  O_4 
REMARK    3  A    between atoms: O_4  and  C_5 
REMARK    4  A    between atoms: C_9  and  C_10 
REMARK    5  A    between atoms: C_10  and  N_11 
REMARK    6  A    between atoms: N_11  and  C_12 
REMARK    7  A    between atoms: C_19  and  C_20 
REMARK       I    between atoms: C_20  and  N_21 
ROOT
HETATM    1  C   UNL     1      39.680 -15.315   1.441  1.00  0.00     0.009 A 
HETATM    2  C   UNL     1      40.496 -14.939   0.358  1.00  0.00     0.039 A 
HETATM    3  C   UNL     1      40.054 -13.975  -0.573  1.00  0.00     0.030 A 
HETATM    4  C   UNL     1      38.787 -13.433  -0.418  1.00  0.00     0.063 A 
HETATM    5  N   UNL     1      38.638 -12.554  -1.453  1.00  0.00    -0.277 N 
HETATM    6  H   UNL     1      37.829 -11.979  -1.659  1.00  0.00     0.189 HD
HETATM    7  N   UNL     1      39.703 -12.471  -2.270  1.00  0.00    -0.168 NA
HETATM    8  C   UNL     1      40.585 -13.347  -1.738  1.00  0.00     0.156 A 
HETATM    9  C   UNL     1      37.925 -13.803   0.615  1.00  0.00     0.034 A 
HETATM   10  C   UNL     1      38.395 -14.762   1.527  1.00  0.00     0.026 A 
ENDROOT
BRANCH   1  11
HETATM   11  N   UNL     1      40.139 -16.328   2.294  1.00  0.00    -0.289 NA
HETATM   12  H   UNL     1      40.252 -17.213   1.802  1.00  0.00     0.128 HD
BRANCH  11  13
HETATM   13  C   UNL     1      41.250 -16.054   3.193  1.00  0.00     0.131 C 
BRANCH  13  14
HETATM   14  C   UNL     1      42.241 -17.195   3.137  1.00  0.00    -0.043 A 
HETATM   15  C   UNL     1      43.093 -17.462   4.216  1.00  0.00     0.035 A 
HETATM   16  C   UNL     1      43.982 -18.541   4.165  1.00  0.00     0.068 A 
HETATM   17  C   UNL     1      44.029 -19.377   3.041  1.00  0.00     0.090 A 
HETATM   18 CL   UNL     1      44.991 -18.825   5.542  1.00  0.00    -0.081 Cl
HETATM   19  C   UNL     1      43.207 -19.088   1.948  1.00  0.00     0.039 A 
HETATM   20  C   UNL     1      42.318 -18.009   1.999  1.00  0.00     0.011 A 
BRANCH  17  21
HETATM   21  O   UNL     1      44.918 -20.421   3.063  1.00  0.00    -0.346 OA
BRANCH  21  22
HETATM   22  C   UNL     1      44.429 -21.667   2.567  1.00  0.00     0.202 C 
BRANCH  22  23
HETATM   23  C   UNL     1      44.491 -22.653   3.695  1.00  0.00    -0.011 C 
HETATM   24  C   UNL     1      44.991 -22.397   4.911  1.00  0.00     0.009 C 
ENDBRANCH  22  23
ENDBRANCH  21  22
ENDBRANCH  17  21
ENDBRANCH  13  14
ENDBRANCH  11  13
ENDBRANCH   1  11
BRANCH   8  25
HETATM   25  C   UNL     1      41.906 -13.564  -2.343  1.00  0.00     0.270 C 
HETATM   26  N   UNL     1      41.972 -14.658  -3.163  1.00  0.00    -0.365 N 
HETATM   27  H   UNL     1      41.138 -15.217  -3.291  1.00  0.00     0.159 HD
HETATM   28  H   UNL     1      42.837 -14.885  -3.628  1.00  0.00     0.159 HD
HETATM   29  O   UNL     1      42.885 -12.847  -2.158  1.00  0.00    -0.266 OA
ENDBRANCH   8  25
TORSDOF 7
ENDMDL
MODEL 2
REMARK VINA RESULT:      -7.6      4.813      8.116
REMARK  7 active torsions:
REMARK  status: ('A' for Active; 'I' for Inactive)
REMARK    1  A    between atoms: C_2  and  C_3 
REMARK    2  A    between atoms: C_3  and  O_4 
REMARK    3  A    between atoms: O_4  and  C_5 
REMARK    4  A    between atoms: C_9  and  C_10 
REMARK    5  A    between atoms: C_10  and  N_11 
REMARK    6  A    between atoms: N_11  and  C_12 
REMARK    7  A    between atoms: C_19  and  C_20 
REMARK       I    between atoms: C_20  and  N_21 
ROOT
HETATM    1  C   UNL     1      44.519 -19.673   4.897  1.00  0.00     0.009 A 
HETATM    2  C   UNL     1      44.387 -18.310   5.223  1.00  0.00     0.039 A 
HETATM    3  C   UNL     1      44.041 -17.916   6.533  1.00  0.00     0.030 A 
HETATM    4  C   UNL     1      43.798 -18.898   7.481  1.00  0.00     0.063 A 
HETATM    5  N   UNL     1      43.482 -18.227   8.628  1.00  0.00    -0.277 N 
HETATM    6  H   UNL     1      43.239 -18.627   9.528  1.00  0.00     0.189 HD
HETATM    7  N   UNL     1      43.501 -16.887   8.512  1.00  0.00    -0.168 NA
HETATM    8  C   UNL     1      43.843 -16.682   7.220  1.00  0.00     0.156 A 
HETATM    9  C   UNL     1      43.876 -20.262   7.196  1.00  0.00     0.034 A 
HETATM   10  C   UNL     1      44.227 -20.622   5.886  1.00  0.00     0.026 A 
ENDROOT
BRANCH   1  11
HETATM   11  N   UNL     1      44.796 -20.010   3.566  1.00  0.00    -0.289 NA
HETATM   12  H   UNL     1      45.444 -20.794   3.502  1.00  0.00     0.128 HD
BRANCH  11  13
HETATM   13  C   UNL     1      43.701 -20.125   2.616  1.00  0.00     0.131 C 
BRANCH  13  14
HETATM   14  C   UNL     1      43.251 -18.745   2.191  1.00  0.00    -0.043 A 
HETATM   15  C   UNL     1      41.902 -18.375   2.255  1.00  0.00     0.035 A 
HETATM   16  C   UNL     1      41.504 -17.085   1.891  1.00  0.00     0.068 A 
HETATM   17  C   UNL     1      42.446 -16.138   1.465  1.00  0.00     0.090 A 
HETATM   18 CL   UNL     1      39.824 -16.690   2.016  1.00  0.00    -0.081 Cl
HETATM   19  C   UNL     1      43.788 -16.518   1.363  1.00  0.00     0.039 A 
HETATM   20  C   UNL     1      44.185 -17.809   1.727  1.00  0.00     0.011 A 
BRANCH  17  21
HETATM   21  O   UNL     1      41.987 -14.890   1.133  1.00  0.00    -0.346 OA
BRANCH  21  22
HETATM   22  C   UNL     1      42.358 -13.833   2.016  1.00  0.00     0.202 C 
BRANCH  22  23
HETATM   23  C   UNL     1      41.127 -13.424   2.768  1.00  0.00    -0.011 C 
HETATM   24  C   UNL     1      40.813 -13.834   4.004  1.00  0.00     0.009 C 
ENDBRANCH  22  23
ENDBRANCH  21  22
ENDBRANCH  17  21
ENDBRANCH  13  14
ENDBRANCH  11  13
ENDBRANCH   1  11
BRANCH   8  25
HETATM   25  C   UNL     1      43.977 -15.325   6.671  1.00  0.00     0.270 C 
HETATM   26  N   UNL     1      44.324 -14.380   7.598  1.00  0.00    -0.365 N 
HETATM   27  H   UNL     1      44.461 -14.671   8.559  1.00  0.00     0.159 HD
HETATM   28  H   UNL     1      44.444 -13.421   7.315  1.00  0.00     0.159 HD
HETATM   29  O   UNL     1      43.805 -15.029   5.494  1.00  0.00    -0.266 OA
ENDBRANCH   8  25
TORSDOF 7
ENDMDL
MODEL 3
REMARK VINA RESULT:      -7.5      2.232      3.054
REMARK  7 active torsions:
REMARK  status: ('A' for Active; 'I' for Inactive)
REMARK    1  A    between atoms: C_2  and  C_3 
REMARK    2  A    between atoms: C_3  and  O_4 
REMARK    3  A    between atoms: O_4  and  C_5 
REMARK    4  A    between atoms: C_9  and  C_10 
REMARK    5  A    between atoms: C_10  and  N_11 
REMARK    6  A    between atoms: N_11  and  C_12 
REMARK    7  A    between atoms: C_19  and  C_20 
REMARK       I    between atoms: C_20  and  N_21 
ROOT
HETATM    1  C   UNL     1      41.151 -15.552  -0.925  1.00  0.00     0.009 A 
HETATM    2  C   UNL     1      41.714 -14.286  -0.674  1.00  0.00     0.039 A 
HETATM    3  C   UNL     1      41.971 -13.392  -1.735  1.00  0.00     0.030 A 
HETATM    4  C   UNL     1      41.691 -13.800  -3.031  1.00  0.00     0.063 A 
HETATM    5  N   UNL     1      42.046 -12.748  -3.827  1.00  0.00    -0.277 N 
HETATM    6  H   UNL     1      41.983 -12.695  -4.838  1.00  0.00     0.189 HD
HETATM    7  N   UNL     1      42.531 -11.685  -3.163  1.00  0.00    -0.168 NA
HETATM    8  C   UNL     1      42.492 -12.071  -1.867  1.00  0.00     0.156 A 
HETATM    9  C   UNL     1      41.170 -15.059  -3.333  1.00  0.00     0.034 A 
HETATM   10  C   UNL     1      40.922 -15.923  -2.256  1.00  0.00     0.026 A 
ENDROOT
BRANCH   1  11
HETATM   11  N   UNL     1      40.982 -16.426   0.158  1.00  0.00    -0.289 NA
HETATM   12  H   UNL     1      41.437 -17.323  -0.008  1.00  0.00     0.128 HD
BRANCH  11  13
HETATM   13  C   UNL     1      41.205 -15.938   1.510  1.00  0.00     0.131 C 
BRANCH  13  14
HETATM   14  C   UNL     1      42.086 -16.910   2.261  1.00  0.00    -0.043 A 
HETATM   15  C   UNL     1      42.297 -18.209   1.782  1.00  0.00     0.035 A 
HETATM   16  C   UNL     1      43.142 -19.088   2.468  1.00  0.00     0.068 A 
HETATM   17  C   UNL     1      43.798 -18.683   3.640  1.00  0.00     0.090 A 
HETATM   18 CL   UNL     1      43.374 -20.670   1.808  1.00  0.00    -0.081 Cl
HETATM   19  C   UNL     1      43.557 -17.400   4.140  1.00  0.00     0.039 A 
HETATM   20  C   UNL     1      42.712 -16.521   3.453  1.00  0.00     0.011 A 
BRANCH  17  21
HETATM   21  O   UNL     1      44.618 -19.593   4.255  1.00  0.00    -0.346 OA
BRANCH  21  22
HETATM   22  C   UNL     1      44.354 -19.835   5.636  1.00  0.00     0.202 C 
BRANCH  22  23
HETATM   23  C   UNL     1      44.330 -21.322   5.833  1.00  0.00    -0.011 C 
HETATM   24  C   UNL     1      44.983 -22.207   5.069  1.00  0.00     0.009 C 
ENDBRANCH  22  23
ENDBRANCH  21  22
ENDBRANCH  17  21
ENDBRANCH  13  14
ENDBRANCH  11  13
ENDBRANCH   1  11
BRANCH   8  25
HETATM   25  C   UNL     1      42.945 -11.180  -0.790  1.00  0.00     0.270 C 
HETATM   26  N   UNL     1      43.657 -10.096  -1.226  1.00  0.00    -0.365 N 
HETATM   27  H   UNL     1      43.814  -9.987  -2.220  1.00  0.00     0.159 HD
HETATM   28  H   UNL     1      44.006  -9.425  -0.560  1.00  0.00     0.159 HD
HETATM   29  O   UNL     1      42.720 -11.357   0.403  1.00  0.00    -0.266 OA
ENDBRANCH   8  25
TORSDOF 7
ENDMDL
MODEL 4
REMARK VINA RESULT:      -7.5      7.679     10.509
REMARK  7 active torsions:
REMARK  status: ('A' for Active; 'I' for Inactive)
REMARK    1  A    between atoms: C_2  and  C_3 
REMARK    2  A    between atoms: C_3  and  O_4 
REMARK    3  A    between atoms: O_4  and  C_5 
REMARK    4  A    between atoms: C_9  and  C_10 
REMARK    5  A    between atoms: C_10  and  N_11 
REMARK    6  A    between atoms: N_11  and  C_12 
REMARK    7  A    between atoms: C_19  and  C_20 
REMARK       I    between atoms: C_20  and  N_21 
ROOT
HETATM    1  C   UNL     1      44.044 -14.922   6.890  1.00  0.00     0.009 A 
HETATM    2  C   UNL     1      44.083 -16.329   6.848  1.00  0.00     0.039 A 
HETATM    3  C   UNL     1      43.680 -17.023   5.687  1.00  0.00     0.030 A 
HETATM    4  C   UNL     1      43.212 -16.293   4.604  1.00  0.00     0.063 A 
HETATM    5  N   UNL     1      42.894 -17.219   3.652  1.00  0.00    -0.277 N 
HETATM    6  H   UNL     1      42.516 -17.044   2.727  1.00  0.00     0.189 HD
HETATM    7  N   UNL     1      43.119 -18.494   4.017  1.00  0.00    -0.168 NA
HETATM    8  C   UNL     1      43.603 -18.386   5.276  1.00  0.00     0.156 A 
HETATM    9  C   UNL     1      43.116 -14.901   4.613  1.00  0.00     0.034 A 
HETATM   10  C   UNL     1      43.528 -14.240   5.781  1.00  0.00     0.026 A 
ENDROOT
BRANCH   1  11
HETATM   11  N   UNL     1      44.389 -14.288   8.092  1.00  0.00    -0.289 NA
HETATM   12  H   UNL     1      44.703 -14.957   8.794  1.00  0.00     0.128 HD
BRANCH  11  13
HETATM   13  C   UNL     1      45.221 -13.096   8.056  1.00  0.00     0.131 C 
BRANCH  13  14
HETATM   14  C   UNL     1      44.661 -12.058   9.003  1.00  0.00    -0.043 A 
HETATM   15  C   UNL     1      43.468 -11.386   8.711  1.00  0.00     0.035 A 
HETATM   16  C   UNL     1      42.943 -10.453   9.612  1.00  0.00     0.068 A 
HETATM   17  C   UNL     1      43.595 -10.181  10.823  1.00  0.00     0.090 A 
HETATM   18 CL   UNL     1      41.454  -9.675   9.197  1.00  0.00    -0.081 Cl
HETATM   19  C   UNL     1      44.807 -10.823  11.097  1.00  0.00     0.039 A 
HETATM   20  C   UNL     1      45.331 -11.756  10.196  1.00  0.00     0.011 A 
BRANCH  17  21
HETATM   21  O   UNL     1      43.020  -9.262  11.662  1.00  0.00    -0.346 OA
BRANCH  21  22
HETATM   22  C   UNL     1      42.180  -9.793  12.686  1.00  0.00     0.202 C 
BRANCH  22  23
HETATM   23  C   UNL     1      42.853  -9.526  14.000  1.00  0.00    -0.011 C 
HETATM   24  C   UNL     1      42.315  -9.776  15.201  1.00  0.00     0.009 C 
ENDBRANCH  22  23
ENDBRANCH  21  22
ENDBRANCH  17  21
ENDBRANCH  13  14
ENDBRANCH  11  13
ENDBRANCH   1  11
BRANCH   8  25
HETATM   25  C   UNL     1      43.982 -19.574   6.052  1.00  0.00     0.270 C 
HETATM   26  N   UNL     1      44.688 -20.505   5.339  1.00  0.00    -0.365 N 
HETATM   27  H   UNL     1      44.893 -20.316   4.366  1.00  0.00     0.159 HD
HETATM   28  H   UNL     1      44.997 -21.353   5.789  1.00  0.00     0.159 HD
HETATM   29  O   UNL     1      43.712 -19.749   7.236  1.00  0.00    -0.266 OA
ENDBRANCH   8  25
TORSDOF 7
ENDMDL
MODEL 5
REMARK VINA RESULT:      -7.3      3.906      8.888
REMARK  7 active torsions:
REMARK  status: ('A' for Active; 'I' for Inactive)
REMARK    1  A    between atoms: C_2  and  C_3 
REMARK    2  A    between atoms: C_3  and  O_4 
REMARK    3  A    between atoms: O_4  and  C_5 
REMARK    4  A    between atoms: C_9  and  C_10 
REMARK    5  A    between atoms: C_10  and  N_11 
REMARK    6  A    between atoms: N_11  and  C_12 
REMARK    7  A    between atoms: C_19  and  C_20 
REMARK       I    between atoms: C_20  and  N_21 
ROOT
HETATM    1  C   UNL     1      43.559 -17.456   2.790  1.00  0.00     0.009 A 
HETATM    2  C   UNL     1      43.380 -17.502   4.185  1.00  0.00     0.039 A 
HETATM    3  C   UNL     1      43.735 -18.656   4.916  1.00  0.00     0.030 A 
HETATM    4  C   UNL     1      44.229 -19.754   4.228  1.00  0.00     0.063 A 
HETATM    5  N   UNL     1      44.470 -20.703   5.180  1.00  0.00    -0.277 N 
HETATM    6  H   UNL     1      44.833 -21.639   5.037  1.00  0.00     0.189 HD
HETATM    7  N   UNL     1      44.179 -20.318   6.435  1.00  0.00    -0.168 NA
HETATM    8  C   UNL     1      43.721 -19.054   6.285  1.00  0.00     0.156 A 
HETATM    9  C   UNL     1      44.387 -19.770   2.841  1.00  0.00     0.034 A 
HETATM   10  C   UNL     1      44.029 -18.606   2.143  1.00  0.00     0.026 A 
ENDROOT
BRANCH   1  11
HETATM   11  N   UNL     1      43.125 -16.312   2.106  1.00  0.00    -0.289 NA
HETATM   12  H   UNL     1      43.085 -16.467   1.100  1.00  0.00     0.128 HD
BRANCH  11  13
HETATM   13  C   UNL     1      41.964 -15.585   2.597  1.00  0.00     0.131 C 
BRANCH  13  14
HETATM   14  C   UNL     1      41.126 -15.120   1.428  1.00  0.00    -0.043 A 
HETATM   15  C   UNL     1      39.773 -14.795   1.595  1.00  0.00     0.035 A 
HETATM   16  C   UNL     1      39.017 -14.333   0.513  1.00  0.00     0.068 A 
HETATM   17  C   UNL     1      39.599 -14.179  -0.754  1.00  0.00     0.090 A 
HETATM   18 CL   UNL     1      37.359 -13.931   0.796  1.00  0.00    -0.081 Cl
HETATM   19  C   UNL     1      40.939 -14.540  -0.931  1.00  0.00     0.039 A 
HETATM   20  C   UNL     1      41.694 -15.002   0.152  1.00  0.00     0.011 A 
BRANCH  17  21
HETATM   21  O   UNL     1      38.802 -13.714  -1.767  1.00  0.00    -0.346 OA
BRANCH  21  22
HETATM   22  C   UNL     1      39.258 -13.980  -3.092  1.00  0.00     0.202 C 
BRANCH  22  23
HETATM   23  C   UNL     1      38.451 -15.127  -3.622  1.00  0.00    -0.011 C 
HETATM   24  C   UNL     1      38.962 -16.216  -4.212  1.00  0.00     0.009 C 
ENDBRANCH  22  23
ENDBRANCH  21  22
ENDBRANCH  17  21
ENDBRANCH  13  14
ENDBRANCH  11  13
ENDBRANCH   1  11
BRANCH   8  25
HETATM   25  C   UNL     1      43.286 -18.257   7.441  1.00  0.00     0.270 C 
HETATM   26  N   UNL     1      43.970 -18.527   8.595  1.00  0.00    -0.365 N 
HETATM   27  H   UNL     1      44.701 -19.228   8.571  1.00  0.00     0.159 HD
HETATM   28  H   UNL     1      43.746 -18.027   9.440  1.00  0.00     0.159 HD
HETATM   29  O   UNL     1      42.396 -17.413   7.411  1.00  0.00    -0.266 OA
ENDBRANCH   8  25
TORSDOF 7
ENDMDL
MODEL 6
REMARK VINA RESULT:      -7.3      7.926     10.052
REMARK  7 active torsions:
REMARK  status: ('A' for Active; 'I' for Inactive)
REMARK    1  A    between atoms: C_2  and  C_3 
REMARK    2  A    between atoms: C_3  and  O_4 
REMARK    3  A    between atoms: O_4  and  C_5 
REMARK    4  A    between atoms: C_9  and  C_10 
REMARK    5  A    between atoms: C_10  and  N_11 
REMARK    6  A    between atoms: N_11  and  C_12 
REMARK    7  A    between atoms: C_19  and  C_20 
REMARK       I    between atoms: C_20  and  N_21 
ROOT
HETATM    1  C   UNL     1      43.858 -11.679   9.258  1.00  0.00     0.009 A 
HETATM    2  C   UNL     1      42.677 -11.571  10.017  1.00  0.00     0.039 A 
HETATM    3  C   UNL     1      42.685 -10.916  11.267  1.00  0.00     0.030 A 
HETATM    4  C   UNL     1      43.885 -10.415  11.748  1.00  0.00     0.063 A 
HETATM    5  N   UNL     1      43.586  -9.856  12.958  1.00  0.00    -0.277 N 
HETATM    6  H   UNL     1      44.226  -9.398  13.598  1.00  0.00     0.189 HD
HETATM    7  N   UNL     1      42.292  -9.946  13.309  1.00  0.00    -0.168 NA
HETATM    8  C   UNL     1      41.723 -10.602  12.271  1.00  0.00     0.156 A 
HETATM    9  C   UNL     1      45.089 -10.533  11.052  1.00  0.00     0.034 A 
HETATM   10  C   UNL     1      45.048 -11.185   9.810  1.00  0.00     0.026 A 
ENDROOT
BRANCH   1  11
HETATM   11  N   UNL     1      43.809 -12.400   8.057  1.00  0.00    -0.289 NA
HETATM   12  H   UNL     1      43.622 -11.792   7.261  1.00  0.00     0.128 HD
BRANCH  11  13
HETATM   13  C   UNL     1      44.843 -13.381   7.771  1.00  0.00     0.131 C 
BRANCH  13  14
HETATM   14  C   UNL     1      44.324 -14.389   6.771  1.00  0.00    -0.043 A 
HETATM   15  C   UNL     1      44.335 -15.760   7.057  1.00  0.00     0.035 A 
HETATM   16  C   UNL     1      43.820 -16.680   6.138  1.00  0.00     0.068 A 
HETATM   17  C   UNL     1      43.276 -16.247   4.920  1.00  0.00     0.090 A 
HETATM   18 CL   UNL     1      43.847 -18.355   6.566  1.00  0.00    -0.081 Cl
HETATM   19  C   UNL     1      43.300 -14.882   4.616  1.00  0.00     0.039 A 
HETATM   20  C   UNL     1      43.816 -13.963   5.536  1.00  0.00     0.011 A 
BRANCH  17  21
HETATM   21  O   UNL     1      42.781 -17.202   4.070  1.00  0.00    -0.346 OA
BRANCH  21  22
HETATM   22  C   UNL     1      43.585 -17.497   2.928  1.00  0.00     0.202 C 
BRANCH  22  23
HETATM   23  C   UNL     1      43.856 -18.971   2.940  1.00  0.00    -0.011 C 
HETATM   24  C   UNL     1      43.385 -19.845   2.040  1.00  0.00     0.009 C 
ENDBRANCH  22  23
ENDBRANCH  21  22
ENDBRANCH  17  21
ENDBRANCH  13  14
ENDBRANCH  11  13
ENDBRANCH   1  11
BRANCH   8  25
HETATM   25  C   UNL     1      40.286 -10.911  12.258  1.00  0.00     0.270 C 
HETATM   26  N   UNL     1      39.983 -12.174  12.687  1.00  0.00    -0.365 N 
HETATM   27  H   UNL     1      40.740 -12.783  12.974  1.00  0.00     0.159 HD
HETATM   28  H   UNL     1      39.022 -12.476  12.718  1.00  0.00     0.159 HD
HETATM   29  O   UNL     1      39.409 -10.130  11.905  1.00  0.00    -0.266 OA
ENDBRANCH   8  25
TORSDOF 7
ENDMDL
MODEL 7
REMARK VINA RESULT:      -7.2      3.545      8.610
REMARK  7 active torsions:
REMARK  status: ('A' for Active; 'I' for Inactive)
REMARK    1  A    between atoms: C_2  and  C_3 
REMARK    2  A    between atoms: C_3  and  O_4 
REMARK    3  A    between atoms: O_4  and  C_5 
REMARK    4  A    between atoms: C_9  and  C_10 
REMARK    5  A    between atoms: C_10  and  N_11 
REMARK    6  A    between atoms: N_11  and  C_12 
REMARK    7  A    between atoms: C_19  and  C_20 
REMARK       I    between atoms: C_20  and  N_21 
ROOT
HETATM    1  C   UNL     1      41.663 -17.381   3.382  1.00  0.00     0.009 A 
HETATM    2  C   UNL     1      42.198 -17.956   4.550  1.00  0.00     0.039 A 
HETATM    3  C   UNL     1      43.259 -18.884   4.472  1.00  0.00     0.030 A 
HETATM    4  C   UNL     1      43.738 -19.243   3.221  1.00  0.00     0.063 A 
HETATM    5  N   UNL     1      44.736 -20.144   3.459  1.00  0.00    -0.277 N 
HETATM    6  H   UNL     1      45.308 -20.623   2.771  1.00  0.00     0.189 HD
HETATM    7  N   UNL     1      44.954 -20.404   4.759  1.00  0.00    -0.168 NA
HETATM    8  C   UNL     1      44.045 -19.631   5.398  1.00  0.00     0.156 A 
HETATM    9  C   UNL     1      43.214 -18.731   2.033  1.00  0.00     0.034 A 
HETATM   10  C   UNL     1      42.162 -17.808   2.144  1.00  0.00     0.026 A 
ENDROOT
BRANCH   1  11
HETATM   11  N   UNL     1      40.565 -16.520   3.513  1.00  0.00    -0.289 NA
HETATM   12  H   UNL     1      39.990 -16.762   4.319  1.00  0.00     0.128 HD
BRANCH  11  13
HETATM   13  C   UNL     1      40.766 -15.084   3.393  1.00  0.00     0.131 C 
BRANCH  13  14
HETATM   14  C   UNL     1      40.309 -14.621   2.028  1.00  0.00    -0.043 A 
HETATM   15  C   UNL     1      41.235 -14.242   1.049  1.00  0.00     0.035 A 
HETATM   16  C   UNL     1      40.801 -13.848  -0.221  1.00  0.00     0.068 A 
HETATM   17  C   UNL     1      39.435 -13.833  -0.539  1.00  0.00     0.090 A 
HETATM   18 CL   UNL     1      42.002 -13.414  -1.389  1.00  0.00    -0.081 Cl
HETATM   19  C   UNL     1      38.508 -14.172   0.451  1.00  0.00     0.039 A 
HETATM   20  C   UNL     1      38.943 -14.567   1.721  1.00  0.00     0.011 A 
BRANCH  17  21
HETATM   21  O   UNL     1      39.082 -13.444  -1.805  1.00  0.00    -0.346 OA
BRANCH  21  22
HETATM   22  C   UNL     1      38.326 -14.390  -2.559  1.00  0.00     0.202 C 
BRANCH  22  23
HETATM   23  C   UNL     1      39.289 -15.141  -3.430  1.00  0.00    -0.011 C 
HETATM   24  C   UNL     1      38.956 -16.140  -4.257  1.00  0.00     0.009 C 
ENDBRANCH  22  23
ENDBRANCH  21  22
ENDBRANCH  17  21
ENDBRANCH  13  14
ENDBRANCH  11  13
ENDBRANCH   1  11
BRANCH   8  25
HETATM   25  C   UNL     1      43.947 -19.619   6.864  1.00  0.00     0.270 C 
HETATM   26  N   UNL     1      44.339 -18.442   7.440  1.00  0.00    -0.365 N 
HETATM   27  H   UNL     1      44.654 -17.690   6.839  1.00  0.00     0.159 HD
HETATM   28  H   UNL     1      44.302 -18.337   8.441  1.00  0.00     0.159 HD
HETATM   29  O   UNL     1      43.550 -20.560   7.544  1.00  0.00    -0.266 OA
ENDBRANCH   8  25
TORSDOF 7
ENDMDL
MODEL 8
REMARK VINA RESULT:      -7.2      1.745      2.560
REMARK  7 active torsions:
REMARK  status: ('A' for Active; 'I' for Inactive)
REMARK    1  A    between atoms: C_2  and  C_3 
REMARK    2  A    between atoms: C_3  and  O_4 
REMARK    3  A    between atoms: O_4  and  C_5 
REMARK    4  A    between atoms: C_9  and  C_10 
REMARK    5  A    between atoms: C_10  and  N_11 
REMARK    6  A    between atoms: N_11  and  C_12 
REMARK    7  A    between atoms: C_19  and  C_20 
REMARK       I    between atoms: C_20  and  N_21 
ROOT
HETATM    1  C   UNL     1      39.913 -15.201   1.109  1.00  0.00     0.009 A 
HETATM    2  C   UNL     1      40.549 -14.982  -0.128  1.00  0.00     0.039 A 
HETATM    3  C   UNL     1      40.359 -13.771  -0.827  1.00  0.00     0.030 A 
HETATM    4  C   UNL     1      39.507 -12.818  -0.289  1.00  0.00     0.063 A 
HETATM    5  N   UNL     1      39.516 -11.779  -1.175  1.00  0.00    -0.277 N 
HETATM    6  H   UNL     1      39.000 -10.909  -1.107  1.00  0.00     0.189 HD
HETATM    7  N   UNL     1      40.305 -11.969  -2.247  1.00  0.00    -0.168 NA
HETATM    8  C   UNL     1      40.831 -13.199  -2.045  1.00  0.00     0.156 A 
HETATM    9  C   UNL     1      38.823 -13.006   0.914  1.00  0.00     0.034 A 
HETATM   10  C   UNL     1      39.036 -14.219   1.587  1.00  0.00     0.026 A 
ENDROOT
BRANCH   1  11
HETATM   11  N   UNL     1      40.081 -16.449   1.725  1.00  0.00    -0.289 NA
HETATM   12  H   UNL     1      39.189 -16.919   1.873  1.00  0.00     0.128 HD
BRANCH  11  13
HETATM   13  C   UNL     1      41.106 -17.356   1.233  1.00  0.00     0.131 C 
BRANCH  13  14
HETATM   14  C   UNL     1      41.902 -17.902   2.397  1.00  0.00    -0.043 A 
HETATM   15  C   UNL     1      42.936 -18.825   2.193  1.00  0.00     0.035 A 
HETATM   16  C   UNL     1      43.687 -19.297   3.274  1.00  0.00     0.068 A 
HETATM   17  C   UNL     1      43.425 -18.850   4.578  1.00  0.00     0.090 A 
HETATM   18 CL   UNL     1      44.963 -20.418   2.947  1.00  0.00    -0.081 Cl
HETATM   19  C   UNL     1      42.367 -17.960   4.787  1.00  0.00     0.039 A 
HETATM   20  C   UNL     1      41.616 -17.488   3.705  1.00  0.00     0.011 A 
BRANCH  17  21
HETATM   21  O   UNL     1      44.205 -19.348   5.588  1.00  0.00    -0.346 OA
BRANCH  21  22
HETATM   22  C   UNL     1      44.905 -18.380   6.370  1.00  0.00     0.202 C 
BRANCH  22  23
HETATM   23  C   UNL     1      44.315 -18.407   7.748  1.00  0.00    -0.011 C 
HETATM   24  C   UNL     1      43.501 -17.470   8.251  1.00  0.00     0.009 C 
ENDBRANCH  22  23
ENDBRANCH  21  22
ENDBRANCH  17  21
ENDBRANCH  13  14
ENDBRANCH  11  13
ENDBRANCH   1  11
BRANCH   8  25
HETATM   25  C   UNL     1      41.767 -13.797  -3.007  1.00  0.00     0.270 C 
HETATM   26  N   UNL     1      43.028 -13.268  -2.961  1.00  0.00    -0.365 N 
HETATM   27  H   UNL     1      43.221 -12.532  -2.293  1.00  0.00     0.159 HD
HETATM   28  H   UNL     1      43.741 -13.619  -3.581  1.00  0.00     0.159 HD
HETATM   29  O   UNL     1      41.481 -14.695  -3.793  1.00  0.00    -0.266 OA
ENDBRANCH   8  25
TORSDOF 7
ENDMDL
MODEL 9
REMARK VINA RESULT:      -7.2      3.722      7.883
REMARK  7 active torsions:
REMARK  status: ('A' for Active; 'I' for Inactive)
REMARK    1  A    between atoms: C_2  and  C_3 
REMARK    2  A    between atoms: C_3  and  O_4 
REMARK    3  A    between atoms: O_4  and  C_5 
REMARK    4  A    between atoms: C_9  and  C_10 
REMARK    5  A    between atoms: C_10  and  N_11 
REMARK    6  A    between atoms: N_11  and  C_12 
REMARK    7  A    between atoms: C_19  and  C_20 
REMARK       I    between atoms: C_20  and  N_21 
ROOT
HETATM    1  C   UNL     1      41.375 -16.862   5.464  1.00  0.00     0.009 A 
HETATM    2  C   UNL     1      42.015 -17.579   4.435  1.00  0.00     0.039 A 
HETATM    3  C   UNL     1      43.056 -18.485   4.730  1.00  0.00     0.030 A 
HETATM    4  C   UNL     1      43.459 -18.627   6.050  1.00  0.00     0.063 A 
HETATM    5  N   UNL     1      44.469 -19.547   6.024  1.00  0.00    -0.277 N 
HETATM    6  H   UNL     1      45.005 -19.892   6.812  1.00  0.00     0.189 HD
HETATM    7  N   UNL     1      44.759 -20.021   4.800  1.00  0.00    -0.168 NA
HETATM    8  C   UNL     1      43.893 -19.370   3.990  1.00  0.00     0.156 A 
HETATM    9  C   UNL     1      42.883 -17.910   7.100  1.00  0.00     0.034 A 
HETATM   10  C   UNL     1      41.848 -17.020   6.774  1.00  0.00     0.026 A 
ENDROOT
BRANCH   1  11
HETATM   11  N   UNL     1      40.397 -15.925   5.107  1.00  0.00    -0.289 NA
HETATM   12  H   UNL     1      39.684 -15.831   5.829  1.00  0.00     0.128 HD
BRANCH  11  13
HETATM   13  C   UNL     1      40.805 -14.637   4.567  1.00  0.00     0.131 C 
BRANCH  13  14
HETATM   14  C   UNL     1      40.580 -14.620   3.072  1.00  0.00    -0.043 A 
HETATM   15  C   UNL     1      39.294 -14.463   2.539  1.00  0.00     0.035 A 
HETATM   16  C   UNL     1      39.104 -14.414   1.154  1.00  0.00     0.068 A 
HETATM   17  C   UNL     1      40.194 -14.512   0.277  1.00  0.00     0.090 A 
HETATM   18 CL   UNL     1      37.492 -14.197   0.566  1.00  0.00    -0.081 Cl
HETATM   19  C   UNL     1      41.473 -14.708   0.807  1.00  0.00     0.039 A 
HETATM   20  C   UNL     1      41.662 -14.757   2.193  1.00  0.00     0.011 A 
BRANCH  17  21
HETATM   21  O   UNL     1      39.934 -14.447  -1.067  1.00  0.00    -0.346 OA
BRANCH  21  22
HETATM   22  C   UNL     1      41.056 -14.640  -1.928  1.00  0.00     0.202 C 
BRANCH  22  23
HETATM   23  C   UNL     1      40.700 -15.735  -2.889  1.00  0.00    -0.011 C 
HETATM   24  C   UNL     1      39.587 -15.769  -3.634  1.00  0.00     0.009 C 
ENDBRANCH  22  23
ENDBRANCH  21  22
ENDBRANCH  17  21
ENDBRANCH  13  14
ENDBRANCH  11  13
ENDBRANCH   1  11
BRANCH   8  25
HETATM   25  C   UNL     1      43.879 -19.606   2.540  1.00  0.00     0.270 C 
HETATM   26  N   UNL     1      44.091 -18.481   1.790  1.00  0.00    -0.365 N 
HETATM   27  H   UNL     1      44.239 -17.601   2.268  1.00  0.00     0.159 HD
HETATM   28  H   UNL     1      44.105 -18.544   0.784  1.00  0.00     0.159 HD
HETATM   29  O   UNL     1      43.701 -20.699   2.012  1.00  0.00    -0.266 OA
ENDBRANCH   8  25
TORSDOF 7
ENDMDL
MODEL 10
REMARK VINA RESULT:      -7.1      2.120      2.429
REMARK  7 active torsions:
REMARK  status: ('A' for Active; 'I' for Inactive)
REMARK    1  A    between atoms: C_2  and  C_3 
REMARK    2  A    between atoms: C_3  and  O_4 
REMARK    3  A    between atoms: O_4  and  C_5 
REMARK    4  A    between atoms: C_9  and  C_10 
REMARK    5  A    between atoms: C_10  and  N_11 
REMARK    6  A    between atoms: N_11  and  C_12 
REMARK    7  A    between atoms: C_19  and  C_20 
REMARK       I    between atoms: C_20  and  N_21 
ROOT
HETATM    1  C   UNL     1      41.458 -13.004   1.349  1.00  0.00     0.009 A 
HETATM    2  C   UNL     1      41.597 -13.423   0.012  1.00  0.00     0.039 A 
HETATM    3  C   UNL     1      40.462 -13.761  -0.755  1.00  0.00     0.030 A 
HETATM    4  C   UNL     1      39.213 -13.708  -0.155  1.00  0.00     0.063 A 
HETATM    5  N   UNL     1      38.327 -14.091  -1.122  1.00  0.00    -0.277 N 
HETATM    6  H   UNL     1      37.320 -14.173  -1.034  1.00  0.00     0.189 HD
HETATM    7  N   UNL     1      38.890 -14.388  -2.306  1.00  0.00    -0.168 NA
HETATM    8  C   UNL     1      40.211 -14.190  -2.092  1.00  0.00     0.156 A 
HETATM    9  C   UNL     1      39.028 -13.337   1.179  1.00  0.00     0.034 A 
HETATM   10  C   UNL     1      40.176 -13.003   1.913  1.00  0.00     0.026 A 
ENDROOT
BRANCH   1  11
HETATM   11  N   UNL     1      42.623 -12.748   2.085  1.00  0.00    -0.289 NA
HETATM   12  H   UNL     1      42.895 -11.767   2.029  1.00  0.00     0.128 HD
BRANCH  11  13
HETATM   13  C   UNL     1      42.746 -13.277   3.434  1.00  0.00     0.131 C 
BRANCH  13  14
HETATM   14  C   UNL     1      42.803 -14.787   3.383  1.00  0.00    -0.043 A 
HETATM   15  C   UNL     1      41.996 -15.567   4.221  1.00  0.00     0.035 A 
HETATM   16  C   UNL     1      42.033 -16.963   4.141  1.00  0.00     0.068 A 
HETATM   17  C   UNL     1      42.869 -17.605   3.216  1.00  0.00     0.090 A 
HETATM   18 CL   UNL     1      40.994 -17.863   5.191  1.00  0.00    -0.081 Cl
HETATM   19  C   UNL     1      43.704 -16.829   2.406  1.00  0.00     0.039 A 
HETATM   20  C   UNL     1      43.666 -15.432   2.488  1.00  0.00     0.011 A 
BRANCH  17  21
HETATM   21  O   UNL     1      42.848 -18.975   3.186  1.00  0.00    -0.346 OA
BRANCH  21  22
HETATM   22  C   UNL     1      43.528 -19.585   2.089  1.00  0.00     0.202 C 
BRANCH  22  23
HETATM   23  C   UNL     1      44.685 -20.356   2.653  1.00  0.00    -0.011 C 
HETATM   24  C   UNL     1      44.727 -20.885   3.883  1.00  0.00     0.009 C 
ENDBRANCH  22  23
ENDBRANCH  21  22
ENDBRANCH  17  21
ENDBRANCH  13  14
ENDBRANCH  11  13
ENDBRANCH   1  11
BRANCH   8  25
HETATM   25  C   UNL     1      41.199 -14.408  -3.158  1.00  0.00     0.270 C 
HETATM   26  N   UNL     1      41.752 -13.258  -3.651  1.00  0.00    -0.365 N 
HETATM   27  H   UNL     1      41.454 -12.372  -3.261  1.00  0.00     0.159 HD
HETATM   28  H   UNL     1      42.444 -13.307  -4.382  1.00  0.00     0.159 HD
HETATM   29  O   UNL     1      41.527 -15.509  -3.589  1.00  0.00    -0.266 OA
ENDBRANCH   8  25
TORSDOF 7
ENDMDL
