MODEL 1
REMARK VINA RESULT:      -7.9      0.000      0.000
REMARK  1 active torsions:
REMARK  status: ('A' for Active; 'I' for Inactive)
REMARK    1  A    between atoms: C_8  and  C_9 
ROOT
HETATM    1  C   UNL     1      43.735 -13.865   5.901  1.00  0.00     0.073 C 
HETATM    2  C   UNL     1      42.520 -13.092   5.527  1.00  0.00     0.062 A 
HETATM    3  N   UNL     1      42.111 -12.095   6.315  1.00  0.00    -0.178 NA
HETATM    4  N   UNL     1      41.053 -11.596   5.675  1.00  0.00    -0.262 N 
HETATM    5  H   UNL     1      40.585 -10.798   6.087  1.00  0.00     0.191 HD
HETATM    6  C   UNL     1      40.714 -12.266   4.528  1.00  0.00     0.134 A 
HETATM    7  C   UNL     1      41.671 -13.258   4.375  1.00  0.00     0.032 A 
HETATM    8  C   UNL     1      41.940 -14.230   3.262  1.00  0.00     0.120 C 
HETATM    9  S   UNL     1      41.002 -14.001   1.732  1.00  0.00    -0.141 SA
HETATM   10  C   UNL     1      39.316 -13.885   2.395  1.00  0.00     0.136 C 
HETATM   11  C   UNL     1      38.352 -14.406   1.327  1.00  0.00     0.031 C 
HETATM   12  C   UNL     1      38.986 -12.446   2.768  1.00  0.00     0.236 C 
HETATM   13  O   UNL     1      38.071 -11.817   2.225  1.00  0.00    -0.272 OA
HETATM   14  N   UNL     1      39.625 -11.831   3.806  1.00  0.00    -0.311 N 
HETATM   15  H   UNL     1      39.206 -10.935   4.033  1.00  0.00     0.170 HD
ENDROOT
BRANCH   8  16
HETATM   16  C   UNL     1      41.893 -15.662   3.805  1.00  0.00    -0.029 A 
HETATM   17  C   UNL     1      42.661 -16.710   3.189  1.00  0.00    -0.018 A 
HETATM   18  C   UNL     1      42.632 -18.009   3.762  1.00  0.00    -0.025 A 
HETATM   19  C   UNL     1      43.472 -16.546   2.035  1.00  0.00     0.013 A 
HETATM   20  C   UNL     1      43.401 -19.050   3.215  1.00  0.00     0.012 A 
HETATM   21  C   UNL     1      41.836 -18.269   4.884  1.00  0.00     0.012 A 
HETATM   22  C   UNL     1      44.203 -18.842   2.097  1.00  0.00     0.001 A 
HETATM   23  C   UNL     1      44.233 -17.591   1.503  1.00  0.00     0.001 A 
HETATM   24  C   UNL     1      41.069 -17.265   5.461  1.00  0.00     0.002 A 
HETATM   25  C   UNL     1      41.101 -15.981   4.931  1.00  0.00     0.009 A 
ENDBRANCH   8  16
TORSDOF 1
ENDMDL
MODEL 2
REMARK VINA RESULT:      -7.9      4.778      7.062
REMARK  1 active torsions:
REMARK  status: ('A' for Active; 'I' for Inactive)
REMARK    1  A    between atoms: C_8  and  C_9 
ROOT
HETATM    1  C   UNL     1      43.279 -16.342   2.095  1.00  0.00     0.073 C 
HETATM    2  C   UNL     1      43.619 -17.769   2.345  1.00  0.00     0.062 A 
HETATM    3  N   UNL     1      43.665 -18.620   1.318  1.00  0.00    -0.178 NA
HETATM    4  N   UNL     1      44.038 -19.772   1.875  1.00  0.00    -0.262 N 
HETATM    5  H   UNL     1      44.162 -20.573   1.266  1.00  0.00     0.191 HD
HETATM    6  C   UNL     1      44.179 -19.726   3.238  1.00  0.00     0.134 A 
HETATM    7  C   UNL     1      43.931 -18.411   3.597  1.00  0.00     0.032 A 
HETATM    8  C   UNL     1      44.059 -17.687   4.907  1.00  0.00     0.120 C 
HETATM    9  S   UNL     1      44.850 -18.584   6.264  1.00  0.00    -0.141 SA
HETATM   10  C   UNL     1      43.915 -20.140   6.218  1.00  0.00     0.136 C 
HETATM   11  C   UNL     1      43.888 -20.715   7.635  1.00  0.00     0.031 C 
HETATM   12  C   UNL     1      44.555 -21.121   5.245  1.00  0.00     0.236 C 
HETATM   13  O   UNL     1      45.007 -22.211   5.610  1.00  0.00    -0.272 OA
HETATM   14  N   UNL     1      44.550 -20.873   3.902  1.00  0.00    -0.311 N 
HETATM   15  H   UNL     1      44.877 -21.672   3.368  1.00  0.00     0.170 HD
ENDROOT
BRANCH   8  16
HETATM   16  C   UNL     1      42.711 -17.062   5.285  1.00  0.00    -0.029 A 
HETATM   17  C   UNL     1      42.588 -15.645   5.494  1.00  0.00    -0.018 A 
HETATM   18  C   UNL     1      41.308 -15.103   5.786  1.00  0.00    -0.025 A 
HETATM   19  C   UNL     1      43.664 -14.721   5.422  1.00  0.00     0.013 A 
HETATM   20  C   UNL     1      41.138 -13.719   5.955  1.00  0.00     0.012 A 
HETATM   21  C   UNL     1      40.195 -15.945   5.905  1.00  0.00     0.012 A 
HETATM   22  C   UNL     1      42.215 -12.844   5.852  1.00  0.00     0.001 A 
HETATM   23  C   UNL     1      43.480 -13.346   5.593  1.00  0.00     0.001 A 
HETATM   24  C   UNL     1      40.319 -17.317   5.734  1.00  0.00     0.002 A 
HETATM   25  C   UNL     1      41.557 -17.866   5.425  1.00  0.00     0.009 A 
ENDBRANCH   8  16
TORSDOF 1
ENDMDL
MODEL 3
REMARK VINA RESULT:      -7.8      2.117      2.725
REMARK  1 active torsions:
REMARK  status: ('A' for Active; 'I' for Inactive)
REMARK    1  A    between atoms: C_8  and  C_9 
ROOT
HETATM    1  C   UNL     1      45.140 -15.337   6.571  1.00  0.00     0.073 C 
HETATM    2  C   UNL     1      44.353 -14.157   7.021  1.00  0.00     0.062 A 
HETATM    3  N   UNL     1      44.637 -13.591   8.196  1.00  0.00    -0.178 NA
HETATM    4  N   UNL     1      43.798 -12.557   8.263  1.00  0.00    -0.262 N 
HETATM    5  H   UNL     1      43.852 -11.957   9.078  1.00  0.00     0.191 HD
HETATM    6  C   UNL     1      42.931 -12.458   7.206  1.00  0.00     0.134 A 
HETATM    7  C   UNL     1      43.272 -13.487   6.342  1.00  0.00     0.032 A 
HETATM    8  C   UNL     1      42.801 -13.835   4.959  1.00  0.00     0.120 C 
HETATM    9  S   UNL     1      41.732 -12.632   4.133  1.00  0.00    -0.141 SA
HETATM   10  C   UNL     1      40.491 -12.352   5.428  1.00  0.00     0.136 C 
HETATM   11  C   UNL     1      39.173 -11.981   4.745  1.00  0.00     0.031 C 
HETATM   12  C   UNL     1      40.944 -11.245   6.372  1.00  0.00     0.236 C 
HETATM   13  O   UNL     1      40.309 -10.193   6.507  1.00  0.00    -0.272 OA
HETATM   14  N   UNL     1      42.018 -11.428   7.195  1.00  0.00    -0.311 N 
HETATM   15  H   UNL     1      42.114 -10.672   7.866  1.00  0.00     0.170 HD
ENDROOT
BRANCH   8  16
HETATM   16  C   UNL     1      42.246 -15.263   4.947  1.00  0.00    -0.029 A 
HETATM   17  C   UNL     1      42.655 -16.204   3.940  1.00  0.00    -0.018 A 
HETATM   18  C   UNL     1      42.159 -17.534   4.001  1.00  0.00    -0.025 A 
HETATM   19  C   UNL     1      43.541 -15.909   2.870  1.00  0.00     0.013 A 
HETATM   20  C   UNL     1      42.568 -18.495   3.061  1.00  0.00     0.012 A 
HETATM   21  C   UNL     1      41.258 -17.905   5.005  1.00  0.00     0.012 A 
HETATM   22  C   UNL     1      43.458 -18.171   2.041  1.00  0.00     0.001 A 
HETATM   23  C   UNL     1      43.939 -16.876   1.942  1.00  0.00     0.001 A 
HETATM   24  C   UNL     1      40.838 -16.989   5.960  1.00  0.00     0.002 A 
HETATM   25  C   UNL     1      41.328 -15.689   5.933  1.00  0.00     0.009 A 
ENDBRANCH   8  16
TORSDOF 1
ENDMDL
MODEL 4
REMARK VINA RESULT:      -7.7      2.399      4.358
REMARK  1 active torsions:
REMARK  status: ('A' for Active; 'I' for Inactive)
REMARK    1  A    between atoms: C_8  and  C_9 
ROOT
HETATM    1  C   UNL     1      39.970 -17.017   2.115  1.00  0.00     0.073 C 
HETATM    2  C   UNL     1      40.277 -15.713   2.761  1.00  0.00     0.062 A 
HETATM    3  N   UNL     1      39.725 -14.597   2.278  1.00  0.00    -0.178 NA
HETATM    4  N   UNL     1      40.161 -13.643   3.101  1.00  0.00    -0.262 N 
HETATM    5  H   UNL     1      39.843 -12.695   2.936  1.00  0.00     0.191 HD
HETATM    6  C   UNL     1      41.027 -14.080   4.070  1.00  0.00     0.134 A 
HETATM    7  C   UNL     1      41.122 -15.452   3.899  1.00  0.00     0.032 A 
HETATM    8  C   UNL     1      41.793 -16.521   4.714  1.00  0.00     0.120 C 
HETATM    9  S   UNL     1      42.461 -16.027   6.320  1.00  0.00    -0.141 SA
HETATM   10  C   UNL     1      43.427 -14.567   5.839  1.00  0.00     0.136 C 
HETATM   11  C   UNL     1      44.596 -14.432   6.817  1.00  0.00     0.031 C 
HETATM   12  C   UNL     1      42.555 -13.318   5.859  1.00  0.00     0.236 C 
HETATM   13  O   UNL     1      42.787 -12.364   6.610  1.00  0.00    -0.272 OA
HETATM   14  N   UNL     1      41.541 -13.162   4.958  1.00  0.00    -0.311 N 
HETATM   15  H   UNL     1      41.143 -12.229   4.993  1.00  0.00     0.170 HD
ENDROOT
BRANCH   8  16
HETATM   16  C   UNL     1      42.793 -17.284   3.838  1.00  0.00    -0.029 A 
HETATM   17  C   UNL     1      43.421 -18.487   4.314  1.00  0.00    -0.018 A 
HETATM   18  C   UNL     1      44.297 -19.193   3.447  1.00  0.00    -0.025 A 
HETATM   19  C   UNL     1      43.224 -19.045   5.605  1.00  0.00     0.013 A 
HETATM   20  C   UNL     1      44.897 -20.395   3.859  1.00  0.00     0.012 A 
HETATM   21  C   UNL     1      44.572 -18.699   2.166  1.00  0.00     0.012 A 
HETATM   22  C   UNL     1      44.659 -20.922   5.124  1.00  0.00     0.001 A 
HETATM   23  C   UNL     1      43.828 -20.243   6.000  1.00  0.00     0.001 A 
HETATM   24  C   UNL     1      43.991 -17.521   1.717  1.00  0.00     0.002 A 
HETATM   25  C   UNL     1      43.112 -16.827   2.540  1.00  0.00     0.009 A 
ENDBRANCH   8  16
TORSDOF 1
ENDMDL
MODEL 5
REMARK VINA RESULT:      -7.7      2.322      3.656
REMARK  1 active torsions:
REMARK  status: ('A' for Active; 'I' for Inactive)
REMARK    1  A    between atoms: C_8  and  C_9 
ROOT
HETATM    1  C   UNL     1      43.194 -14.897   2.337  1.00  0.00     0.073 C 
HETATM    2  C   UNL     1      42.407 -13.651   2.540  1.00  0.00     0.062 A 
HETATM    3  N   UNL     1      42.490 -12.670   1.638  1.00  0.00    -0.178 NA
HETATM    4  N   UNL     1      41.641 -11.747   2.090  1.00  0.00    -0.262 N 
HETATM    5  H   UNL     1      41.522 -10.905   1.540  1.00  0.00     0.191 HD
HETATM    6  C   UNL     1      41.049 -12.057   3.287  1.00  0.00     0.134 A 
HETATM    7  C   UNL     1      41.510 -13.322   3.619  1.00  0.00     0.032 A 
HETATM    8  C   UNL     1      41.137 -14.269   4.724  1.00  0.00     0.120 C 
HETATM    9  S   UNL     1      39.704 -13.823   5.733  1.00  0.00    -0.141 SA
HETATM   10  C   UNL     1      40.124 -12.110   6.162  1.00  0.00     0.136 C 
HETATM   11  C   UNL     1      39.491 -11.794   7.519  1.00  0.00     0.031 C 
HETATM   12  C   UNL     1      39.621 -11.151   5.091  1.00  0.00     0.236 C 
HETATM   13  O   UNL     1      38.785 -10.273   5.333  1.00  0.00    -0.272 OA
HETATM   14  N   UNL     1      40.166 -11.157   3.839  1.00  0.00    -0.311 N 
HETATM   15  H   UNL     1      39.839 -10.376   3.280  1.00  0.00     0.170 HD
ENDROOT
BRANCH   8  16
HETATM   16  C   UNL     1      42.383 -14.621   5.543  1.00  0.00    -0.029 A 
HETATM   17  C   UNL     1      42.799 -15.988   5.702  1.00  0.00    -0.018 A 
HETATM   18  C   UNL     1      43.992 -16.263   6.422  1.00  0.00    -0.025 A 
HETATM   19  C   UNL     1      42.104 -17.110   5.178  1.00  0.00     0.013 A 
HETATM   20  C   UNL     1      44.455 -17.582   6.563  1.00  0.00     0.012 A 
HETATM   21  C   UNL     1      44.725 -15.220   6.998  1.00  0.00     0.012 A 
HETATM   22  C   UNL     1      43.757 -18.653   6.012  1.00  0.00     0.001 A 
HETATM   23  C   UNL     1      42.577 -18.417   5.325  1.00  0.00     0.001 A 
HETATM   24  C   UNL     1      44.308 -13.902   6.873  1.00  0.00     0.002 A 
HETATM   25  C   UNL     1      43.156 -13.607   6.153  1.00  0.00     0.009 A 
ENDBRANCH   8  16
TORSDOF 1
ENDMDL
MODEL 6
REMARK VINA RESULT:      -7.5      3.018      4.692
REMARK  1 active torsions:
REMARK  status: ('A' for Active; 'I' for Inactive)
REMARK    1  A    between atoms: C_8  and  C_9 
ROOT
HETATM    1  C   UNL     1      43.834 -18.222   3.261  1.00  0.00     0.073 C 
HETATM    2  C   UNL     1      43.206 -17.522   2.108  1.00  0.00     0.062 A 
HETATM    3  N   UNL     1      43.621 -17.800   0.869  1.00  0.00    -0.178 NA
HETATM    4  N   UNL     1      42.833 -17.054   0.094  1.00  0.00    -0.262 N 
HETATM    5  H   UNL     1      42.956 -17.122  -0.909  1.00  0.00     0.191 HD
HETATM    6  C   UNL     1      41.958 -16.250   0.779  1.00  0.00     0.134 A 
HETATM    7  C   UNL     1      42.152 -16.539   2.120  1.00  0.00     0.032 A 
HETATM    8  C   UNL     1      41.419 -16.105   3.357  1.00  0.00     0.120 C 
HETATM    9  S   UNL     1      39.879 -15.188   3.115  1.00  0.00    -0.141 SA
HETATM   10  C   UNL     1      40.435 -13.916   1.944  1.00  0.00     0.136 C 
HETATM   11  C   UNL     1      39.574 -12.670   2.158  1.00  0.00     0.031 C 
HETATM   12  C   UNL     1      40.317 -14.420   0.512  1.00  0.00     0.236 C 
HETATM   13  O   UNL     1      39.581 -13.876  -0.320  1.00  0.00    -0.272 OA
HETATM   14  N   UNL     1      41.113 -15.434   0.062  1.00  0.00    -0.311 N 
HETATM   15  H   UNL     1      41.029 -15.565  -0.941  1.00  0.00     0.170 HD
ENDROOT
BRANCH   8  16
HETATM   16  C   UNL     1      42.395 -15.427   4.325  1.00  0.00    -0.029 A 
HETATM   17  C   UNL     1      42.665 -15.995   5.618  1.00  0.00    -0.018 A 
HETATM   18  C   UNL     1      43.620 -15.363   6.458  1.00  0.00    -0.025 A 
HETATM   19  C   UNL     1      42.048 -17.166   6.131  1.00  0.00     0.013 A 
HETATM   20  C   UNL     1      43.944 -15.910   7.712  1.00  0.00     0.012 A 
HETATM   21  C   UNL     1      44.256 -14.187   6.045  1.00  0.00     0.012 A 
HETATM   22  C   UNL     1      43.334 -17.074   8.168  1.00  0.00     0.001 A 
HETATM   23  C   UNL     1      42.380 -17.699   7.380  1.00  0.00     0.001 A 
HETATM   24  C   UNL     1      43.973 -13.620   4.810  1.00  0.00     0.002 A 
HETATM   25  C   UNL     1      43.059 -14.234   3.961  1.00  0.00     0.009 A 
ENDBRANCH   8  16
TORSDOF 1
ENDMDL
MODEL 7
REMARK VINA RESULT:      -7.3      3.360      5.908
REMARK  1 active torsions:
REMARK  status: ('A' for Active; 'I' for Inactive)
REMARK    1  A    between atoms: C_8  and  C_9 
ROOT
HETATM    1  C   UNL     1      40.285 -15.536   6.216  1.00  0.00     0.073 C 
HETATM    2  C   UNL     1      41.349 -16.546   5.967  1.00  0.00     0.062 A 
HETATM    3  N   UNL     1      42.009 -17.070   7.003  1.00  0.00    -0.178 NA
HETATM    4  N   UNL     1      42.834 -17.953   6.441  1.00  0.00    -0.262 N 
HETATM    5  H   UNL     1      43.430 -18.499   7.053  1.00  0.00     0.191 HD
HETATM    6  C   UNL     1      42.786 -17.986   5.071  1.00  0.00     0.134 A 
HETATM    7  C   UNL     1      41.799 -17.083   4.708  1.00  0.00     0.032 A 
HETATM    8  C   UNL     1      41.174 -16.759   3.381  1.00  0.00     0.120 C 
HETATM    9  S   UNL     1      41.604 -17.832   1.991  1.00  0.00    -0.141 SA
HETATM   10  C   UNL     1      43.415 -17.829   2.121  1.00  0.00     0.136 C 
HETATM   11  C   UNL     1      43.989 -18.033   0.717  1.00  0.00     0.031 C 
HETATM   12  C   UNL     1      43.885 -18.927   3.066  1.00  0.00     0.236 C 
HETATM   13  O   UNL     1      44.608 -19.856   2.689  1.00  0.00    -0.272 OA
HETATM   14  N   UNL     1      43.613 -18.860   4.402  1.00  0.00    -0.311 N 
HETATM   15  H   UNL     1      44.108 -19.574   4.926  1.00  0.00     0.170 HD
ENDROOT
BRANCH   8  16
HETATM   16  C   UNL     1      41.343 -15.265   3.082  1.00  0.00    -0.029 A 
HETATM   17  C   UNL     1      40.310 -14.527   2.407  1.00  0.00    -0.018 A 
HETATM   18  C   UNL     1      40.485 -13.132   2.202  1.00  0.00    -0.025 A 
HETATM   19  C   UNL     1      39.098 -15.089   1.926  1.00  0.00     0.013 A 
HETATM   20  C   UNL     1      39.482 -12.368   1.584  1.00  0.00     0.012 A 
HETATM   21  C   UNL     1      41.663 -12.500   2.618  1.00  0.00     0.012 A 
HETATM   22  C   UNL     1      38.297 -12.953   1.148  1.00  0.00     0.001 A 
HETATM   23  C   UNL     1      38.108 -14.315   1.313  1.00  0.00     0.001 A 
HETATM   24  C   UNL     1      42.675 -13.218   3.242  1.00  0.00     0.002 A 
HETATM   25  C   UNL     1      42.514 -14.579   3.473  1.00  0.00     0.009 A 
ENDBRANCH   8  16
TORSDOF 1
ENDMDL
MODEL 8
REMARK VINA RESULT:      -7.2      3.531      5.642
REMARK  1 active torsions:
REMARK  status: ('A' for Active; 'I' for Inactive)
REMARK    1  A    between atoms: C_8  and  C_9 
ROOT
HETATM    1  C   UNL     1      41.750 -16.623   0.257  1.00  0.00     0.073 C 
HETATM    2  C   UNL     1      41.256 -16.377   1.638  1.00  0.00     0.062 A 
HETATM    3  N   UNL     1      41.099 -17.409   2.470  1.00  0.00    -0.178 NA
HETATM    4  N   UNL     1      40.701 -16.842   3.610  1.00  0.00    -0.262 N 
HETATM    5  H   UNL     1      40.540 -17.447   4.407  1.00  0.00     0.191 HD
HETATM    6  C   UNL     1      40.532 -15.484   3.541  1.00  0.00     0.134 A 
HETATM    7  C   UNL     1      40.908 -15.122   2.257  1.00  0.00     0.032 A 
HETATM    8  C   UNL     1      41.081 -13.782   1.600  1.00  0.00     0.120 C 
HETATM    9  S   UNL     1      40.978 -12.329   2.671  1.00  0.00    -0.141 SA
HETATM   10  C   UNL     1      39.425 -12.673   3.546  1.00  0.00     0.136 C 
HETATM   11  C   UNL     1      38.790 -11.334   3.925  1.00  0.00     0.031 C 
HETATM   12  C   UNL     1      39.685 -13.521   4.784  1.00  0.00     0.236 C 
HETATM   13  O   UNL     1      39.428 -13.118   5.924  1.00  0.00    -0.272 OA
HETATM   14  N   UNL     1      40.111 -14.813   4.667  1.00  0.00    -0.311 N 
HETATM   15  H   UNL     1      40.102 -15.298   5.559  1.00  0.00     0.170 HD
ENDROOT
BRANCH   8  16
HETATM   16  C   UNL     1      40.187 -13.697   0.358  1.00  0.00    -0.029 A 
HETATM   17  C   UNL     1      40.744 -13.386  -0.930  1.00  0.00    -0.018 A 
HETATM   18  C   UNL     1      39.887 -13.374  -2.063  1.00  0.00    -0.025 A 
HETATM   19  C   UNL     1      42.112 -13.092  -1.170  1.00  0.00     0.013 A 
HETATM   20  C   UNL     1      40.400 -13.116  -3.346  1.00  0.00     0.012 A 
HETATM   21  C   UNL     1      38.518 -13.624  -1.916  1.00  0.00     0.012 A 
HETATM   22  C   UNL     1      41.753 -12.857  -3.542  1.00  0.00     0.001 A 
HETATM   23  C   UNL     1      42.608 -12.838  -2.452  1.00  0.00     0.001 A 
HETATM   24  C   UNL     1      37.974 -13.894  -0.667  1.00  0.00     0.002 A 
HETATM   25  C   UNL     1      38.797 -13.933   0.452  1.00  0.00     0.009 A 
ENDBRANCH   8  16
TORSDOF 1
ENDMDL
MODEL 9
REMARK VINA RESULT:      -7.1      2.879      5.772
REMARK  1 active torsions:
REMARK  status: ('A' for Active; 'I' for Inactive)
REMARK    1  A    between atoms: C_8  and  C_9 
ROOT
HETATM    1  C   UNL     1      39.671 -13.191   4.850  1.00  0.00     0.073 C 
HETATM    2  C   UNL     1      40.790 -14.142   5.086  1.00  0.00     0.062 A 
HETATM    3  N   UNL     1      41.446 -14.105   6.248  1.00  0.00    -0.178 NA
HETATM    4  N   UNL     1      42.330 -15.099   6.148  1.00  0.00    -0.262 N 
HETATM    5  H   UNL     1      42.934 -15.275   6.942  1.00  0.00     0.191 HD
HETATM    6  C   UNL     1      42.321 -15.748   4.940  1.00  0.00     0.134 A 
HETATM    7  C   UNL     1      41.301 -15.163   4.206  1.00  0.00     0.032 A 
HETATM    8  C   UNL     1      40.697 -15.508   2.874  1.00  0.00     0.120 C 
HETATM    9  S   UNL     1      41.218 -17.066   2.119  1.00  0.00    -0.141 SA
HETATM   10  C   UNL     1      43.023 -16.902   2.238  1.00  0.00     0.136 C 
HETATM   11  C   UNL     1      43.645 -17.684   1.080  1.00  0.00     0.031 C 
HETATM   12  C   UNL     1      43.521 -17.427   3.578  1.00  0.00     0.236 C 
HETATM   13  O   UNL     1      44.299 -18.384   3.663  1.00  0.00    -0.272 OA
HETATM   14  N   UNL     1      43.208 -16.781   4.740  1.00  0.00    -0.311 N 
HETATM   15  H   UNL     1      43.723 -17.154   5.531  1.00  0.00     0.170 HD
ENDROOT
BRANCH   8  16
HETATM   16  C   UNL     1      40.800 -14.302   1.934  1.00  0.00    -0.029 A 
HETATM   17  C   UNL     1      39.644 -13.812   1.235  1.00  0.00    -0.018 A 
HETATM   18  C   UNL     1      39.774 -12.657   0.418  1.00  0.00    -0.025 A 
HETATM   19  C   UNL     1      38.351 -14.395   1.302  1.00  0.00     0.013 A 
HETATM   20  C   UNL     1      38.659 -12.122  -0.248  1.00  0.00     0.012 A 
HETATM   21  C   UNL     1      41.019 -12.034   0.270  1.00  0.00     0.012 A 
HETATM   22  C   UNL     1      37.402 -12.709  -0.136  1.00  0.00     0.001 A 
HETATM   23  C   UNL     1      37.250 -13.851   0.634  1.00  0.00     0.001 A 
HETATM   24  C   UNL     1      42.143 -12.525   0.919  1.00  0.00     0.002 A 
HETATM   25  C   UNL     1      42.034 -13.640   1.742  1.00  0.00     0.009 A 
ENDBRANCH   8  16
TORSDOF 1
ENDMDL
MODEL 10
REMARK VINA RESULT:      -7.1      1.890      2.290
REMARK  1 active torsions:
REMARK  status: ('A' for Active; 'I' for Inactive)
REMARK    1  A    between atoms: C_8  and  C_9 
ROOT
HETATM    1  C   UNL     1      44.736 -14.420   6.652  1.00  0.00     0.073 C 
HETATM    2  C   UNL     1      43.473 -13.959   6.013  1.00  0.00     0.062 A 
HETATM    3  N   UNL     1      42.871 -12.860   6.474  1.00  0.00    -0.178 NA
HETATM    4  N   UNL     1      41.823 -12.708   5.665  1.00  0.00    -0.262 N 
HETATM    5  H   UNL     1      41.221 -11.906   5.816  1.00  0.00     0.191 HD
HETATM    6  C   UNL     1      41.678 -13.698   4.728  1.00  0.00     0.134 A 
HETATM    7  C   UNL     1      42.762 -14.544   4.905  1.00  0.00     0.032 A 
HETATM    8  C   UNL     1      43.253 -15.725   4.118  1.00  0.00     0.120 C 
HETATM    9  S   UNL     1      42.440 -16.048   2.535  1.00  0.00    -0.141 SA
HETATM   10  C   UNL     1      40.698 -16.008   3.046  1.00  0.00     0.136 C 
HETATM   11  C   UNL     1      39.911 -16.927   2.110  1.00  0.00     0.031 C 
HETATM   12  C   UNL     1      40.157 -14.585   2.992  1.00  0.00     0.236 C 
HETATM   13  O   UNL     1      39.224 -14.262   2.248  1.00  0.00    -0.272 OA
HETATM   14  N   UNL     1      40.615 -13.632   3.856  1.00  0.00    -0.311 N 
HETATM   15  H   UNL     1      40.068 -12.779   3.805  1.00  0.00     0.170 HD
ENDROOT
BRANCH   8  16
HETATM   16  C   UNL     1      43.336 -16.955   5.029  1.00  0.00    -0.029 A 
HETATM   17  C   UNL     1      43.789 -18.221   4.520  1.00  0.00    -0.018 A 
HETATM   18  C   UNL     1      43.904 -19.318   5.414  1.00  0.00    -0.025 A 
HETATM   19  C   UNL     1      44.146 -18.467   3.168  1.00  0.00     0.013 A 
HETATM   20  C   UNL     1      44.383 -20.561   4.965  1.00  0.00     0.012 A 
HETATM   21  C   UNL     1      43.545 -19.174   6.759  1.00  0.00     0.012 A 
HETATM   22  C   UNL     1      44.747 -20.754   3.636  1.00  0.00     0.001 A 
HETATM   23  C   UNL     1      44.621 -19.708   2.735  1.00  0.00     0.001 A 
HETATM   24  C   UNL     1      43.078 -17.960   7.246  1.00  0.00     0.002 A 
HETATM   25  C   UNL     1      42.979 -16.866   6.393  1.00  0.00     0.009 A 
ENDBRANCH   8  16
TORSDOF 1
ENDMDL
