MODEL 1
REMARK VINA RESULT:     -10.3      0.000      0.000
REMARK  7 active torsions:
REMARK  status: ('A' for Active; 'I' for Inactive)
REMARK    1  A    between atoms: N_7  and  C_8 
REMARK    2  A    between atoms: C_8  and  C_9 
REMARK       I    between atoms: C_9  and  N_10 
REMARK    3  A    between atoms: N_10  and  C_11 
REMARK    4  A    between atoms: C_11  and  C_12 
REMARK    5  A    between atoms: C_12  and  C_13 
REMARK    6  A    between atoms: C_12  and  C_23 
REMARK    7  A    between atoms: C_26  and  O_27 
ROOT
HETATM    1  C   UNL     1      44.481 -15.026   7.153  1.00  0.00     0.136 C 
ENDROOT
BRANCH   1   2
HETATM    2  N   UNL     1      43.870 -13.973   7.961  1.00  0.00    -0.359 N 
HETATM    3  C   UNL     1      44.673 -12.889   8.287  1.00  0.00     0.236 C 
HETATM    4  O   UNL     1      45.894 -12.910   8.125  1.00  0.00    -0.272 OA
HETATM    5  H   UNL     1      42.873 -13.796   7.843  1.00  0.00     0.162 HD
BRANCH   3   6
HETATM    6  C   UNL     1      43.955 -11.592   8.628  1.00  0.00     0.239 C 
BRANCH   6   7
HETATM    7  N   UNL     1      43.420 -11.512   9.966  1.00  0.00    -0.259 N 
HETATM    8  C   UNL     1      43.882 -12.253  11.010  1.00  0.00     0.326 C 
HETATM    9  N   UNL     1      43.278 -11.805  12.163  1.00  0.00    -0.324 N 
HETATM   10  O   UNL     1      44.716 -13.140  10.986  1.00  0.00    -0.247 OA
HETATM   11  C   UNL     1      42.558 -10.566  11.950  1.00  0.00     0.119 C 
HETATM   12  H   UNL     1      43.597 -12.155  13.058  1.00  0.00     0.165 HD
HETATM   13  C   UNL     1      41.160 -10.550  12.594  1.00  0.00     0.019 C 
HETATM   14  C   UNL     1      42.551 -10.554  10.405  1.00  0.00     0.257 C 
HETATM   15  C   UNL     1      43.410  -9.364  12.407  1.00  0.00     0.041 C 
HETATM   16  C   UNL     1      40.313 -11.775  12.237  1.00  0.00     0.013 C 
HETATM   17  C   UNL     1      41.259 -10.419  14.127  1.00  0.00     0.007 C 
HETATM   18  C   UNL     1      42.100  -9.217  14.552  1.00  0.00     0.001 C 
HETATM   19  C   UNL     1      43.488  -9.249  13.926  1.00  0.00     0.003 C 
HETATM   20  O   UNL     1      41.955  -9.761   9.689  1.00  0.00    -0.270 OA
ENDBRANCH   6   7
ENDBRANCH   3   6
ENDBRANCH   1   2
BRANCH   1  21
HETATM   21  C   UNL     1      43.804 -15.351   5.805  1.00  0.00     0.071 C 
BRANCH  21  22
HETATM   22  C   UNL     1      42.302 -15.123   5.872  1.00  0.00    -0.020 A 
HETATM   23  C   UNL     1      41.595 -13.910   5.560  1.00  0.00    -0.001 A 
HETATM   24  C   UNL     1      40.235 -14.147   5.771  1.00  0.00     0.042 A 
HETATM   25  C   UNL     1      41.983 -12.629   5.112  1.00  0.00     0.014 A 
HETATM   26  C   UNL     1      39.249 -13.176   5.558  1.00  0.00     0.030 A 
HETATM   27  N   UNL     1      40.110 -15.445   6.197  1.00  0.00    -0.365 N 
HETATM   28  C   UNL     1      39.662 -11.919   5.111  1.00  0.00     0.002 A 
HETATM   29  C   UNL     1      41.009 -11.647   4.890  1.00  0.00     0.001 A 
HETATM   30  H   UNL     1      39.233 -15.892   6.426  1.00  0.00     0.165 HD
HETATM   31  C   UNL     1      41.339 -16.041   6.263  1.00  0.00     0.097 A 
ENDBRANCH  21  22
BRANCH  21  32
HETATM   32  C   UNL     1      43.939 -16.779   5.288  1.00  0.00    -0.048 A 
HETATM   33  C   UNL     1      44.518 -17.753   6.120  1.00  0.00     0.011 A 
HETATM   34  C   UNL     1      44.701 -19.064   5.671  1.00  0.00     0.037 A 
HETATM   35  C   UNL     1      44.312 -19.436   4.384  1.00  0.00     0.068 A 
HETATM   36  C   UNL     1      43.733 -18.481   3.550  1.00  0.00     0.037 A 
HETATM   37  C   UNL     1      43.552 -17.165   3.996  1.00  0.00     0.011 A 
BRANCH  35  38
HETATM   38  O   UNL     1      44.557 -20.743   4.068  1.00  0.00    -0.356 OA
HETATM   39  C   UNL     1      44.417 -21.111   2.703  1.00  0.00     0.210 C 
ENDBRANCH  35  38
ENDBRANCH  21  32
ENDBRANCH   1  21
TORSDOF 7
ENDMDL
MODEL 2
REMARK VINA RESULT:      -9.9      2.687      4.551
REMARK  7 active torsions:
REMARK  status: ('A' for Active; 'I' for Inactive)
REMARK    1  A    between atoms: N_7  and  C_8 
REMARK    2  A    between atoms: C_8  and  C_9 
REMARK       I    between atoms: C_9  and  N_10 
REMARK    3  A    between atoms: N_10  and  C_11 
REMARK    4  A    between atoms: C_11  and  C_12 
REMARK    5  A    between atoms: C_12  and  C_13 
REMARK    6  A    between atoms: C_12  and  C_23 
REMARK    7  A    between atoms: C_26  and  O_27 
ROOT
HETATM    1  C   UNL     1      40.278 -13.344   5.475  1.00  0.00     0.136 C 
ENDROOT
BRANCH   1   2
HETATM    2  N   UNL     1      40.525 -11.986   5.951  1.00  0.00    -0.359 N 
HETATM    3  C   UNL     1      39.473 -11.085   5.848  1.00  0.00     0.236 C 
HETATM    4  O   UNL     1      38.470 -11.330   5.176  1.00  0.00    -0.272 OA
HETATM    5  H   UNL     1      41.171 -11.860   6.729  1.00  0.00     0.162 HD
BRANCH   3   6
HETATM    6  C   UNL     1      39.508  -9.891   6.790  1.00  0.00     0.239 C 
BRANCH   6   7
HETATM    7  N   UNL     1      40.240 -10.090   8.017  1.00  0.00    -0.259 N 
HETATM    8  C   UNL     1      39.970 -11.085   8.905  1.00  0.00     0.326 C 
HETATM    9  N   UNL     1      40.960 -11.095   9.863  1.00  0.00    -0.324 N 
HETATM   10  O   UNL     1      39.050 -11.882   8.878  1.00  0.00    -0.247 OA
HETATM   11  C   UNL     1      42.072 -10.242   9.499  1.00  0.00     0.119 C 
HETATM   12  H   UNL     1      40.992 -11.852  10.534  1.00  0.00     0.165 HD
HETATM   13  C   UNL     1      42.573  -9.359  10.656  1.00  0.00     0.019 C 
HETATM   14  C   UNL     1      41.410  -9.463   8.340  1.00  0.00     0.257 C 
HETATM   15  C   UNL     1      43.213 -11.079   8.886  1.00  0.00     0.041 C 
HETATM   16  C   UNL     1      41.453  -8.578  11.352  1.00  0.00     0.013 C 
HETATM   17  C   UNL     1      43.342 -10.196  11.697  1.00  0.00     0.007 C 
HETATM   18  C   UNL     1      44.471 -11.007  11.066  1.00  0.00     0.001 C 
HETATM   19  C   UNL     1      43.967 -11.893   9.934  1.00  0.00     0.003 C 
HETATM   20  O   UNL     1      41.890  -8.511   7.739  1.00  0.00    -0.270 OA
ENDBRANCH   6   7
ENDBRANCH   3   6
ENDBRANCH   1   2
BRANCH   1  21
HETATM   21  C   UNL     1      41.487 -14.111   4.896  1.00  0.00     0.071 C 
BRANCH  21  22
HETATM   22  C   UNL     1      41.079 -14.965   3.707  1.00  0.00    -0.020 A 
HETATM   23  C   UNL     1      41.944 -15.750   2.867  1.00  0.00    -0.001 A 
HETATM   24  C   UNL     1      41.149 -16.361   1.894  1.00  0.00     0.042 A 
HETATM   25  C   UNL     1      43.332 -16.004   2.844  1.00  0.00     0.014 A 
HETATM   26  C   UNL     1      41.667 -17.208   0.907  1.00  0.00     0.030 A 
HETATM   27  N   UNL     1      39.854 -15.968   2.122  1.00  0.00    -0.365 N 
HETATM   28  C   UNL     1      43.044 -17.444   0.910  1.00  0.00     0.002 A 
HETATM   29  C   UNL     1      43.866 -16.852   1.865  1.00  0.00     0.001 A 
HETATM   30  H   UNL     1      39.061 -16.259   1.568  1.00  0.00     0.165 HD
HETATM   31  C   UNL     1      39.798 -15.132   3.203  1.00  0.00     0.097 A 
ENDBRANCH  21  22
BRANCH  21  32
HETATM   32  C   UNL     1      42.198 -15.087   5.827  1.00  0.00    -0.048 A 
HETATM   33  C   UNL     1      41.528 -16.253   6.234  1.00  0.00     0.011 A 
HETATM   34  C   UNL     1      42.126 -17.152   7.121  1.00  0.00     0.037 A 
HETATM   35  C   UNL     1      43.405 -16.912   7.623  1.00  0.00     0.068 A 
HETATM   36  C   UNL     1      44.083 -15.761   7.224  1.00  0.00     0.037 A 
HETATM   37  C   UNL     1      43.484 -14.856   6.338  1.00  0.00     0.011 A 
BRANCH  35  38
HETATM   38  O   UNL     1      43.868 -17.864   8.488  1.00  0.00    -0.356 OA
HETATM   39  C   UNL     1      44.003 -19.184   7.979  1.00  0.00     0.210 C 
ENDBRANCH  35  38
ENDBRANCH  21  32
ENDBRANCH   1  21
TORSDOF 7
ENDMDL
MODEL 3
REMARK VINA RESULT:      -9.9      2.525      4.182
REMARK  7 active torsions:
REMARK  status: ('A' for Active; 'I' for Inactive)
REMARK    1  A    between atoms: N_7  and  C_8 
REMARK    2  A    between atoms: C_8  and  C_9 
REMARK       I    between atoms: C_9  and  N_10 
REMARK    3  A    between atoms: N_10  and  C_11 
REMARK    4  A    between atoms: C_11  and  C_12 
REMARK    5  A    between atoms: C_12  and  C_13 
REMARK    6  A    between atoms: C_12  and  C_23 
REMARK    7  A    between atoms: C_26  and  O_27 
ROOT
HETATM    1  C   UNL     1      39.896 -13.636   5.540  1.00  0.00     0.136 C 
ENDROOT
BRANCH   1   2
HETATM    2  N   UNL     1      40.029 -12.937   6.816  1.00  0.00    -0.359 N 
HETATM    3  C   UNL     1      40.048 -11.550   6.771  1.00  0.00     0.236 C 
HETATM    4  O   UNL     1      40.194 -10.935   5.714  1.00  0.00    -0.272 OA
HETATM    5  H   UNL     1      39.624 -13.371   7.645  1.00  0.00     0.162 HD
BRANCH   3   6
HETATM    6  C   UNL     1      39.644 -10.824   8.046  1.00  0.00     0.239 C 
BRANCH   6   7
HETATM    7  N   UNL     1      40.721 -10.534   8.961  1.00  0.00    -0.259 N 
HETATM    8  C   UNL     1      41.755  -9.698   8.671  1.00  0.00     0.326 C 
HETATM    9  N   UNL     1      42.497  -9.508   9.816  1.00  0.00    -0.324 N 
HETATM   10  O   UNL     1      42.001  -9.152   7.610  1.00  0.00    -0.247 OA
HETATM   11  C   UNL     1      41.827 -10.034  10.987  1.00  0.00     0.119 C 
HETATM   12  H   UNL     1      43.233  -8.813   9.820  1.00  0.00     0.165 HD
HETATM   13  C   UNL     1      42.753 -10.842  11.914  1.00  0.00     0.019 C 
HETATM   14  C   UNL     1      40.735 -10.873  10.284  1.00  0.00     0.257 C 
HETATM   15  C   UNL     1      41.106  -8.902  11.747  1.00  0.00     0.041 C 
HETATM   16  C   UNL     1      43.556 -11.920  11.178  1.00  0.00     0.013 C 
HETATM   17  C   UNL     1      43.715  -9.913  12.679  1.00  0.00     0.007 C 
HETATM   18  C   UNL     1      42.977  -8.808  13.430  1.00  0.00     0.001 C 
HETATM   19  C   UNL     1      42.076  -8.000  12.506  1.00  0.00     0.003 C 
HETATM   20  O   UNL     1      39.945 -11.635  10.826  1.00  0.00    -0.270 OA
ENDBRANCH   6   7
ENDBRANCH   3   6
ENDBRANCH   1   2
BRANCH   1  21
HETATM   21  C   UNL     1      41.183 -14.243   4.940  1.00  0.00     0.071 C 
BRANCH  21  22
HETATM   22  C   UNL     1      40.879 -15.054   3.691  1.00  0.00    -0.020 A 
HETATM   23  C   UNL     1      41.820 -15.773   2.875  1.00  0.00    -0.001 A 
HETATM   24  C   UNL     1      41.108 -16.364   1.828  1.00  0.00     0.042 A 
HETATM   25  C   UNL     1      43.215 -15.982   2.928  1.00  0.00     0.014 A 
HETATM   26  C   UNL     1      41.714 -17.149   0.840  1.00  0.00     0.030 A 
HETATM   27  N   UNL     1      39.789 -16.022   1.991  1.00  0.00    -0.365 N 
HETATM   28  C   UNL     1      43.095 -17.341   0.920  1.00  0.00     0.002 A 
HETATM   29  C   UNL     1      43.837 -16.767   1.949  1.00  0.00     0.001 A 
HETATM   30  H   UNL     1      39.042 -16.313   1.376  1.00  0.00     0.165 HD
HETATM   31  C   UNL     1      39.637 -15.239   3.101  1.00  0.00     0.097 A 
ENDBRANCH  21  22
BRANCH  21  32
HETATM   32  C   UNL     1      41.973 -15.202   5.823  1.00  0.00    -0.048 A 
HETATM   33  C   UNL     1      41.362 -16.391   6.257  1.00  0.00     0.011 A 
HETATM   34  C   UNL     1      42.034 -17.277   7.102  1.00  0.00     0.037 A 
HETATM   35  C   UNL     1      43.331 -17.001   7.535  1.00  0.00     0.068 A 
HETATM   36  C   UNL     1      43.951 -15.828   7.110  1.00  0.00     0.037 A 
HETATM   37  C   UNL     1      43.278 -14.936   6.265  1.00  0.00     0.011 A 
BRANCH  35  38
HETATM   38  O   UNL     1      43.868 -17.945   8.367  1.00  0.00    -0.356 OA
HETATM   39  C   UNL     1      43.944 -19.273   7.867  1.00  0.00     0.210 C 
ENDBRANCH  35  38
ENDBRANCH  21  32
ENDBRANCH   1  21
TORSDOF 7
ENDMDL
MODEL 4
REMARK VINA RESULT:      -9.9      2.328      4.424
REMARK  7 active torsions:
REMARK  status: ('A' for Active; 'I' for Inactive)
REMARK    1  A    between atoms: N_7  and  C_8 
REMARK    2  A    between atoms: C_8  and  C_9 
REMARK       I    between atoms: C_9  and  N_10 
REMARK    3  A    between atoms: N_10  and  C_11 
REMARK    4  A    between atoms: C_11  and  C_12 
REMARK    5  A    between atoms: C_12  and  C_13 
REMARK    6  A    between atoms: C_12  and  C_23 
REMARK    7  A    between atoms: C_26  and  O_27 
ROOT
HETATM    1  C   UNL     1      43.406 -13.932   5.893  1.00  0.00     0.136 C 
ENDROOT
BRANCH   1   2
HETATM    2  N   UNL     1      43.352 -12.960   6.982  1.00  0.00    -0.359 N 
HETATM    3  C   UNL     1      44.325 -13.067   7.966  1.00  0.00     0.236 C 
HETATM    4  O   UNL     1      45.045 -14.061   8.064  1.00  0.00    -0.272 OA
HETATM    5  H   UNL     1      43.001 -12.025   6.773  1.00  0.00     0.162 HD
BRANCH   3   6
HETATM    6  C   UNL     1      44.622 -11.807   8.767  1.00  0.00     0.239 C 
BRANCH   6   7
HETATM    7  N   UNL     1      43.784 -11.595   9.921  1.00  0.00    -0.259 N 
HETATM    8  C   UNL     1      43.877 -12.323  11.068  1.00  0.00     0.326 C 
HETATM    9  N   UNL     1      43.063 -11.747  12.017  1.00  0.00    -0.324 N 
HETATM   10  O   UNL     1      44.575 -13.298  11.279  1.00  0.00    -0.247 OA
HETATM   11  C   UNL     1      42.576 -10.450  11.597  1.00  0.00     0.119 C 
HETATM   12  H   UNL     1      43.104 -12.080  12.973  1.00  0.00     0.165 HD
HETATM   13  C   UNL     1      41.075 -10.241  11.863  1.00  0.00     0.019 C 
HETATM   14  C   UNL     1      42.957 -10.523  10.101  1.00  0.00     0.257 C 
HETATM   15  C   UNL     1      43.428  -9.327  12.225  1.00  0.00     0.041 C 
HETATM   16  C   UNL     1      40.201 -11.382  11.334  1.00  0.00     0.013 C 
HETATM   17  C   UNL     1      40.804 -10.038  13.367  1.00  0.00     0.007 C 
HETATM   18  C   UNL     1      41.652  -8.915  13.961  1.00  0.00     0.001 C 
HETATM   19  C   UNL     1      43.138  -9.136  13.710  1.00  0.00     0.003 C 
HETATM   20  O   UNL     1      42.659  -9.708   9.237  1.00  0.00    -0.270 OA
ENDBRANCH   6   7
ENDBRANCH   3   6
ENDBRANCH   1   2
BRANCH   1  21
HETATM   21  C   UNL     1      42.082 -14.628   5.514  1.00  0.00     0.071 C 
BRANCH  21  22
HETATM   22  C   UNL     1      42.303 -16.099   5.197  1.00  0.00    -0.020 A 
HETATM   23  C   UNL     1      42.901 -16.649   4.011  1.00  0.00    -0.001 A 
HETATM   24  C   UNL     1      42.892 -18.040   4.138  1.00  0.00     0.042 A 
HETATM   25  C   UNL     1      43.455 -16.095   2.837  1.00  0.00     0.014 A 
HETATM   26  C   UNL     1      43.406 -18.900   3.160  1.00  0.00     0.030 A 
HETATM   27  N   UNL     1      42.313 -18.334   5.347  1.00  0.00    -0.365 N 
HETATM   28  C   UNL     1      43.951 -18.323   2.010  1.00  0.00     0.002 A 
HETATM   29  C   UNL     1      43.977 -16.940   1.849  1.00  0.00     0.001 A 
HETATM   30  H   UNL     1      42.175 -19.269   5.704  1.00  0.00     0.165 HD
HETATM   31  C   UNL     1      41.955 -17.182   5.991  1.00  0.00     0.097 A 
ENDBRANCH  21  22
BRANCH  21  32
HETATM   32  C   UNL     1      41.343 -14.093   4.293  1.00  0.00    -0.048 A 
HETATM   33  C   UNL     1      40.151 -14.719   3.888  1.00  0.00     0.011 A 
HETATM   34  C   UNL     1      39.465 -14.289   2.750  1.00  0.00     0.037 A 
HETATM   35  C   UNL     1      39.948 -13.226   1.987  1.00  0.00     0.068 A 
HETATM   36  C   UNL     1      41.127 -12.594   2.379  1.00  0.00     0.037 A 
HETATM   37  C   UNL     1      41.819 -13.025   3.518  1.00  0.00     0.011 A 
BRANCH  35  38
HETATM   38  O   UNL     1      39.188 -12.914   0.894  1.00  0.00    -0.356 OA
HETATM   39  C   UNL     1      37.795 -13.181   0.983  1.00  0.00     0.210 C 
ENDBRANCH  35  38
ENDBRANCH  21  32
ENDBRANCH   1  21
TORSDOF 7
ENDMDL
MODEL 5
REMARK VINA RESULT:      -9.7      5.322      7.972
REMARK  7 active torsions:
REMARK  status: ('A' for Active; 'I' for Inactive)
REMARK    1  A    between atoms: N_7  and  C_8 
REMARK    2  A    between atoms: C_8  and  C_9 
REMARK       I    between atoms: C_9  and  N_10 
REMARK    3  A    between atoms: N_10  and  C_11 
REMARK    4  A    between atoms: C_11  and  C_12 
REMARK    5  A    between atoms: C_12  and  C_13 
REMARK    6  A    between atoms: C_12  and  C_23 
REMARK    7  A    between atoms: C_26  and  O_27 
ROOT
HETATM    1  C   UNL     1      41.063 -16.906   1.302  1.00  0.00     0.136 C 
ENDROOT
BRANCH   1   2
HETATM    2  N   UNL     1      40.161 -15.816   0.940  1.00  0.00    -0.359 N 
HETATM    3  C   UNL     1      40.652 -14.863   0.058  1.00  0.00     0.236 C 
HETATM    4  O   UNL     1      41.849 -14.788  -0.219  1.00  0.00    -0.272 OA
HETATM    5  H   UNL     1      39.161 -16.014   0.903  1.00  0.00     0.162 HD
BRANCH   3   6
HETATM    6  C   UNL     1      39.618 -14.073  -0.731  1.00  0.00     0.239 C 
BRANCH   6   7
HETATM    7  N   UNL     1      38.875 -13.095   0.026  1.00  0.00    -0.259 N 
HETATM    8  C   UNL     1      37.741 -13.382   0.722  1.00  0.00     0.326 C 
HETATM    9  N   UNL     1      37.395 -12.275   1.465  1.00  0.00    -0.324 N 
HETATM   10  O   UNL     1      37.126 -14.432   0.750  1.00  0.00    -0.247 OA
HETATM   11  C   UNL     1      38.444 -11.277   1.470  1.00  0.00     0.119 C 
HETATM   12  H   UNL     1      36.647 -12.349   2.145  1.00  0.00     0.165 HD
HETATM   13  C   UNL     1      37.931  -9.844   1.242  1.00  0.00     0.019 C 
HETATM   14  C   UNL     1      39.313 -11.836   0.320  1.00  0.00     0.257 C 
HETATM   15  C   UNL     1      39.281 -11.385   2.761  1.00  0.00     0.041 C 
HETATM   16  C   UNL     1      37.019  -9.714   0.018  1.00  0.00     0.013 C 
HETATM   17  C   UNL     1      37.197  -9.316   2.491  1.00  0.00     0.007 C 
HETATM   18  C   UNL     1      38.050  -9.425   3.752  1.00  0.00     0.001 C 
HETATM   19  C   UNL     1      38.541 -10.848   3.982  1.00  0.00     0.003 C 
HETATM   20  O   UNL     1      40.291 -11.295  -0.178  1.00  0.00    -0.270 OA
ENDBRANCH   6   7
ENDBRANCH   3   6
ENDBRANCH   1   2
BRANCH   1  21
HETATM   21  C   UNL     1      41.466 -17.012   2.789  1.00  0.00     0.071 C 
BRANCH  21  22
HETATM   22  C   UNL     1      42.082 -15.714   3.287  1.00  0.00    -0.020 A 
HETATM   23  C   UNL     1      41.515 -14.795   4.238  1.00  0.00    -0.001 A 
HETATM   24  C   UNL     1      42.414 -13.737   4.392  1.00  0.00     0.042 A 
HETATM   25  C   UNL     1      40.320 -14.764   4.988  1.00  0.00     0.014 A 
HETATM   26  C   UNL     1      42.182 -12.657   5.252  1.00  0.00     0.030 A 
HETATM   27  N   UNL     1      43.484 -13.991   3.571  1.00  0.00    -0.365 N 
HETATM   28  C   UNL     1      40.993 -12.655   5.985  1.00  0.00     0.002 A 
HETATM   29  C   UNL     1      40.073 -13.692   5.857  1.00  0.00     0.001 A 
HETATM   30  H   UNL     1      44.291 -13.389   3.479  1.00  0.00     0.165 HD
HETATM   31  C   UNL     1      43.299 -15.169   2.904  1.00  0.00     0.097 A 
ENDBRANCH  21  22
BRANCH  21  32
HETATM   32  C   UNL     1      42.498 -18.074   3.153  1.00  0.00    -0.048 A 
HETATM   33  C   UNL     1      42.807 -18.290   4.506  1.00  0.00     0.011 A 
HETATM   34  C   UNL     1      43.777 -19.223   4.882  1.00  0.00     0.037 A 
HETATM   35  C   UNL     1      44.462 -19.963   3.919  1.00  0.00     0.068 A 
HETATM   36  C   UNL     1      44.163 -19.762   2.572  1.00  0.00     0.037 A 
HETATM   37  C   UNL     1      43.193 -18.825   2.192  1.00  0.00     0.011 A 
BRANCH  35  38
HETATM   38  O   UNL     1      45.392 -20.832   4.419  1.00  0.00    -0.356 OA
HETATM   39  C   UNL     1      44.900 -21.947   5.151  1.00  0.00     0.210 C 
ENDBRANCH  35  38
ENDBRANCH  21  32
ENDBRANCH   1  21
TORSDOF 7
ENDMDL
MODEL 6
REMARK VINA RESULT:      -9.7      5.058      9.071
REMARK  7 active torsions:
REMARK  status: ('A' for Active; 'I' for Inactive)
REMARK    1  A    between atoms: N_7  and  C_8 
REMARK    2  A    between atoms: C_8  and  C_9 
REMARK       I    between atoms: C_9  and  N_10 
REMARK    3  A    between atoms: N_10  and  C_11 
REMARK    4  A    between atoms: C_11  and  C_12 
REMARK    5  A    between atoms: C_12  and  C_13 
REMARK    6  A    between atoms: C_12  and  C_23 
REMARK    7  A    between atoms: C_26  and  O_27 
ROOT
HETATM    1  C   UNL     1      42.642 -17.478   1.463  1.00  0.00     0.136 C 
ENDROOT
BRANCH   1   2
HETATM    2  N   UNL     1      42.573 -16.593   0.303  1.00  0.00    -0.359 N 
HETATM    3  C   UNL     1      41.457 -15.771   0.209  1.00  0.00     0.236 C 
HETATM    4  O   UNL     1      40.462 -15.941   0.914  1.00  0.00    -0.272 OA
HETATM    5  H   UNL     1      43.447 -16.237  -0.081  1.00  0.00     0.162 HD
BRANCH   3   6
HETATM    6  C   UNL     1      41.611 -14.514  -0.633  1.00  0.00     0.239 C 
BRANCH   6   7
HETATM    7  N   UNL     1      40.975 -13.332  -0.105  1.00  0.00    -0.259 N 
HETATM    8  C   UNL     1      39.720 -12.930  -0.449  1.00  0.00     0.326 C 
HETATM    9  N   UNL     1      39.361 -11.879   0.364  1.00  0.00    -0.324 N 
HETATM   10  O   UNL     1      38.986 -13.411  -1.293  1.00  0.00    -0.247 OA
HETATM   11  C   UNL     1      40.292 -11.699   1.459  1.00  0.00     0.119 C 
HETATM   12  H   UNL     1      38.409 -11.534   0.337  1.00  0.00     0.165 HD
HETATM   13  C   UNL     1      40.687 -10.230   1.695  1.00  0.00     0.019 C 
HETATM   14  C   UNL     1      41.442 -12.596   0.946  1.00  0.00     0.257 C 
HETATM   15  C   UNL     1      39.745 -12.356   2.743  1.00  0.00     0.041 C 
HETATM   16  C   UNL     1      41.150  -9.515   0.422  1.00  0.00     0.013 C 
HETATM   17  C   UNL     1      39.527  -9.443   2.337  1.00  0.00     0.007 C 
HETATM   18  C   UNL     1      39.011 -10.109   3.610  1.00  0.00     0.001 C 
HETATM   19  C   UNL     1      38.605 -11.557   3.366  1.00  0.00     0.003 C 
HETATM   20  O   UNL     1      42.551 -12.712   1.452  1.00  0.00    -0.270 OA
ENDBRANCH   6   7
ENDBRANCH   3   6
ENDBRANCH   1   2
BRANCH   1  21
HETATM   21  C   UNL     1      43.465 -16.981   2.671  1.00  0.00     0.071 C 
BRANCH  21  22
HETATM   22  C   UNL     1      43.917 -18.141   3.544  1.00  0.00    -0.020 A 
HETATM   23  C   UNL     1      44.032 -19.522   3.160  1.00  0.00    -0.001 A 
HETATM   24  C   UNL     1      44.471 -20.237   4.276  1.00  0.00     0.042 A 
HETATM   25  C   UNL     1      43.807 -20.235   1.963  1.00  0.00     0.014 A 
HETATM   26  C   UNL     1      44.697 -21.619   4.258  1.00  0.00     0.030 A 
HETATM   27  N   UNL     1      44.618 -19.338   5.303  1.00  0.00    -0.365 N 
HETATM   28  C   UNL     1      44.469 -22.298   3.058  1.00  0.00     0.002 A 
HETATM   29  C   UNL     1      44.031 -21.617   1.926  1.00  0.00     0.001 A 
HETATM   30  H   UNL     1      44.926 -19.578   6.235  1.00  0.00     0.165 HD
HETATM   31  C   UNL     1      44.289 -18.080   4.879  1.00  0.00     0.097 A 
ENDBRANCH  21  22
BRANCH  21  32
HETATM   32  C   UNL     1      42.767 -16.036   3.642  1.00  0.00    -0.048 A 
HETATM   33  C   UNL     1      41.478 -16.358   4.101  1.00  0.00     0.011 A 
HETATM   34  C   UNL     1      40.785 -15.499   4.957  1.00  0.00     0.037 A 
HETATM   35  C   UNL     1      41.358 -14.299   5.377  1.00  0.00     0.068 A 
HETATM   36  C   UNL     1      42.637 -13.968   4.934  1.00  0.00     0.037 A 
HETATM   37  C   UNL     1      43.333 -14.826   4.072  1.00  0.00     0.011 A 
BRANCH  35  38
HETATM   38  O   UNL     1      40.569 -13.547   6.204  1.00  0.00    -0.356 OA
HETATM   39  C   UNL     1      40.875 -12.163   6.298  1.00  0.00     0.210 C 
ENDBRANCH  35  38
ENDBRANCH  21  32
ENDBRANCH   1  21
TORSDOF 7
ENDMDL
MODEL 7
REMARK VINA RESULT:      -9.7      4.812      8.098
REMARK  7 active torsions:
REMARK  status: ('A' for Active; 'I' for Inactive)
REMARK    1  A    between atoms: N_7  and  C_8 
REMARK    2  A    between atoms: C_8  and  C_9 
REMARK       I    between atoms: C_9  and  N_10 
REMARK    3  A    between atoms: N_10  and  C_11 
REMARK    4  A    between atoms: C_11  and  C_12 
REMARK    5  A    between atoms: C_12  and  C_13 
REMARK    6  A    between atoms: C_12  and  C_23 
REMARK    7  A    between atoms: C_26  and  O_27 
ROOT
HETATM    1  C   UNL     1      41.295 -12.155   2.558  1.00  0.00     0.136 C 
ENDROOT
BRANCH   1   2
HETATM    2  N   UNL     1      41.355 -12.928   3.796  1.00  0.00    -0.359 N 
HETATM    3  C   UNL     1      42.617 -13.286   4.250  1.00  0.00     0.236 C 
HETATM    4  O   UNL     1      43.618 -13.182   3.541  1.00  0.00    -0.272 OA
HETATM    5  H   UNL     1      40.636 -12.763   4.500  1.00  0.00     0.162 HD
BRANCH   3   6
HETATM    6  C   UNL     1      42.742 -13.587   5.736  1.00  0.00     0.239 C 
BRANCH   6   7
HETATM    7  N   UNL     1      42.770 -14.987   6.086  1.00  0.00    -0.259 N 
HETATM    8  C   UNL     1      41.687 -15.808   6.002  1.00  0.00     0.326 C 
HETATM    9  N   UNL     1      42.102 -17.100   6.236  1.00  0.00    -0.324 N 
HETATM   10  O   UNL     1      40.539 -15.507   5.730  1.00  0.00    -0.247 OA
HETATM   11  C   UNL     1      43.546 -17.211   6.246  1.00  0.00     0.119 C 
HETATM   12  H   UNL     1      41.452 -17.863   6.087  1.00  0.00     0.165 HD
HETATM   13  C   UNL     1      44.088 -18.061   7.409  1.00  0.00     0.019 C 
HETATM   14  C   UNL     1      43.902 -15.710   6.330  1.00  0.00     0.257 C 
HETATM   15  C   UNL     1      44.055 -17.720   4.881  1.00  0.00     0.041 C 
HETATM   16  C   UNL     1      43.534 -17.644   8.775  1.00  0.00     0.013 C 
HETATM   17  C   UNL     1      43.811 -19.559   7.174  1.00  0.00     0.007 C 
HETATM   18  C   UNL     1      44.333 -20.039   5.822  1.00  0.00     0.001 C 
HETATM   19  C   UNL     1      43.778 -19.206   4.674  1.00  0.00     0.003 C 
HETATM   20  O   UNL     1      45.021 -15.238   6.484  1.00  0.00    -0.270 OA
ENDBRANCH   6   7
ENDBRANCH   3   6
ENDBRANCH   1   2
BRANCH   1  21
HETATM   21  C   UNL     1      40.408 -12.718   1.427  1.00  0.00     0.071 C 
BRANCH  21  22
HETATM   22  C   UNL     1      40.143 -14.203   1.621  1.00  0.00    -0.020 A 
HETATM   23  C   UNL     1      41.094 -15.275   1.502  1.00  0.00    -0.001 A 
HETATM   24  C   UNL     1      40.416 -16.471   1.751  1.00  0.00     0.042 A 
HETATM   25  C   UNL     1      42.472 -15.344   1.208  1.00  0.00     0.014 A 
HETATM   26  C   UNL     1      41.042 -17.723   1.724  1.00  0.00     0.030 A 
HETATM   27  N   UNL     1      39.107 -16.150   2.010  1.00  0.00    -0.365 N 
HETATM   28  C   UNL     1      42.408 -17.760   1.434  1.00  0.00     0.002 A 
HETATM   29  C   UNL     1      43.115 -16.588   1.180  1.00  0.00     0.001 A 
HETATM   30  H   UNL     1      38.384 -16.822   2.225  1.00  0.00     0.165 HD
HETATM   31  C   UNL     1      38.929 -14.797   1.934  1.00  0.00     0.097 A 
ENDBRANCH  21  22
BRANCH  21  32
HETATM   32  C   UNL     1      40.954 -12.621   0.006  1.00  0.00    -0.048 A 
HETATM   33  C   UNL     1      42.160 -11.936  -0.216  1.00  0.00     0.011 A 
HETATM   34  C   UNL     1      42.673 -11.786  -1.507  1.00  0.00     0.037 A 
HETATM   35  C   UNL     1      41.998 -12.314  -2.607  1.00  0.00     0.068 A 
HETATM   36  C   UNL     1      40.802 -12.999  -2.401  1.00  0.00     0.037 A 
HETATM   37  C   UNL     1      40.283 -13.149  -1.108  1.00  0.00     0.011 A 
BRANCH  35  38
HETATM   38  O   UNL     1      42.602 -12.087  -3.812  1.00  0.00    -0.356 OA
HETATM   39  C   UNL     1      42.518 -10.768  -4.334  1.00  0.00     0.210 C 
ENDBRANCH  35  38
ENDBRANCH  21  32
ENDBRANCH   1  21
TORSDOF 7
ENDMDL
MODEL 8
REMARK VINA RESULT:      -9.5      6.179     10.325
REMARK  7 active torsions:
REMARK  status: ('A' for Active; 'I' for Inactive)
REMARK    1  A    between atoms: N_7  and  C_8 
REMARK    2  A    between atoms: C_8  and  C_9 
REMARK       I    between atoms: C_9  and  N_10 
REMARK    3  A    between atoms: N_10  and  C_11 
REMARK    4  A    between atoms: C_11  and  C_12 
REMARK    5  A    between atoms: C_12  and  C_13 
REMARK    6  A    between atoms: C_12  and  C_23 
REMARK    7  A    between atoms: C_26  and  O_27 
ROOT
HETATM    1  C   UNL     1      41.757 -16.890   0.914  1.00  0.00     0.136 C 
ENDROOT
BRANCH   1   2
HETATM    2  N   UNL     1      40.650 -16.115   0.362  1.00  0.00    -0.359 N 
HETATM    3  C   UNL     1      40.965 -14.881  -0.193  1.00  0.00     0.236 C 
HETATM    4  O   UNL     1      42.062 -14.350  -0.019  1.00  0.00    -0.272 OA
HETATM    5  H   UNL     1      39.865 -16.622  -0.045  1.00  0.00     0.162 HD
BRANCH   3   6
HETATM    6  C   UNL     1      39.984 -14.329  -1.218  1.00  0.00     0.239 C 
BRANCH   6   7
HETATM    7  N   UNL     1      40.517 -13.325  -2.107  1.00  0.00    -0.259 N 
HETATM    8  C   UNL     1      41.105 -13.609  -3.301  1.00  0.00     0.326 C 
HETATM    9  N   UNL     1      41.334 -12.425  -3.966  1.00  0.00    -0.324 N 
HETATM   10  O   UNL     1      41.366 -14.704  -3.765  1.00  0.00    -0.247 OA
HETATM   11  C   UNL     1      40.673 -11.308  -3.324  1.00  0.00     0.119 C 
HETATM   12  H   UNL     1      41.649 -12.450  -4.928  1.00  0.00     0.165 HD
HETATM   13  C   UNL     1      41.563 -10.060  -3.193  1.00  0.00     0.019 C 
HETATM   14  C   UNL     1      40.313 -11.981  -1.980  1.00  0.00     0.257 C 
HETATM   15  C   UNL     1      39.343 -10.988  -4.039  1.00  0.00     0.041 C 
HETATM   16  C   UNL     1      42.932 -10.354  -2.570  1.00  0.00     0.013 C 
HETATM   17  C   UNL     1      41.755  -9.372  -4.560  1.00  0.00     0.007 C 
HETATM   18  C   UNL     1      40.426  -9.058  -5.241  1.00  0.00     0.001 C 
HETATM   19  C   UNL     1      39.556 -10.300  -5.384  1.00  0.00     0.003 C 
HETATM   20  O   UNL     1      39.829 -11.430  -1.000  1.00  0.00    -0.270 OA
ENDBRANCH   6   7
ENDBRANCH   3   6
ENDBRANCH   1   2
BRANCH   1  21
HETATM   21  C   UNL     1      41.818 -17.022   2.451  1.00  0.00     0.071 C 
BRANCH  21  22
HETATM   22  C   UNL     1      42.328 -15.743   3.095  1.00  0.00    -0.020 A 
HETATM   23  C   UNL     1      41.625 -14.902   4.026  1.00  0.00    -0.001 A 
HETATM   24  C   UNL     1      42.465 -13.832   4.347  1.00  0.00     0.042 A 
HETATM   25  C   UNL     1      40.352 -14.949   4.633  1.00  0.00     0.014 A 
HETATM   26  C   UNL     1      42.100 -12.816   5.238  1.00  0.00     0.030 A 
HETATM   27  N   UNL     1      43.630 -14.005   3.643  1.00  0.00    -0.365 N 
HETATM   28  C   UNL     1      40.835 -12.891   5.826  1.00  0.00     0.002 A 
HETATM   29  C   UNL     1      39.972 -13.942   5.529  1.00  0.00     0.001 A 
HETATM   30  H   UNL     1      44.421 -13.378   3.682  1.00  0.00     0.165 HD
HETATM   31  C   UNL     1      43.562 -15.143   2.889  1.00  0.00     0.097 A 
ENDBRANCH  21  22
BRANCH  21  32
HETATM   32  C   UNL     1      42.724 -18.109   3.018  1.00  0.00    -0.048 A 
HETATM   33  C   UNL     1      42.840 -18.243   4.412  1.00  0.00     0.011 A 
HETATM   34  C   UNL     1      43.693 -19.197   4.973  1.00  0.00     0.037 A 
HETATM   35  C   UNL     1      44.450 -20.040   4.161  1.00  0.00     0.068 A 
HETATM   36  C   UNL     1      44.343 -19.920   2.776  1.00  0.00     0.037 A 
HETATM   37  C   UNL     1      43.491 -18.963   2.210  1.00  0.00     0.011 A 
BRANCH  35  38
HETATM   38  O   UNL     1      45.250 -20.918   4.837  1.00  0.00    -0.356 OA
HETATM   39  C   UNL     1      44.855 -22.283   4.829  1.00  0.00     0.210 C 
ENDBRANCH  35  38
ENDBRANCH  21  32
ENDBRANCH   1  21
TORSDOF 7
ENDMDL
MODEL 9
REMARK VINA RESULT:      -9.3      5.379      9.348
REMARK  7 active torsions:
REMARK  status: ('A' for Active; 'I' for Inactive)
REMARK    1  A    between atoms: N_7  and  C_8 
REMARK    2  A    between atoms: C_8  and  C_9 
REMARK       I    between atoms: C_9  and  N_10 
REMARK    3  A    between atoms: N_10  and  C_11 
REMARK    4  A    between atoms: C_11  and  C_12 
REMARK    5  A    between atoms: C_12  and  C_13 
REMARK    6  A    between atoms: C_12  and  C_23 
REMARK    7  A    between atoms: C_26  and  O_27 
ROOT
HETATM    1  C   UNL     1      41.130 -17.076   1.526  1.00  0.00     0.136 C 
ENDROOT
BRANCH   1   2
HETATM    2  N   UNL     1      40.298 -15.994   1.006  1.00  0.00    -0.359 N 
HETATM    3  C   UNL     1      40.880 -15.151   0.069  1.00  0.00     0.236 C 
HETATM    4  O   UNL     1      42.094 -15.148  -0.137  1.00  0.00    -0.272 OA
HETATM    5  H   UNL     1      39.294 -16.157   0.926  1.00  0.00     0.162 HD
BRANCH   3   6
HETATM    6  C   UNL     1      39.930 -14.404  -0.854  1.00  0.00     0.239 C 
BRANCH   6   7
HETATM    7  N   UNL     1      40.304 -13.045  -1.163  1.00  0.00    -0.259 N 
HETATM    8  C   UNL     1      39.984 -11.977  -0.382  1.00  0.00     0.326 C 
HETATM    9  N   UNL     1      40.641 -10.869  -0.868  1.00  0.00    -0.324 N 
HETATM   10  O   UNL     1      39.277 -11.961   0.609  1.00  0.00    -0.247 OA
HETATM   11  C   UNL     1      41.630 -11.222  -1.866  1.00  0.00     0.119 C 
HETATM   12  H   UNL     1      40.623 -10.008  -0.335  1.00  0.00     0.165 HD
HETATM   13  C   UNL     1      41.604 -10.311  -3.106  1.00  0.00     0.019 C 
HETATM   14  C   UNL     1      41.193 -12.680  -2.133  1.00  0.00     0.257 C 
HETATM   15  C   UNL     1      43.035 -11.282  -1.232  1.00  0.00     0.041 C 
HETATM   16  C   UNL     1      40.206 -10.153  -3.712  1.00  0.00     0.013 C 
HETATM   17  C   UNL     1      42.187  -8.921  -2.783  1.00  0.00     0.007 C 
HETATM   18  C   UNL     1      43.581  -9.008  -2.166  1.00  0.00     0.001 C 
HETATM   19  C   UNL     1      43.597  -9.896  -0.929  1.00  0.00     0.003 C 
HETATM   20  O   UNL     1      41.636 -13.423  -2.999  1.00  0.00    -0.270 OA
ENDBRANCH   6   7
ENDBRANCH   3   6
ENDBRANCH   1   2
BRANCH   1  21
HETATM   21  C   UNL     1      41.454 -17.042   3.035  1.00  0.00     0.071 C 
BRANCH  21  22
HETATM   22  C   UNL     1      42.023 -15.694   3.447  1.00  0.00    -0.020 A 
HETATM   23  C   UNL     1      41.421 -14.733   4.332  1.00  0.00    -0.001 A 
HETATM   24  C   UNL     1      42.284 -13.638   4.417  1.00  0.00     0.042 A 
HETATM   25  C   UNL     1      40.223 -14.692   5.076  1.00  0.00     0.014 A 
HETATM   26  C   UNL     1      42.012 -12.511   5.203  1.00  0.00     0.030 A 
HETATM   27  N   UNL     1      43.366 -13.910   3.618  1.00  0.00    -0.365 N 
HETATM   28  C   UNL     1      40.820 -12.500   5.931  1.00  0.00     0.002 A 
HETATM   29  C   UNL     1      39.937 -13.574   5.870  1.00  0.00     0.001 A 
HETATM   30  H   UNL     1      44.153 -13.289   3.488  1.00  0.00     0.165 HD
HETATM   31  C   UNL     1      43.223 -15.136   3.031  1.00  0.00     0.097 A 
ENDBRANCH  21  22
BRANCH  21  32
HETATM   32  C   UNL     1      42.479 -18.049   3.546  1.00  0.00    -0.048 A 
HETATM   33  C   UNL     1      43.115 -18.901   2.627  1.00  0.00     0.011 A 
HETATM   34  C   UNL     1      44.028 -19.868   3.057  1.00  0.00     0.037 A 
HETATM   35  C   UNL     1      44.329 -20.008   4.412  1.00  0.00     0.068 A 
HETATM   36  C   UNL     1      43.709 -19.167   5.334  1.00  0.00     0.037 A 
HETATM   37  C   UNL     1      42.790 -18.199   4.906  1.00  0.00     0.011 A 
BRANCH  35  38
HETATM   38  O   UNL     1      45.229 -20.998   4.697  1.00  0.00    -0.356 OA
HETATM   39  C   UNL     1      44.758 -22.336   4.616  1.00  0.00     0.210 C 
ENDBRANCH  35  38
ENDBRANCH  21  32
ENDBRANCH   1  21
TORSDOF 7
ENDMDL
MODEL 10
REMARK VINA RESULT:      -9.3      4.405      9.540
REMARK  7 active torsions:
REMARK  status: ('A' for Active; 'I' for Inactive)
REMARK    1  A    between atoms: N_7  and  C_8 
REMARK    2  A    between atoms: C_8  and  C_9 
REMARK       I    between atoms: C_9  and  N_10 
REMARK    3  A    between atoms: N_10  and  C_11 
REMARK    4  A    between atoms: C_11  and  C_12 
REMARK    5  A    between atoms: C_12  and  C_13 
REMARK    6  A    between atoms: C_12  and  C_23 
REMARK    7  A    between atoms: C_26  and  O_27 
ROOT
HETATM    1  C   UNL     1      41.489 -17.013   4.043  1.00  0.00     0.136 C 
ENDROOT
BRANCH   1   2
HETATM    2  N   UNL     1      40.705 -15.937   3.442  1.00  0.00    -0.359 N 
HETATM    3  C   UNL     1      40.255 -14.939   4.295  1.00  0.00     0.236 C 
HETATM    4  O   UNL     1      40.293 -15.063   5.520  1.00  0.00    -0.272 OA
HETATM    5  H   UNL     1      40.916 -15.669   2.481  1.00  0.00     0.162 HD
BRANCH   3   6
HETATM    6  C   UNL     1      39.936 -13.595   3.657  1.00  0.00     0.239 C 
BRANCH   6   7
HETATM    7  N   UNL     1      40.240 -13.488   2.251  1.00  0.00    -0.259 N 
HETATM    8  C   UNL     1      41.470 -13.163   1.767  1.00  0.00     0.326 C 
HETATM    9  N   UNL     1      41.457 -13.324   0.399  1.00  0.00    -0.324 N 
HETATM   10  O   UNL     1      42.456 -12.825   2.396  1.00  0.00    -0.247 OA
HETATM   11  C   UNL     1      40.261 -14.005  -0.053  1.00  0.00     0.119 C 
HETATM   12  H   UNL     1      42.325 -13.251  -0.117  1.00  0.00     0.165 HD
HETATM   13  C   UNL     1      39.614 -13.355  -1.289  1.00  0.00     0.019 C 
HETATM   14  C   UNL     1      39.420 -13.900   1.240  1.00  0.00     0.257 C 
HETATM   15  C   UNL     1      40.550 -15.503  -0.282  1.00  0.00     0.041 C 
HETATM   16  C   UNL     1      39.394 -11.847  -1.135  1.00  0.00     0.013 C 
HETATM   17  C   UNL     1      40.447 -13.629  -2.557  1.00  0.00     0.007 C 
HETATM   18  C   UNL     1      40.711 -15.118  -2.765  1.00  0.00     0.001 C 
HETATM   19  C   UNL     1      41.368 -15.752  -1.546  1.00  0.00     0.003 C 
HETATM   20  O   UNL     1      38.248 -14.225   1.370  1.00  0.00    -0.270 OA
ENDBRANCH   6   7
ENDBRANCH   3   6
ENDBRANCH   1   2
BRANCH   1  21
HETATM   21  C   UNL     1      43.017 -16.805   4.116  1.00  0.00     0.071 C 
BRANCH  21  22
HETATM   22  C   UNL     1      43.744 -18.122   4.336  1.00  0.00    -0.020 A 
HETATM   23  C   UNL     1      43.745 -19.267   3.465  1.00  0.00    -0.001 A 
HETATM   24  C   UNL     1      44.532 -20.253   4.064  1.00  0.00     0.042 A 
HETATM   25  C   UNL     1      43.154 -19.558   2.217  1.00  0.00     0.014 A 
HETATM   26  C   UNL     1      44.758 -21.507   3.483  1.00  0.00     0.030 A 
HETATM   27  N   UNL     1      44.992 -19.741   5.251  1.00  0.00    -0.365 N 
HETATM   28  C   UNL     1      44.162 -21.766   2.246  1.00  0.00     0.002 A 
HETATM   29  C   UNL     1      43.371 -20.807   1.620  1.00  0.00     0.001 A 
HETATM   30  H   UNL     1      45.589 -20.239   5.897  1.00  0.00     0.165 HD
HETATM   31  C   UNL     1      44.528 -18.467   5.427  1.00  0.00     0.097 A 
ENDBRANCH  21  22
BRANCH  21  32
HETATM   32  C   UNL     1      43.541 -15.902   5.228  1.00  0.00    -0.048 A 
HETATM   33  C   UNL     1      43.450 -16.339   6.560  1.00  0.00     0.011 A 
HETATM   34  C   UNL     1      43.877 -15.525   7.613  1.00  0.00     0.037 A 
HETATM   35  C   UNL     1      44.406 -14.259   7.364  1.00  0.00     0.068 A 
HETATM   36  C   UNL     1      44.507 -13.815   6.047  1.00  0.00     0.037 A 
HETATM   37  C   UNL     1      44.075 -14.627   4.989  1.00  0.00     0.011 A 
BRANCH  35  38
HETATM   38  O   UNL     1      44.776 -13.564   8.482  1.00  0.00    -0.356 OA
HETATM   39  C   UNL     1      45.814 -12.606   8.328  1.00  0.00     0.210 C 
ENDBRANCH  35  38
ENDBRANCH  21  32
ENDBRANCH   1  21
TORSDOF 7
ENDMDL
