MODEL 1
REMARK VINA RESULT:      -8.3      0.000      0.000
REMARK  7 active torsions:
REMARK  status: ('A' for Active; 'I' for Inactive)
REMARK    1  A    between atoms: C_2  and  O_3 
REMARK    2  A    between atoms: O_3  and  C_4 
REMARK    3  A    between atoms: C_4  and  C_5 
REMARK    4  A    between atoms: C_6  and  C_7 
REMARK    5  A    between atoms: C_18  and  S_19 
REMARK    6  A    between atoms: S_19  and  C_20 
REMARK    7  A    between atoms: C_20  and  C_21 
ROOT
HETATM    1  C   UNL     1      40.984 -15.234   1.709  1.00  0.00     0.070 C 
HETATM    2  C   UNL     1      41.359 -16.238   2.802  1.00  0.00     0.204 C 
HETATM    3  N   UNL     1      42.175 -17.331   2.256  1.00  0.00    -0.082 N 
HETATM    4  C   UNL     1      42.769 -17.299   1.027  1.00  0.00     0.726 A 
HETATM    5  N   UNL     1      42.538 -16.252   0.215  1.00  0.00    -0.192 N 
HETATM    6  N   UNL     1      42.455 -18.475   2.911  1.00  0.00    -0.128 NA
HETATM    7  C   UNL     1      43.277 -19.069   2.035  1.00  0.00     0.226 A 
HETATM    8  N   UNL     1      43.491 -18.377   0.866  1.00  0.00    -0.035 NA
HETATM    9  C   UNL     1      41.593 -15.267   0.493  1.00  0.00     0.037 C 
HETATM   10  C   UNL     1      41.330 -14.287  -0.625  1.00  0.00     0.070 C 
HETATM   11  H   UNL     1      42.914 -16.287  -0.730  1.00  0.00     0.184 HD
ENDROOT
BRANCH   7  12
HETATM   12  S   UNL     1      44.070 -20.584   2.361  1.00  0.00    -0.083 SA
BRANCH  12  13
HETATM   13  C   UNL     1      45.315 -20.064   3.575  1.00  0.00     0.123 C 
BRANCH  13  14
HETATM   14  C   UNL     1      44.743 -20.024   4.973  1.00  0.00    -0.027 A 
HETATM   15  C   UNL     1      44.361 -21.178   5.677  1.00  0.00     0.041 A 
HETATM   16 CL   UNL     1      44.492 -22.757   4.989  1.00  0.00    -0.084 Cl
HETATM   17  C   UNL     1      43.854 -21.080   6.977  1.00  0.00     0.024 A 
HETATM   18  C   UNL     1      43.723 -19.835   7.592  1.00  0.00     0.002 A 
HETATM   19  C   UNL     1      44.102 -18.684   6.910  1.00  0.00     0.001 A 
HETATM   20  C   UNL     1      44.611 -18.777   5.613  1.00  0.00     0.009 A 
ENDBRANCH  13  14
ENDBRANCH  12  13
ENDBRANCH   7  12
BRANCH   2  21
HETATM   21  C   UNL     1      42.118 -15.612   3.974  1.00  0.00    -0.006 A 
HETATM   22  C   UNL     1      41.924 -16.029   5.304  1.00  0.00     0.042 A 
HETATM   23 CL   UNL     1      40.793 -17.264   5.733  1.00  0.00    -0.084 Cl
HETATM   24  C   UNL     1      42.647 -15.444   6.349  1.00  0.00     0.024 A 
HETATM   25  C   UNL     1      43.580 -14.441   6.089  1.00  0.00     0.002 A 
HETATM   26  C   UNL     1      43.795 -14.022   4.782  1.00  0.00     0.001 A 
HETATM   27  C   UNL     1      43.075 -14.600   3.735  1.00  0.00     0.011 A 
ENDBRANCH   2  21
BRANCH   1  28
HETATM   28  C   UNL     1      39.852 -14.311   1.990  1.00  0.00     0.293 C 
HETATM   29  O   UNL     1      39.970 -13.191   2.460  1.00  0.00    -0.259 OA
BRANCH  28  30
HETATM   30  O   UNL     1      38.682 -14.876   1.609  1.00  0.00    -0.318 OA
BRANCH  30  31
HETATM   31  C   UNL     1      37.697 -13.991   1.054  1.00  0.00     0.174 C 
HETATM   32  C   UNL     1      37.910 -13.848  -0.441  1.00  0.00     0.034 C 
ENDBRANCH  30  31
ENDBRANCH  28  30
ENDBRANCH   1  28
TORSDOF 7
ENDMDL
MODEL 2
REMARK VINA RESULT:      -8.0      2.998      4.872
REMARK  7 active torsions:
REMARK  status: ('A' for Active; 'I' for Inactive)
REMARK    1  A    between atoms: C_2  and  O_3 
REMARK    2  A    between atoms: O_3  and  C_4 
REMARK    3  A    between atoms: C_4  and  C_5 
REMARK    4  A    between atoms: C_6  and  C_7 
REMARK    5  A    between atoms: C_18  and  S_19 
REMARK    6  A    between atoms: S_19  and  C_20 
REMARK    7  A    between atoms: C_20  and  C_21 
ROOT
HETATM    1  C   UNL     1      40.874 -13.682   4.669  1.00  0.00     0.070 C 
HETATM    2  C   UNL     1      41.926 -14.682   4.183  1.00  0.00     0.204 C 
HETATM    3  N   UNL     1      42.143 -15.742   5.176  1.00  0.00    -0.082 N 
HETATM    4  C   UNL     1      41.314 -15.976   6.236  1.00  0.00     0.726 A 
HETATM    5  N   UNL     1      40.278 -15.146   6.453  1.00  0.00    -0.192 N 
HETATM    6  N   UNL     1      43.164 -16.622   5.143  1.00  0.00    -0.128 NA
HETATM    7  C   UNL     1      42.855 -17.401   6.189  1.00  0.00     0.226 A 
HETATM    8  N   UNL     1      41.728 -17.033   6.884  1.00  0.00    -0.035 NA
HETATM    9  C   UNL     1      40.094 -13.959   5.747  1.00  0.00     0.037 C 
HETATM   10  C   UNL     1      38.996 -13.062   6.265  1.00  0.00     0.070 C 
HETATM   11  H   UNL     1      39.726 -15.280   7.297  1.00  0.00     0.184 HD
ENDROOT
BRANCH   7  12
HETATM   12  S   UNL     1      43.775 -18.816   6.617  1.00  0.00    -0.083 SA
BRANCH  12  13
HETATM   13  C   UNL     1      44.978 -18.866   5.260  1.00  0.00     0.123 C 
BRANCH  13  14
HETATM   14  C   UNL     1      44.718 -20.029   4.332  1.00  0.00    -0.027 A 
HETATM   15  C   UNL     1      44.328 -19.868   2.992  1.00  0.00     0.041 A 
HETATM   16 CL   UNL     1      44.088 -18.308   2.289  1.00  0.00    -0.084 Cl
HETATM   17  C   UNL     1      44.119 -20.984   2.174  1.00  0.00     0.024 A 
HETATM   18  C   UNL     1      44.297 -22.272   2.679  1.00  0.00     0.002 A 
HETATM   19  C   UNL     1      44.688 -22.448   4.002  1.00  0.00     0.001 A 
HETATM   20  C   UNL     1      44.901 -21.337   4.821  1.00  0.00     0.009 A 
ENDBRANCH  13  14
ENDBRANCH  12  13
ENDBRANCH   7  12
BRANCH   2  21
HETATM   21  C   UNL     1      41.574 -15.341   2.847  1.00  0.00    -0.006 A 
HETATM   22  C   UNL     1      41.892 -14.750   1.611  1.00  0.00     0.042 A 
HETATM   23 CL   UNL     1      42.684 -13.218   1.492  1.00  0.00    -0.084 Cl
HETATM   24  C   UNL     1      41.568 -15.388   0.409  1.00  0.00     0.024 A 
HETATM   25  C   UNL     1      40.930 -16.628   0.416  1.00  0.00     0.002 A 
HETATM   26  C   UNL     1      40.616 -17.234   1.626  1.00  0.00     0.001 A 
HETATM   27  C   UNL     1      40.934 -16.601   2.829  1.00  0.00     0.011 A 
ENDBRANCH   2  21
BRANCH   1  28
HETATM   28  C   UNL     1      40.828 -12.359   3.992  1.00  0.00     0.293 C 
HETATM   29  O   UNL     1      40.086 -12.078   3.064  1.00  0.00    -0.259 OA
BRANCH  28  30
HETATM   30  O   UNL     1      41.694 -11.501   4.581  1.00  0.00    -0.318 OA
BRANCH  30  31
HETATM   31  C   UNL     1      41.197 -10.184   4.863  1.00  0.00     0.174 C 
HETATM   32  C   UNL     1      41.444  -9.834   6.318  1.00  0.00     0.034 C 
ENDBRANCH  30  31
ENDBRANCH  28  30
ENDBRANCH   1  28
TORSDOF 7
ENDMDL
MODEL 3
REMARK VINA RESULT:      -8.0      2.950      4.400
REMARK  7 active torsions:
REMARK  status: ('A' for Active; 'I' for Inactive)
REMARK    1  A    between atoms: C_2  and  O_3 
REMARK    2  A    between atoms: O_3  and  C_4 
REMARK    3  A    between atoms: C_4  and  C_5 
REMARK    4  A    between atoms: C_6  and  C_7 
REMARK    5  A    between atoms: C_18  and  S_19 
REMARK    6  A    between atoms: S_19  and  C_20 
REMARK    7  A    between atoms: C_20  and  C_21 
ROOT
HETATM    1  C   UNL     1      39.721 -14.149  -1.384  1.00  0.00     0.070 C 
HETATM    2  C   UNL     1      39.455 -14.262   0.120  1.00  0.00     0.204 C 
HETATM    3  N   UNL     1      40.363 -15.233   0.745  1.00  0.00    -0.082 N 
HETATM    4  C   UNL     1      41.480 -15.732   0.138  1.00  0.00     0.726 A 
HETATM    5  N   UNL     1      41.738 -15.396  -1.139  1.00  0.00    -0.192 N 
HETATM    6  N   UNL     1      40.218 -15.721   1.992  1.00  0.00    -0.128 NA
HETATM    7  C   UNL     1      41.322 -16.472   2.096  1.00  0.00     0.226 A 
HETATM    8  N   UNL     1      42.120 -16.504   0.976  1.00  0.00    -0.035 NA
HETATM    9  C   UNL     1      40.840 -14.690  -1.936  1.00  0.00     0.037 C 
HETATM   10  C   UNL     1      41.215 -14.582  -3.394  1.00  0.00     0.070 C 
HETATM   11  H   UNL     1      42.522 -15.849  -1.604  1.00  0.00     0.184 HD
ENDROOT
BRANCH   7  12
HETATM   12  S   UNL     1      41.761 -17.309   3.558  1.00  0.00    -0.083 SA
BRANCH  12  13
HETATM   13  C   UNL     1      43.534 -17.576   3.281  1.00  0.00     0.123 C 
BRANCH  13  14
HETATM   14  C   UNL     1      43.861 -19.046   3.159  1.00  0.00    -0.027 A 
HETATM   15  C   UNL     1      44.521 -19.770   4.165  1.00  0.00     0.041 A 
HETATM   16 CL   UNL     1      45.042 -19.028   5.636  1.00  0.00    -0.084 Cl
HETATM   17  C   UNL     1      44.781 -21.135   4.003  1.00  0.00     0.024 A 
HETATM   18  C   UNL     1      44.386 -21.795   2.840  1.00  0.00     0.002 A 
HETATM   19  C   UNL     1      43.727 -21.094   1.837  1.00  0.00     0.001 A 
HETATM   20  C   UNL     1      43.462 -19.732   1.995  1.00  0.00     0.009 A 
ENDBRANCH  13  14
ENDBRANCH  12  13
ENDBRANCH   7  12
BRANCH   2  21
HETATM   21  C   UNL     1      39.588 -12.932   0.867  1.00  0.00    -0.006 A 
HETATM   22  C   UNL     1      38.473 -12.134   1.183  1.00  0.00     0.042 A 
HETATM   23 CL   UNL     1      36.862 -12.571   0.735  1.00  0.00    -0.084 Cl
HETATM   24  C   UNL     1      38.630 -10.931   1.880  1.00  0.00     0.024 A 
HETATM   25  C   UNL     1      39.896 -10.506   2.281  1.00  0.00     0.002 A 
HETATM   26  C   UNL     1      41.009 -11.284   1.987  1.00  0.00     0.001 A 
HETATM   27  C   UNL     1      40.859 -12.484   1.290  1.00  0.00     0.011 A 
ENDBRANCH   2  21
BRANCH   1  28
HETATM   28  C   UNL     1      38.655 -13.536  -2.220  1.00  0.00     0.293 C 
HETATM   29  O   UNL     1      38.716 -12.423  -2.717  1.00  0.00    -0.259 OA
BRANCH  28  30
HETATM   30  O   UNL     1      37.632 -14.407  -2.386  1.00  0.00    -0.318 OA
BRANCH  30  31
HETATM   31  C   UNL     1      37.528 -15.034  -3.673  1.00  0.00     0.174 C 
HETATM   32  C   UNL     1      36.412 -14.393  -4.476  1.00  0.00     0.034 C 
ENDBRANCH  30  31
ENDBRANCH  28  30
ENDBRANCH   1  28
TORSDOF 7
ENDMDL
MODEL 4
REMARK VINA RESULT:      -8.0      3.003      4.593
REMARK  7 active torsions:
REMARK  status: ('A' for Active; 'I' for Inactive)
REMARK    1  A    between atoms: C_2  and  O_3 
REMARK    2  A    between atoms: O_3  and  C_4 
REMARK    3  A    between atoms: C_4  and  C_5 
REMARK    4  A    between atoms: C_6  and  C_7 
REMARK    5  A    between atoms: C_18  and  S_19 
REMARK    6  A    between atoms: S_19  and  C_20 
REMARK    7  A    between atoms: C_20  and  C_21 
ROOT
HETATM    1  C   UNL     1      41.996 -12.649   1.749  1.00  0.00     0.070 C 
HETATM    2  C   UNL     1      42.679 -13.903   2.302  1.00  0.00     0.204 C 
HETATM    3  N   UNL     1      42.925 -13.778   3.745  1.00  0.00    -0.082 N 
HETATM    4  C   UNL     1      42.355 -12.821   4.535  1.00  0.00     0.726 A 
HETATM    5  N   UNL     1      41.588 -11.873   3.967  1.00  0.00    -0.192 N 
HETATM    6  N   UNL     1      43.713 -14.604   4.460  1.00  0.00    -0.128 NA
HETATM    7  C   UNL     1      43.528 -14.118   5.694  1.00  0.00     0.226 A 
HETATM    8  N   UNL     1      42.702 -13.023   5.779  1.00  0.00    -0.035 NA
HETATM    9  C   UNL     1      41.469 -11.716   2.587  1.00  0.00     0.037 C 
HETATM   10  C   UNL     1      40.731 -10.479   2.137  1.00  0.00     0.070 C 
HETATM   11  H   UNL     1      41.247 -11.116   4.555  1.00  0.00     0.184 HD
ENDROOT
BRANCH   7  12
HETATM   12  S   UNL     1      44.231 -14.847   7.111  1.00  0.00    -0.083 SA
BRANCH  12  13
HETATM   13  C   UNL     1      43.182 -16.315   7.298  1.00  0.00     0.123 C 
BRANCH  13  14
HETATM   14  C   UNL     1      43.583 -17.409   6.336  1.00  0.00    -0.027 A 
HETATM   15  C   UNL     1      42.723 -17.914   5.348  1.00  0.00     0.041 A 
HETATM   16 CL   UNL     1      41.105 -17.335   5.159  1.00  0.00    -0.084 Cl
HETATM   17  C   UNL     1      43.156 -18.915   4.473  1.00  0.00     0.024 A 
HETATM   18  C   UNL     1      44.451 -19.425   4.571  1.00  0.00     0.002 A 
HETATM   19  C   UNL     1      45.316 -18.933   5.541  1.00  0.00     0.001 A 
HETATM   20  C   UNL     1      44.889 -17.930   6.414  1.00  0.00     0.009 A 
ENDBRANCH  13  14
ENDBRANCH  12  13
ENDBRANCH   7  12
BRANCH   2  21
HETATM   21  C   UNL     1      41.884 -15.189   2.061  1.00  0.00    -0.006 A 
HETATM   22  C   UNL     1      42.509 -16.407   1.735  1.00  0.00     0.042 A 
HETATM   23 CL   UNL     1      44.221 -16.553   1.552  1.00  0.00    -0.084 Cl
HETATM   24  C   UNL     1      41.751 -17.567   1.536  1.00  0.00     0.024 A 
HETATM   25  C   UNL     1      40.364 -17.537   1.666  1.00  0.00     0.002 A 
HETATM   26  C   UNL     1      39.728 -16.346   1.997  1.00  0.00     0.001 A 
HETATM   27  C   UNL     1      40.478 -15.185   2.194  1.00  0.00     0.011 A 
ENDBRANCH   2  21
BRANCH   1  28
HETATM   28  C   UNL     1      42.043 -12.440   0.278  1.00  0.00     0.293 C 
HETATM   29  O   UNL     1      42.827 -11.699  -0.293  1.00  0.00    -0.259 OA
BRANCH  28  30
HETATM   30  O   UNL     1      41.122 -13.220  -0.335  1.00  0.00    -0.318 OA
BRANCH  30  31
HETATM   31  C   UNL     1      41.580 -13.980  -1.465  1.00  0.00     0.174 C 
HETATM   32  C   UNL     1      40.755 -15.245  -1.610  1.00  0.00     0.034 C 
ENDBRANCH  30  31
ENDBRANCH  28  30
ENDBRANCH   1  28
TORSDOF 7
ENDMDL
MODEL 5
REMARK VINA RESULT:      -7.9      2.539      3.700
REMARK  7 active torsions:
REMARK  status: ('A' for Active; 'I' for Inactive)
REMARK    1  A    between atoms: C_2  and  O_3 
REMARK    2  A    between atoms: O_3  and  C_4 
REMARK    3  A    between atoms: C_4  and  C_5 
REMARK    4  A    between atoms: C_6  and  C_7 
REMARK    5  A    between atoms: C_18  and  S_19 
REMARK    6  A    between atoms: S_19  and  C_20 
REMARK    7  A    between atoms: C_20  and  C_21 
ROOT
HETATM    1  C   UNL     1      40.402 -13.487   4.609  1.00  0.00     0.070 C 
HETATM    2  C   UNL     1      41.001 -14.872   4.865  1.00  0.00     0.204 C 
HETATM    3  N   UNL     1      41.248 -15.582   3.604  1.00  0.00    -0.082 N 
HETATM    4  C   UNL     1      41.235 -14.983   2.377  1.00  0.00     0.726 A 
HETATM    5  N   UNL     1      40.894 -13.685   2.284  1.00  0.00    -0.192 N 
HETATM    6  N   UNL     1      41.543 -16.894   3.510  1.00  0.00    -0.128 NA
HETATM    7  C   UNL     1      41.753 -17.009   2.192  1.00  0.00     0.226 A 
HETATM    8  N   UNL     1      41.572 -15.857   1.464  1.00  0.00    -0.035 NA
HETATM    9  C   UNL     1      40.395 -12.952   3.358  1.00  0.00     0.037 C 
HETATM   10  C   UNL     1      39.878 -11.575   3.018  1.00  0.00     0.070 C 
HETATM   11  H   UNL     1      40.801 -13.279   1.356  1.00  0.00     0.184 HD
ENDROOT
BRANCH   7  12
HETATM   12  S   UNL     1      42.276 -18.492   1.445  1.00  0.00    -0.083 SA
BRANCH  12  13
HETATM   13  C   UNL     1      43.991 -18.585   2.029  1.00  0.00     0.123 C 
BRANCH  13  14
HETATM   14  C   UNL     1      44.252 -19.870   2.780  1.00  0.00    -0.027 A 
HETATM   15  C   UNL     1      44.547 -19.909   4.153  1.00  0.00     0.041 A 
HETATM   16 CL   UNL     1      44.660 -18.472   5.107  1.00  0.00    -0.084 Cl
HETATM   17  C   UNL     1      44.761 -21.131   4.799  1.00  0.00     0.024 A 
HETATM   18  C   UNL     1      44.683 -22.328   4.087  1.00  0.00     0.002 A 
HETATM   19  C   UNL     1      44.388 -22.307   2.729  1.00  0.00     0.001 A 
HETATM   20  C   UNL     1      44.169 -21.089   2.080  1.00  0.00     0.009 A 
ENDBRANCH  13  14
ENDBRANCH  12  13
ENDBRANCH   7  12
BRANCH   2  21
HETATM   21  C   UNL     1      42.310 -14.836   5.659  1.00  0.00    -0.006 A 
HETATM   22  C   UNL     1      42.637 -15.817   6.612  1.00  0.00     0.042 A 
HETATM   23 CL   UNL     1      41.582 -17.133   6.990  1.00  0.00    -0.084 Cl
HETATM   24  C   UNL     1      43.850 -15.760   7.309  1.00  0.00     0.024 A 
HETATM   25  C   UNL     1      44.759 -14.732   7.063  1.00  0.00     0.002 A 
HETATM   26  C   UNL     1      44.460 -13.758   6.118  1.00  0.00     0.001 A 
HETATM   27  C   UNL     1      43.250 -13.808   5.422  1.00  0.00     0.011 A 
ENDBRANCH   2  21
BRANCH   1  28
HETATM   28  C   UNL     1      39.728 -12.814   5.750  1.00  0.00     0.293 C 
HETATM   29  O   UNL     1      38.540 -12.914   6.012  1.00  0.00    -0.259 OA
BRANCH  28  30
HETATM   30  O   UNL     1      40.628 -12.112   6.478  1.00  0.00    -0.318 OA
BRANCH  30  31
HETATM   31  C   UNL     1      40.364 -10.710   6.643  1.00  0.00     0.174 C 
HETATM   32  C   UNL     1      41.441  -9.893   5.956  1.00  0.00     0.034 C 
ENDBRANCH  30  31
ENDBRANCH  28  30
ENDBRANCH   1  28
TORSDOF 7
ENDMDL
MODEL 6
REMARK VINA RESULT:      -7.9      2.601      4.335
REMARK  7 active torsions:
REMARK  status: ('A' for Active; 'I' for Inactive)
REMARK    1  A    between atoms: C_2  and  O_3 
REMARK    2  A    between atoms: O_3  and  C_4 
REMARK    3  A    between atoms: C_4  and  C_5 
REMARK    4  A    between atoms: C_6  and  C_7 
REMARK    5  A    between atoms: C_18  and  S_19 
REMARK    6  A    between atoms: S_19  and  C_20 
REMARK    7  A    between atoms: C_20  and  C_21 
ROOT
HETATM    1  C   UNL     1      40.662 -13.527   4.430  1.00  0.00     0.070 C 
HETATM    2  C   UNL     1      41.852 -14.319   3.881  1.00  0.00     0.204 C 
HETATM    3  N   UNL     1      42.394 -15.229   4.898  1.00  0.00    -0.082 N 
HETATM    4  C   UNL     1      41.748 -15.548   6.058  1.00  0.00     0.726 A 
HETATM    5  N   UNL     1      40.584 -14.940   6.349  1.00  0.00    -0.192 N 
HETATM    6  N   UNL     1      43.572 -15.875   4.796  1.00  0.00    -0.128 NA
HETATM    7  C   UNL     1      43.548 -16.616   5.911  1.00  0.00     0.226 A 
HETATM    8  N   UNL     1      42.444 -16.441   6.711  1.00  0.00    -0.035 NA
HETATM    9  C   UNL     1      40.075 -13.877   5.605  1.00  0.00     0.037 C 
HETATM   10  C   UNL     1      38.867 -13.192   6.197  1.00  0.00     0.070 C 
HETATM   11  H   UNL     1      40.162 -15.120   7.257  1.00  0.00     0.184 HD
ENDROOT
BRANCH   7  12
HETATM   12  S   UNL     1      44.793 -17.769   6.306  1.00  0.00    -0.083 SA
BRANCH  12  13
HETATM   13  C   UNL     1      43.904 -19.330   6.060  1.00  0.00     0.123 C 
BRANCH  13  14
HETATM   14  C   UNL     1      44.004 -19.806   4.629  1.00  0.00    -0.027 A 
HETATM   15  C   UNL     1      44.520 -21.063   4.273  1.00  0.00     0.041 A 
HETATM   16 CL   UNL     1      45.111 -22.177   5.454  1.00  0.00    -0.084 Cl
HETATM   17  C   UNL     1      44.571 -21.456   2.932  1.00  0.00     0.024 A 
HETATM   18  C   UNL     1      44.108 -20.603   1.929  1.00  0.00     0.002 A 
HETATM   19  C   UNL     1      43.591 -19.357   2.265  1.00  0.00     0.001 A 
HETATM   20  C   UNL     1      43.534 -18.962   3.603  1.00  0.00     0.009 A 
ENDBRANCH  13  14
ENDBRANCH  12  13
ENDBRANCH   7  12
BRANCH   2  21
HETATM   21  C   UNL     1      41.517 -15.140   2.633  1.00  0.00    -0.006 A 
HETATM   22  C   UNL     1      41.751 -14.657   1.332  1.00  0.00     0.042 A 
HETATM   23 CL   UNL     1      42.411 -13.089   1.028  1.00  0.00    -0.084 Cl
HETATM   24  C   UNL     1      41.447 -15.442   0.214  1.00  0.00     0.024 A 
HETATM   25  C   UNL     1      40.913 -16.720   0.371  1.00  0.00     0.002 A 
HETATM   26  C   UNL     1      40.684 -17.220   1.647  1.00  0.00     0.001 A 
HETATM   27  C   UNL     1      40.983 -16.441   2.767  1.00  0.00     0.011 A 
ENDBRANCH   2  21
BRANCH   1  28
HETATM   28  C   UNL     1      40.262 -12.300   3.692  1.00  0.00     0.293 C 
HETATM   29  O   UNL     1      40.976 -11.324   3.526  1.00  0.00    -0.259 OA
BRANCH  28  30
HETATM   30  O   UNL     1      39.011 -12.440   3.194  1.00  0.00    -0.318 OA
BRANCH  30  31
HETATM   31  C   UNL     1      38.895 -12.503   1.764  1.00  0.00     0.174 C 
HETATM   32  C   UNL     1      38.247 -13.812   1.351  1.00  0.00     0.034 C 
ENDBRANCH  30  31
ENDBRANCH  28  30
ENDBRANCH   1  28
TORSDOF 7
ENDMDL
MODEL 7
REMARK VINA RESULT:      -7.8      2.695      4.712
REMARK  7 active torsions:
REMARK  status: ('A' for Active; 'I' for Inactive)
REMARK    1  A    between atoms: C_2  and  O_3 
REMARK    2  A    between atoms: O_3  and  C_4 
REMARK    3  A    between atoms: C_4  and  C_5 
REMARK    4  A    between atoms: C_6  and  C_7 
REMARK    5  A    between atoms: C_18  and  S_19 
REMARK    6  A    between atoms: S_19  and  C_20 
REMARK    7  A    between atoms: C_20  and  C_21 
ROOT
HETATM    1  C   UNL     1      40.364 -13.042   3.801  1.00  0.00     0.070 C 
HETATM    2  C   UNL     1      40.874 -13.699   2.516  1.00  0.00     0.204 C 
HETATM    3  N   UNL     1      41.223 -15.107   2.745  1.00  0.00    -0.082 N 
HETATM    4  C   UNL     1      40.859 -15.811   3.857  1.00  0.00     0.726 A 
HETATM    5  N   UNL     1      40.216 -15.176   4.854  1.00  0.00    -0.192 N 
HETATM    6  N   UNL     1      41.914 -15.874   1.879  1.00  0.00    -0.128 NA
HETATM    7  C   UNL     1      41.881 -17.055   2.511  1.00  0.00     0.226 A 
HETATM    8  N   UNL     1      41.244 -17.054   3.729  1.00  0.00    -0.035 NA
HETATM    9  C   UNL     1      40.041 -13.795   4.887  1.00  0.00     0.037 C 
HETATM   10  C   UNL     1      39.480 -13.244   6.176  1.00  0.00     0.070 C 
HETATM   11  H   UNL     1      40.034 -15.693   5.712  1.00  0.00     0.184 HD
ENDROOT
BRANCH   7  12
HETATM   12  S   UNL     1      42.546 -18.512   1.825  1.00  0.00    -0.083 SA
BRANCH  12  13
HETATM   13  C   UNL     1      44.134 -18.606   2.696  1.00  0.00     0.123 C 
BRANCH  13  14
HETATM   14  C   UNL     1      44.371 -19.984   3.269  1.00  0.00    -0.027 A 
HETATM   15  C   UNL     1      44.681 -20.209   4.621  1.00  0.00     0.041 A 
HETATM   16 CL   UNL     1      44.842 -18.913   5.752  1.00  0.00    -0.084 Cl
HETATM   17  C   UNL     1      44.872 -21.510   5.098  1.00  0.00     0.024 A 
HETATM   18  C   UNL     1      44.755 -22.602   4.238  1.00  0.00     0.002 A 
HETATM   19  C   UNL     1      44.444 -22.396   2.898  1.00  0.00     0.001 A 
HETATM   20  C   UNL     1      44.249 -21.099   2.418  1.00  0.00     0.009 A 
ENDBRANCH  13  14
ENDBRANCH  12  13
ENDBRANCH   7  12
BRANCH   2  21
HETATM   21  C   UNL     1      39.875 -13.635   1.357  1.00  0.00    -0.006 A 
HETATM   22  C   UNL     1      40.234 -13.162   0.082  1.00  0.00     0.042 A 
HETATM   23 CL   UNL     1      41.823 -12.588  -0.282  1.00  0.00    -0.084 Cl
HETATM   24  C   UNL     1      39.298 -13.132  -0.958  1.00  0.00     0.024 A 
HETATM   25  C   UNL     1      37.994 -13.578  -0.749  1.00  0.00     0.002 A 
HETATM   26  C   UNL     1      37.622 -14.059   0.501  1.00  0.00     0.001 A 
HETATM   27  C   UNL     1      38.550 -14.089   1.543  1.00  0.00     0.011 A 
ENDBRANCH   2  21
BRANCH   1  28
HETATM   28  C   UNL     1      40.355 -11.556   3.850  1.00  0.00     0.293 C 
HETATM   29  O   UNL     1      41.304 -10.867   4.187  1.00  0.00    -0.259 OA
BRANCH  28  30
HETATM   30  O   UNL     1      39.160 -11.082   3.425  1.00  0.00    -0.318 OA
BRANCH  30  31
HETATM   31  C   UNL     1      39.196 -10.131   2.350  1.00  0.00     0.174 C 
HETATM   32  C   UNL     1      38.031 -10.366   1.408  1.00  0.00     0.034 C 
ENDBRANCH  30  31
ENDBRANCH  28  30
ENDBRANCH   1  28
TORSDOF 7
ENDMDL
MODEL 8
REMARK VINA RESULT:      -7.7      3.226      4.957
REMARK  7 active torsions:
REMARK  status: ('A' for Active; 'I' for Inactive)
REMARK    1  A    between atoms: C_2  and  O_3 
REMARK    2  A    between atoms: O_3  and  C_4 
REMARK    3  A    between atoms: C_4  and  C_5 
REMARK    4  A    between atoms: C_6  and  C_7 
REMARK    5  A    between atoms: C_18  and  S_19 
REMARK    6  A    between atoms: S_19  and  C_20 
REMARK    7  A    between atoms: C_20  and  C_21 
ROOT
HETATM    1  C   UNL     1      39.877 -13.940  -1.672  1.00  0.00     0.070 C 
HETATM    2  C   UNL     1      40.467 -13.428  -0.355  1.00  0.00     0.204 C 
HETATM    3  N   UNL     1      41.206 -14.491   0.340  1.00  0.00    -0.082 N 
HETATM    4  C   UNL     1      41.574 -15.670  -0.243  1.00  0.00     0.726 A 
HETATM    5  N   UNL     1      41.173 -15.933  -1.499  1.00  0.00    -0.192 N 
HETATM    6  N   UNL     1      41.630 -14.417   1.617  1.00  0.00    -0.128 NA
HETATM    7  C   UNL     1      42.301 -15.571   1.724  1.00  0.00     0.226 A 
HETATM    8  N   UNL     1      42.286 -16.367   0.603  1.00  0.00    -0.035 NA
HETATM    9  C   UNL     1      40.264 -15.136  -2.191  1.00  0.00     0.037 C 
HETATM   10  C   UNL     1      39.781 -15.697  -3.506  1.00  0.00     0.070 C 
HETATM   11  H   UNL     1      41.378 -16.853  -1.885  1.00  0.00     0.184 HD
ENDROOT
BRANCH   7  12
HETATM   12  S   UNL     1      43.183 -16.022   3.156  1.00  0.00    -0.083 SA
BRANCH  12  13
HETATM   13  C   UNL     1      42.323 -17.550   3.621  1.00  0.00     0.123 C 
BRANCH  13  14
HETATM   14  C   UNL     1      43.165 -18.770   3.330  1.00  0.00    -0.027 A 
HETATM   15  C   UNL     1      44.172 -19.230   4.195  1.00  0.00     0.041 A 
HETATM   16 CL   UNL     1      44.554 -18.417   5.671  1.00  0.00    -0.084 Cl
HETATM   17  C   UNL     1      44.907 -20.378   3.881  1.00  0.00     0.024 A 
HETATM   18  C   UNL     1      44.649 -21.082   2.705  1.00  0.00     0.002 A 
HETATM   19  C   UNL     1      43.652 -20.642   1.841  1.00  0.00     0.001 A 
HETATM   20  C   UNL     1      42.912 -19.499   2.152  1.00  0.00     0.009 A 
ENDBRANCH  13  14
ENDBRANCH  12  13
ENDBRANCH   7  12
BRANCH   2  21
HETATM   21  C   UNL     1      41.403 -12.229  -0.529  1.00  0.00    -0.006 A 
HETATM   22  C   UNL     1      41.274 -11.059   0.243  1.00  0.00     0.042 A 
HETATM   23 CL   UNL     1      40.036 -10.863   1.432  1.00  0.00    -0.084 Cl
HETATM   24  C   UNL     1      42.157  -9.988   0.067  1.00  0.00     0.024 A 
HETATM   25  C   UNL     1      43.186 -10.065  -0.871  1.00  0.00     0.002 A 
HETATM   26  C   UNL     1      43.337 -11.215  -1.636  1.00  0.00     0.001 A 
HETATM   27  C   UNL     1      42.457 -12.287  -1.467  1.00  0.00     0.011 A 
ENDBRANCH   2  21
BRANCH   1  28
HETATM   28  C   UNL     1      38.787 -13.138  -2.287  1.00  0.00     0.293 C 
HETATM   29  O   UNL     1      37.617 -13.175  -1.941  1.00  0.00    -0.259 OA
BRANCH  28  30
HETATM   30  O   UNL     1      39.286 -12.332  -3.253  1.00  0.00    -0.318 OA
BRANCH  30  31
HETATM   31  C   UNL     1      38.829 -10.970  -3.248  1.00  0.00     0.174 C 
HETATM   32  C   UNL     1      40.012 -10.024  -3.158  1.00  0.00     0.034 C 
ENDBRANCH  30  31
ENDBRANCH  28  30
ENDBRANCH   1  28
TORSDOF 7
ENDMDL
MODEL 9
REMARK VINA RESULT:      -7.6      3.365      5.678
REMARK  7 active torsions:
REMARK  status: ('A' for Active; 'I' for Inactive)
REMARK    1  A    between atoms: C_2  and  O_3 
REMARK    2  A    between atoms: O_3  and  C_4 
REMARK    3  A    between atoms: C_4  and  C_5 
REMARK    4  A    between atoms: C_6  and  C_7 
REMARK    5  A    between atoms: C_18  and  S_19 
REMARK    6  A    between atoms: S_19  and  C_20 
REMARK    7  A    between atoms: C_20  and  C_21 
ROOT
HETATM    1  C   UNL     1      41.439 -11.953   0.795  1.00  0.00     0.070 C 
HETATM    2  C   UNL     1      41.675 -13.243   0.005  1.00  0.00     0.204 C 
HETATM    3  N   UNL     1      41.649 -14.416   0.890  1.00  0.00    -0.082 N 
HETATM    4  C   UNL     1      41.179 -14.393   2.172  1.00  0.00     0.726 A 
HETATM    5  N   UNL     1      40.791 -13.222   2.707  1.00  0.00    -0.192 N 
HETATM    6  N   UNL     1      42.055 -15.650   0.535  1.00  0.00    -0.128 NA
HETATM    7  C   UNL     1      41.748 -16.342   1.640  1.00  0.00     0.226 A 
HETATM    8  N   UNL     1      41.210 -15.603   2.666  1.00  0.00    -0.035 NA
HETATM    9  C   UNL     1      40.994 -11.994   2.080  1.00  0.00     0.037 C 
HETATM   10  C   UNL     1      40.680 -10.779   2.918  1.00  0.00     0.070 C 
HETATM   11  H   UNL     1      40.531 -13.207   3.691  1.00  0.00     0.184 HD
ENDROOT
BRANCH   7  12
HETATM   12  S   UNL     1      41.956 -18.066   1.763  1.00  0.00    -0.083 SA
BRANCH  12  13
HETATM   13  C   UNL     1      43.581 -18.158   2.565  1.00  0.00     0.123 C 
BRANCH  13  14
HETATM   14  C   UNL     1      43.971 -19.587   2.866  1.00  0.00    -0.027 A 
HETATM   15  C   UNL     1      44.572 -19.980   4.073  1.00  0.00     0.041 A 
HETATM   16 CL   UNL     1      44.941 -18.846   5.324  1.00  0.00    -0.084 Cl
HETATM   17  C   UNL     1      44.894 -21.321   4.302  1.00  0.00     0.024 A 
HETATM   18  C   UNL     1      44.621 -22.288   3.334  1.00  0.00     0.002 A 
HETATM   19  C   UNL     1      44.023 -21.916   2.135  1.00  0.00     0.001 A 
HETATM   20  C   UNL     1      43.696 -20.578   1.903  1.00  0.00     0.009 A 
ENDBRANCH  13  14
ENDBRANCH  12  13
ENDBRANCH   7  12
BRANCH   2  21
HETATM   21  C   UNL     1      40.661 -13.468  -1.119  1.00  0.00    -0.006 A 
HETATM   22  C   UNL     1      41.029 -13.450  -2.477  1.00  0.00     0.042 A 
HETATM   23 CL   UNL     1      42.649 -13.148  -2.995  1.00  0.00    -0.084 Cl
HETATM   24  C   UNL     1      40.077 -13.674  -3.478  1.00  0.00     0.024 A 
HETATM   25  C   UNL     1      38.747 -13.927  -3.145  1.00  0.00     0.002 A 
HETATM   26  C   UNL     1      38.364 -13.959  -1.809  1.00  0.00     0.001 A 
HETATM   27  C   UNL     1      39.309 -13.734  -0.806  1.00  0.00     0.011 A 
ENDBRANCH   2  21
BRANCH   1  28
HETATM   28  C   UNL     1      41.829 -10.675   0.145  1.00  0.00     0.293 C 
HETATM   29  O   UNL     1      41.061  -9.760  -0.106  1.00  0.00    -0.259 OA
BRANCH  28  30
HETATM   30  O   UNL     1      43.163 -10.656  -0.088  1.00  0.00    -0.318 OA
BRANCH  30  31
HETATM   31  C   UNL     1      43.584 -10.108  -1.347  1.00  0.00     0.174 C 
HETATM   32  C   UNL     1      44.117  -8.702  -1.150  1.00  0.00     0.034 C 
ENDBRANCH  30  31
ENDBRANCH  28  30
ENDBRANCH   1  28
TORSDOF 7
ENDMDL
MODEL 10
REMARK VINA RESULT:      -7.5      3.534      7.594
REMARK  7 active torsions:
REMARK  status: ('A' for Active; 'I' for Inactive)
REMARK    1  A    between atoms: C_2  and  O_3 
REMARK    2  A    between atoms: O_3  and  C_4 
REMARK    3  A    between atoms: C_4  and  C_5 
REMARK    4  A    between atoms: C_6  and  C_7 
REMARK    5  A    between atoms: C_18  and  S_19 
REMARK    6  A    between atoms: S_19  and  C_20 
REMARK    7  A    between atoms: C_20  and  C_21 
ROOT
HETATM    1  C   UNL     1      42.278 -15.544   5.363  1.00  0.00     0.070 C 
HETATM    2  C   UNL     1      41.470 -16.220   4.252  1.00  0.00     0.204 C 
HETATM    3  N   UNL     1      40.627 -15.247   3.545  1.00  0.00    -0.082 N 
HETATM    4  C   UNL     1      40.771 -13.894   3.654  1.00  0.00     0.726 A 
HETATM    5  N   UNL     1      41.672 -13.397   4.520  1.00  0.00    -0.192 N 
HETATM    6  N   UNL     1      39.639 -15.572   2.689  1.00  0.00    -0.128 NA
HETATM    7  C   UNL     1      39.262 -14.357   2.271  1.00  0.00     0.226 A 
HETATM    8  N   UNL     1      39.933 -13.302   2.843  1.00  0.00    -0.035 NA
HETATM    9  C   UNL     1      42.363 -14.188   5.436  1.00  0.00     0.037 C 
HETATM   10  C   UNL     1      43.178 -13.434   6.458  1.00  0.00     0.070 C 
HETATM   11  H   UNL     1      41.702 -12.389   4.656  1.00  0.00     0.184 HD
ENDROOT
BRANCH   7  12
HETATM   12  S   UNL     1      38.047 -14.114   1.047  1.00  0.00    -0.083 SA
BRANCH  12  13
HETATM   13  C   UNL     1      38.997 -13.201  -0.201  1.00  0.00     0.123 C 
BRANCH  13  14
HETATM   14  C   UNL     1      39.355 -14.080  -1.377  1.00  0.00    -0.027 A 
HETATM   15  C   UNL     1      40.556 -14.805  -1.453  1.00  0.00     0.041 A 
HETATM   16 CL   UNL     1      41.748 -14.736  -0.205  1.00  0.00    -0.084 Cl
HETATM   17  C   UNL     1      40.825 -15.617  -2.560  1.00  0.00     0.024 A 
HETATM   18  C   UNL     1      39.904 -15.718  -3.602  1.00  0.00     0.002 A 
HETATM   19  C   UNL     1      38.709 -15.010  -3.539  1.00  0.00     0.001 A 
HETATM   20  C   UNL     1      38.434 -14.201  -2.435  1.00  0.00     0.009 A 
ENDBRANCH  13  14
ENDBRANCH  12  13
ENDBRANCH   7  12
BRANCH   2  21
HETATM   21  C   UNL     1      42.337 -16.945   3.219  1.00  0.00    -0.006 A 
HETATM   22  C   UNL     1      43.419 -16.317   2.575  1.00  0.00     0.042 A 
HETATM   23 CL   UNL     1      43.847 -14.669   2.872  1.00  0.00    -0.084 Cl
HETATM   24  C   UNL     1      44.199 -17.015   1.646  1.00  0.00     0.024 A 
HETATM   25  C   UNL     1      43.922 -18.349   1.350  1.00  0.00     0.002 A 
HETATM   26  C   UNL     1      42.865 -18.991   1.983  1.00  0.00     0.001 A 
HETATM   27  C   UNL     1      42.081 -18.299   2.908  1.00  0.00     0.011 A 
ENDBRANCH   2  21
BRANCH   1  28
HETATM   28  C   UNL     1      42.857 -16.420   6.415  1.00  0.00     0.293 C 
HETATM   29  O   UNL     1      42.235 -16.867   7.366  1.00  0.00    -0.259 OA
BRANCH  28  30
HETATM   30  O   UNL     1      44.156 -16.684   6.143  1.00  0.00    -0.318 OA
BRANCH  30  31
HETATM   31  C   UNL     1      44.652 -17.961   6.573  1.00  0.00     0.174 C 
HETATM   32  C   UNL     1      44.853 -18.872   5.377  1.00  0.00     0.034 C 
ENDBRANCH  30  31
ENDBRANCH  28  30
ENDBRANCH   1  28
TORSDOF 7
ENDMDL
