MODEL 1
REMARK VINA RESULT:      -7.6      0.000      0.000
REMARK  9 active torsions:
REMARK  status: ('A' for Active; 'I' for Inactive)
REMARK    1  A    between atoms: C_2  and  O_3 
REMARK    2  A    between atoms: O_3  and  C_4 
REMARK    3  A    between atoms: C_4  and  C_5 
REMARK    4  A    between atoms: C_7  and  C_8 
REMARK       I    between atoms: C_8  and  N_9 
REMARK    5  A    between atoms: N_9  and  N_10 
REMARK    6  A    between atoms: N_10  and  C_11 
REMARK    7  A    between atoms: C_11  and  N_12 
REMARK    8  A    between atoms: N_12  and  C_13 
REMARK    9  A    between atoms: C_13  and  C_14 
ROOT
HETATM    1  C   UNL     1      39.940 -11.339   6.648  1.00  0.00     0.293 C 
HETATM    2  N   UNL     1      40.289 -11.386   7.992  1.00  0.00    -0.262 N 
HETATM    3  O   UNL     1      38.858 -10.813   6.381  1.00  0.00    -0.264 OA
HETATM    4  H   UNL     1      39.633 -10.837   8.549  1.00  0.00     0.190 HD
ENDROOT
BRANCH   1   5
HETATM    5  C   UNL     1      40.786 -11.952   5.642  1.00  0.00     0.145 A 
HETATM    6  O   UNL     1      41.106 -13.276   5.835  1.00  0.00    -0.307 OA
HETATM    7  C   UNL     1      41.965 -13.658   4.852  1.00  0.00     0.078 A 
HETATM    8  C   UNL     1      42.191 -12.603   3.996  1.00  0.00     0.038 A 
HETATM    9  C   UNL     1      41.438 -11.512   4.503  1.00  0.00     0.045 A 
BRANCH   7  10
HETATM   10  C   UNL     1      42.460 -15.058   4.909  1.00  0.00     0.240 C 
BRANCH  10  11
HETATM   11  O   UNL     1      43.328 -15.227   3.788  1.00  0.00    -0.345 OA
BRANCH  11  12
HETATM   12  C   UNL     1      43.439 -16.489   3.273  1.00  0.00     0.069 A 
HETATM   13  C   UNL     1      43.705 -16.812   1.942  1.00  0.00     0.038 A 
HETATM   14  C   UNL     1      43.806 -18.153   1.552  1.00  0.00     0.022 A 
HETATM   15  C   UNL     1      43.639 -19.167   2.493  1.00  0.00     0.011 A 
HETATM   16  C   UNL     1      43.373 -18.855   3.823  1.00  0.00     0.022 A 
HETATM   17 BR   UNL     1      43.777 -20.975   1.961  1.00  0.00    -0.051 Br
HETATM   18  C   UNL     1      43.276 -17.515   4.209  1.00  0.00     0.038 A 
ENDBRANCH  11  12
ENDBRANCH  10  11
ENDBRANCH   7  10
ENDBRANCH   1   5
BRANCH   2  19
HETATM   19  N   UNL     1      41.627 -11.315   8.458  1.00  0.00    -0.274 N 
HETATM   20  H   UNL     1      42.208 -12.114   8.194  1.00  0.00     0.189 HD
BRANCH  19  21
HETATM   21  C   UNL     1      41.846 -10.779   9.704  1.00  0.00     0.186 C 
HETATM   22  S   UNL     1      41.394  -9.237  10.180  1.00  0.00    -0.040 SA
BRANCH  21  23
HETATM   23  N   UNL     1      42.475 -11.549  10.629  1.00  0.00    -0.364 N 
HETATM   24  H   UNL     1      41.904 -12.330  10.936  1.00  0.00     0.162 HD
BRANCH  23  25
HETATM   25  C   UNL     1      43.719 -11.334  11.364  1.00  0.00     0.154 C 
BRANCH  25  26
HETATM   26  C   UNL     1      44.955 -11.960  10.706  1.00  0.00     0.139 C 
HETATM   27  O   UNL     1      44.532 -13.056   9.858  1.00  0.00    -0.384 OA
HETATM   28  C   UNL     1      44.965 -12.778   8.518  1.00  0.00     0.168 C 
HETATM   29  C   UNL     1      46.147 -11.850   8.657  1.00  0.00     0.029 C 
HETATM   30  C   UNL     1      45.710 -10.982   9.811  1.00  0.00     0.035 C 
ENDBRANCH  25  26
ENDBRANCH  23  25
ENDBRANCH  21  23
ENDBRANCH  19  21
ENDBRANCH   2  19
TORSDOF 9
ENDMDL
MODEL 2
REMARK VINA RESULT:      -7.6      1.061      1.463
REMARK  9 active torsions:
REMARK  status: ('A' for Active; 'I' for Inactive)
REMARK    1  A    between atoms: C_2  and  O_3 
REMARK    2  A    between atoms: O_3  and  C_4 
REMARK    3  A    between atoms: C_4  and  C_5 
REMARK    4  A    between atoms: C_7  and  C_8 
REMARK       I    between atoms: C_8  and  N_9 
REMARK    5  A    between atoms: N_9  and  N_10 
REMARK    6  A    between atoms: N_10  and  C_11 
REMARK    7  A    between atoms: C_11  and  N_12 
REMARK    8  A    between atoms: N_12  and  C_13 
REMARK    9  A    between atoms: C_13  and  C_14 
ROOT
HETATM    1  C   UNL     1      39.978 -12.232   6.393  1.00  0.00     0.293 C 
HETATM    2  N   UNL     1      40.210 -11.781   7.686  1.00  0.00    -0.262 N 
HETATM    3  O   UNL     1      38.877 -11.962   5.909  1.00  0.00    -0.264 OA
HETATM    4  H   UNL     1      39.459 -11.159   7.987  1.00  0.00     0.190 HD
ENDROOT
BRANCH   1   5
HETATM    5  C   UNL     1      40.964 -13.041   5.703  1.00  0.00     0.145 A 
HETATM    6  O   UNL     1      40.834 -14.405   5.830  1.00  0.00    -0.307 OA
HETATM    7  C   UNL     1      41.881 -14.997   5.195  1.00  0.00     0.078 A 
HETATM    8  C   UNL     1      42.684 -14.034   4.627  1.00  0.00     0.038 A 
HETATM    9  C   UNL     1      42.098 -12.784   4.952  1.00  0.00     0.045 A 
BRANCH   7  10
HETATM   10  C   UNL     1      41.939 -16.481   5.251  1.00  0.00     0.240 C 
BRANCH  10  11
HETATM   11  O   UNL     1      43.317 -16.837   5.143  1.00  0.00    -0.345 OA
BRANCH  11  12
HETATM   12  C   UNL     1      43.610 -17.986   4.463  1.00  0.00     0.069 A 
HETATM   13  C   UNL     1      44.491 -18.985   4.879  1.00  0.00     0.038 A 
HETATM   14  C   UNL     1      44.690 -20.122   4.086  1.00  0.00     0.022 A 
HETATM   15  C   UNL     1      44.007 -20.256   2.878  1.00  0.00     0.011 A 
HETATM   16  C   UNL     1      43.126 -19.265   2.455  1.00  0.00     0.022 A 
HETATM   17 BR   UNL     1      44.277 -21.793   1.812  1.00  0.00    -0.051 Br
HETATM   18  C   UNL     1      42.930 -18.133   3.250  1.00  0.00     0.038 A 
ENDBRANCH  11  12
ENDBRANCH  10  11
ENDBRANCH   7  10
ENDBRANCH   1   5
BRANCH   2  19
HETATM   19  N   UNL     1      41.490 -11.395   8.163  1.00  0.00    -0.274 N 
HETATM   20  H   UNL     1      42.228 -12.081   7.990  1.00  0.00     0.189 HD
BRANCH  19  21
HETATM   21  C   UNL     1      41.552 -10.709   9.353  1.00  0.00     0.186 C 
HETATM   22  S   UNL     1      40.251  -9.967  10.103  1.00  0.00    -0.040 SA
BRANCH  21  23
HETATM   23  N   UNL     1      42.756 -10.619   9.975  1.00  0.00    -0.364 N 
HETATM   24  H   UNL     1      43.335  -9.876   9.594  1.00  0.00     0.162 HD
BRANCH  23  25
HETATM   25  C   UNL     1      43.401 -11.508  10.937  1.00  0.00     0.154 C 
BRANCH  25  26
HETATM   26  C   UNL     1      44.775 -12.026  10.492  1.00  0.00     0.139 C 
HETATM   27  O   UNL     1      44.586 -13.100   9.539  1.00  0.00    -0.384 OA
HETATM   28  C   UNL     1      45.232 -12.730   8.312  1.00  0.00     0.168 C 
HETATM   29  C   UNL     1      46.304 -11.741   8.700  1.00  0.00     0.029 C 
HETATM   30  C   UNL     1      45.611 -10.961   9.788  1.00  0.00     0.035 C 
ENDBRANCH  25  26
ENDBRANCH  23  25
ENDBRANCH  21  23
ENDBRANCH  19  21
ENDBRANCH   2  19
TORSDOF 9
ENDMDL
MODEL 3
REMARK VINA RESULT:      -7.6      2.615      3.199
REMARK  9 active torsions:
REMARK  status: ('A' for Active; 'I' for Inactive)
REMARK    1  A    between atoms: C_2  and  O_3 
REMARK    2  A    between atoms: O_3  and  C_4 
REMARK    3  A    between atoms: C_4  and  C_5 
REMARK    4  A    between atoms: C_7  and  C_8 
REMARK       I    between atoms: C_8  and  N_9 
REMARK    5  A    between atoms: N_9  and  N_10 
REMARK    6  A    between atoms: N_10  and  C_11 
REMARK    7  A    between atoms: C_11  and  N_12 
REMARK    8  A    between atoms: N_12  and  C_13 
REMARK    9  A    between atoms: C_13  and  C_14 
ROOT
HETATM    1  C   UNL     1      39.639 -13.158   5.616  1.00  0.00     0.293 C 
HETATM    2  N   UNL     1      40.310 -13.959   6.531  1.00  0.00    -0.262 N 
HETATM    3  O   UNL     1      39.029 -12.191   6.077  1.00  0.00    -0.264 OA
HETATM    4  H   UNL     1      40.303 -13.526   7.455  1.00  0.00     0.190 HD
ENDROOT
BRANCH   1   5
HETATM    5  C   UNL     1      39.611 -13.507   4.208  1.00  0.00     0.145 A 
HETATM    6  O   UNL     1      39.870 -14.822   3.898  1.00  0.00    -0.307 OA
HETATM    7  C   UNL     1      39.885 -14.949   2.544  1.00  0.00     0.078 A 
HETATM    8  C   UNL     1      39.610 -13.733   1.960  1.00  0.00     0.038 A 
HETATM    9  C   UNL     1      39.436 -12.811   3.024  1.00  0.00     0.045 A 
BRANCH   7  10
HETATM   10  C   UNL     1      40.187 -16.301   2.007  1.00  0.00     0.240 C 
BRANCH  10  11
HETATM   11  O   UNL     1      41.596 -16.340   1.776  1.00  0.00    -0.345 OA
BRANCH  11  12
HETATM   12  C   UNL     1      42.313 -17.276   2.466  1.00  0.00     0.069 A 
HETATM   13  C   UNL     1      42.249 -17.512   3.840  1.00  0.00     0.038 A 
HETATM   14  C   UNL     1      43.034 -18.518   4.418  1.00  0.00     0.022 A 
HETATM   15  C   UNL     1      43.881 -19.285   3.621  1.00  0.00     0.011 A 
HETATM   16  C   UNL     1      43.953 -19.057   2.250  1.00  0.00     0.022 A 
HETATM   17 BR   UNL     1      44.937 -20.641   4.405  1.00  0.00    -0.051 Br
HETATM   18  C   UNL     1      43.166 -18.054   1.677  1.00  0.00     0.038 A 
ENDBRANCH  11  12
ENDBRANCH  10  11
ENDBRANCH   7  10
ENDBRANCH   1   5
BRANCH   2  19
HETATM   19  N   UNL     1      41.517 -14.645   6.236  1.00  0.00    -0.274 N 
HETATM   20  H   UNL     1      41.646 -15.513   6.761  1.00  0.00     0.189 HD
BRANCH  19  21
HETATM   21  C   UNL     1      42.642 -13.893   6.000  1.00  0.00     0.186 C 
HETATM   22  S   UNL     1      43.461 -13.820   4.540  1.00  0.00    -0.040 SA
BRANCH  21  23
HETATM   23  N   UNL     1      43.137 -13.148   7.022  1.00  0.00    -0.364 N 
HETATM   24  H   UNL     1      42.646 -12.265   7.131  1.00  0.00     0.162 HD
BRANCH  23  25
HETATM   25  C   UNL     1      44.339 -13.320   7.834  1.00  0.00     0.154 C 
BRANCH  25  26
HETATM   26  C   UNL     1      44.827 -12.034   8.515  1.00  0.00     0.139 C 
HETATM   27  O   UNL     1      43.707 -11.126   8.662  1.00  0.00    -0.384 OA
HETATM   28  C   UNL     1      43.546 -10.838  10.059  1.00  0.00     0.168 C 
HETATM   29  C   UNL     1      44.902 -11.069  10.681  1.00  0.00     0.029 C 
HETATM   30  C   UNL     1      45.378 -12.278   9.916  1.00  0.00     0.035 C 
ENDBRANCH  25  26
ENDBRANCH  23  25
ENDBRANCH  21  23
ENDBRANCH  19  21
ENDBRANCH   2  19
TORSDOF 9
ENDMDL
MODEL 4
REMARK VINA RESULT:      -7.6      4.126      4.886
REMARK  9 active torsions:
REMARK  status: ('A' for Active; 'I' for Inactive)
REMARK    1  A    between atoms: C_2  and  O_3 
REMARK    2  A    between atoms: O_3  and  C_4 
REMARK    3  A    between atoms: C_4  and  C_5 
REMARK    4  A    between atoms: C_7  and  C_8 
REMARK       I    between atoms: C_8  and  N_9 
REMARK    5  A    between atoms: N_9  and  N_10 
REMARK    6  A    between atoms: N_10  and  C_11 
REMARK    7  A    between atoms: C_11  and  N_12 
REMARK    8  A    between atoms: N_12  and  C_13 
REMARK    9  A    between atoms: C_13  and  C_14 
ROOT
HETATM    1  C   UNL     1      40.649 -13.388   5.697  1.00  0.00     0.293 C 
HETATM    2  N   UNL     1      40.282 -14.383   6.594  1.00  0.00    -0.262 N 
HETATM    3  O   UNL     1      41.391 -12.506   6.132  1.00  0.00    -0.264 OA
HETATM    4  H   UNL     1      40.813 -14.296   7.460  1.00  0.00     0.190 HD
ENDROOT
BRANCH   1   5
HETATM    5  C   UNL     1      40.112 -13.370   4.350  1.00  0.00     0.145 A 
HETATM    6  O   UNL     1      40.383 -14.470   3.568  1.00  0.00    -0.307 OA
HETATM    7  C   UNL     1      39.880 -14.247   2.324  1.00  0.00     0.078 A 
HETATM    8  C   UNL     1      39.256 -13.020   2.289  1.00  0.00     0.038 A 
HETATM    9  C   UNL     1      39.406 -12.460   3.583  1.00  0.00     0.045 A 
BRANCH   7  10
HETATM   10  C   UNL     1      40.105 -15.314   1.316  1.00  0.00     0.240 C 
BRANCH  10  11
HETATM   11  O   UNL     1      41.504 -15.314   1.031  1.00  0.00    -0.345 OA
BRANCH  11  12
HETATM   12  C   UNL     1      42.203 -16.445   1.349  1.00  0.00     0.069 A 
HETATM   13  C   UNL     1      43.514 -16.493   1.826  1.00  0.00     0.038 A 
HETATM   14  C   UNL     1      44.107 -17.726   2.126  1.00  0.00     0.022 A 
HETATM   15  C   UNL     1      43.389 -18.907   1.947  1.00  0.00     0.011 A 
HETATM   16  C   UNL     1      42.082 -18.869   1.471  1.00  0.00     0.022 A 
HETATM   17 BR   UNL     1      44.194 -20.567   2.354  1.00  0.00    -0.051 Br
HETATM   18  C   UNL     1      41.492 -17.636   1.175  1.00  0.00     0.038 A 
ENDBRANCH  11  12
ENDBRANCH  10  11
ENDBRANCH   7  10
ENDBRANCH   1   5
BRANCH   2  19
HETATM   19  N   UNL     1      40.034 -15.729   6.214  1.00  0.00    -0.274 N 
HETATM   20  H   UNL     1      39.213 -16.146   6.657  1.00  0.00     0.189 HD
BRANCH  19  21
HETATM   21  C   UNL     1      41.119 -16.552   6.023  1.00  0.00     0.186 C 
HETATM   22  S   UNL     1      41.204 -17.781   4.888  1.00  0.00    -0.040 SA
BRANCH  21  23
HETATM   23  N   UNL     1      42.210 -16.362   6.809  1.00  0.00    -0.364 N 
HETATM   24  H   UNL     1      42.805 -15.611   6.471  1.00  0.00     0.162 HD
BRANCH  23  25
HETATM   25  C   UNL     1      42.743 -17.159   7.910  1.00  0.00     0.154 C 
BRANCH  25  26
HETATM   26  C   UNL     1      44.008 -17.952   7.557  1.00  0.00     0.139 C 
HETATM   27  O   UNL     1      43.653 -19.343   7.367  1.00  0.00    -0.384 OA
HETATM   28  C   UNL     1      44.026 -19.722   6.033  1.00  0.00     0.168 C 
HETATM   29  C   UNL     1      45.132 -18.774   5.637  1.00  0.00     0.029 C 
HETATM   30  C   UNL     1      44.657 -17.485   6.258  1.00  0.00     0.035 C 
ENDBRANCH  25  26
ENDBRANCH  23  25
ENDBRANCH  21  23
ENDBRANCH  19  21
ENDBRANCH   2  19
TORSDOF 9
ENDMDL
MODEL 5
REMARK VINA RESULT:      -7.5      2.792      4.647
REMARK  9 active torsions:
REMARK  status: ('A' for Active; 'I' for Inactive)
REMARK    1  A    between atoms: C_2  and  O_3 
REMARK    2  A    between atoms: O_3  and  C_4 
REMARK    3  A    between atoms: C_4  and  C_5 
REMARK    4  A    between atoms: C_7  and  C_8 
REMARK       I    between atoms: C_8  and  N_9 
REMARK    5  A    between atoms: N_9  and  N_10 
REMARK    6  A    between atoms: N_10  and  C_11 
REMARK    7  A    between atoms: C_11  and  N_12 
REMARK    8  A    between atoms: N_12  and  C_13 
REMARK    9  A    between atoms: C_13  and  C_14 
ROOT
HETATM    1  C   UNL     1      43.857 -12.347  11.085  1.00  0.00     0.293 C 
HETATM    2  N   UNL     1      42.694 -11.590  11.140  1.00  0.00    -0.262 N 
HETATM    3  O   UNL     1      44.186 -12.923  12.124  1.00  0.00    -0.264 OA
HETATM    4  H   UNL     1      42.208 -11.749  12.023  1.00  0.00     0.190 HD
ENDROOT
BRANCH   1   5
HETATM    5  C   UNL     1      44.665 -12.377   9.880  1.00  0.00     0.145 A 
HETATM    6  O   UNL     1      44.246 -13.230   8.884  1.00  0.00    -0.307 OA
HETATM    7  C   UNL     1      45.158 -13.192   7.876  1.00  0.00     0.078 A 
HETATM    8  C   UNL     1      46.159 -12.300   8.187  1.00  0.00     0.038 A 
HETATM    9  C   UNL     1      45.844 -11.780   9.469  1.00  0.00     0.045 A 
BRANCH   7  10
HETATM   10  C   UNL     1      44.900 -14.082   6.714  1.00  0.00     0.240 C 
BRANCH  10  11
HETATM   11  O   UNL     1      44.350 -15.289   7.242  1.00  0.00    -0.345 OA
BRANCH  11  12
HETATM   12  C   UNL     1      44.370 -16.388   6.430  1.00  0.00     0.069 A 
HETATM   13  C   UNL     1      45.089 -17.563   6.655  1.00  0.00     0.038 A 
HETATM   14  C   UNL     1      45.008 -18.622   5.743  1.00  0.00     0.022 A 
HETATM   15  C   UNL     1      44.209 -18.504   4.607  1.00  0.00     0.011 A 
HETATM   16  C   UNL     1      43.489 -17.336   4.373  1.00  0.00     0.022 A 
HETATM   17 BR   UNL     1      44.103 -19.936   3.379  1.00  0.00    -0.051 Br
HETATM   18  C   UNL     1      43.571 -16.282   5.288  1.00  0.00     0.038 A 
ENDBRANCH  11  12
ENDBRANCH  10  11
ENDBRANCH   7  10
ENDBRANCH   1   5
BRANCH   2  19
HETATM   19  N   UNL     1      41.820 -11.414  10.035  1.00  0.00    -0.274 N 
HETATM   20  H   UNL     1      42.289 -11.149   9.166  1.00  0.00     0.189 HD
BRANCH  19  21
HETATM   21  C   UNL     1      40.591 -10.846  10.273  1.00  0.00     0.186 C 
HETATM   22  S   UNL     1      39.366 -10.695   9.141  1.00  0.00    -0.040 SA
BRANCH  21  23
HETATM   23  N   UNL     1      40.342 -10.366  11.519  1.00  0.00    -0.364 N 
HETATM   24  H   UNL     1      40.074 -11.098  12.170  1.00  0.00     0.162 HD
BRANCH  23  25
HETATM   25  C   UNL     1      40.214  -8.995  12.005  1.00  0.00     0.154 C 
BRANCH  25  26
HETATM   26  C   UNL     1      41.165  -8.645  13.157  1.00  0.00     0.139 C 
HETATM   27  O   UNL     1      41.048  -9.657  14.187  1.00  0.00    -0.384 OA
HETATM   28  C   UNL     1      42.340 -10.252  14.380  1.00  0.00     0.168 C 
HETATM   29  C   UNL     1      43.337  -9.214  13.925  1.00  0.00     0.029 C 
HETATM   30  C   UNL     1      42.630  -8.625  12.731  1.00  0.00     0.035 C 
ENDBRANCH  25  26
ENDBRANCH  23  25
ENDBRANCH  21  23
ENDBRANCH  19  21
ENDBRANCH   2  19
TORSDOF 9
ENDMDL
MODEL 6
REMARK VINA RESULT:      -7.5      1.616      2.139
REMARK  9 active torsions:
REMARK  status: ('A' for Active; 'I' for Inactive)
REMARK    1  A    between atoms: C_2  and  O_3 
REMARK    2  A    between atoms: O_3  and  C_4 
REMARK    3  A    between atoms: C_4  and  C_5 
REMARK    4  A    between atoms: C_7  and  C_8 
REMARK       I    between atoms: C_8  and  N_9 
REMARK    5  A    between atoms: N_9  and  N_10 
REMARK    6  A    between atoms: N_10  and  C_11 
REMARK    7  A    between atoms: C_11  and  N_12 
REMARK    8  A    between atoms: N_12  and  C_13 
REMARK    9  A    between atoms: C_13  and  C_14 
ROOT
HETATM    1  C   UNL     1      39.096 -10.417   8.509  1.00  0.00     0.293 C 
HETATM    2  N   UNL     1      38.961 -10.973   9.774  1.00  0.00    -0.262 N 
HETATM    3  O   UNL     1      38.490  -9.364   8.305  1.00  0.00    -0.264 OA
HETATM    4  H   UNL     1      38.474 -10.327  10.396  1.00  0.00     0.190 HD
ENDROOT
BRANCH   1   5
HETATM    5  C   UNL     1      39.854 -11.100   7.477  1.00  0.00     0.145 A 
HETATM    6  O   UNL     1      39.300 -12.255   6.975  1.00  0.00    -0.307 OA
HETATM    7  C   UNL     1      40.177 -12.801   6.088  1.00  0.00     0.078 A 
HETATM    8  C   UNL     1      41.290 -11.999   5.983  1.00  0.00     0.038 A 
HETATM    9  C   UNL     1      41.084 -10.912   6.871  1.00  0.00     0.045 A 
BRANCH   7  10
HETATM   10  C   UNL     1      39.772 -14.085   5.460  1.00  0.00     0.240 C 
BRANCH  10  11
HETATM   11  O   UNL     1      40.542 -15.107   6.093  1.00  0.00    -0.345 OA
BRANCH  11  12
HETATM   12  C   UNL     1      41.335 -15.876   5.288  1.00  0.00     0.069 A 
HETATM   13  C   UNL     1      42.272 -15.406   4.368  1.00  0.00     0.038 A 
HETATM   14  C   UNL     1      43.030 -16.310   3.613  1.00  0.00     0.022 A 
HETATM   15  C   UNL     1      42.849 -17.682   3.781  1.00  0.00     0.011 A 
HETATM   16  C   UNL     1      41.916 -18.160   4.696  1.00  0.00     0.022 A 
HETATM   17 BR   UNL     1      43.875 -18.897   2.762  1.00  0.00    -0.051 Br
HETATM   18  C   UNL     1      41.163 -17.255   5.449  1.00  0.00     0.038 A 
ENDBRANCH  11  12
ENDBRANCH  10  11
ENDBRANCH   7  10
ENDBRANCH   1   5
BRANCH   2  19
HETATM   19  N   UNL     1      39.983 -11.718  10.417  1.00  0.00    -0.274 N 
HETATM   20  H   UNL     1      39.647 -12.530  10.939  1.00  0.00     0.189 HD
BRANCH  19  21
HETATM   21  C   UNL     1      41.036 -11.024  10.964  1.00  0.00     0.186 C 
HETATM   22  S   UNL     1      40.899  -9.603  11.840  1.00  0.00    -0.040 SA
BRANCH  21  23
HETATM   23  N   UNL     1      42.288 -11.520  10.786  1.00  0.00    -0.364 N 
HETATM   24  H   UNL     1      42.329 -12.211  10.042  1.00  0.00     0.162 HD
BRANCH  23  25
HETATM   25  C   UNL     1      43.498 -11.367  11.588  1.00  0.00     0.154 C 
BRANCH  25  26
HETATM   26  C   UNL     1      44.769 -11.908  10.919  1.00  0.00     0.139 C 
HETATM   27  O   UNL     1      44.405 -12.986  10.022  1.00  0.00    -0.384 OA
HETATM   28  C   UNL     1      44.837 -12.633   8.700  1.00  0.00     0.168 C 
HETATM   29  C   UNL     1      45.974 -11.659   8.891  1.00  0.00     0.029 C 
HETATM   30  C   UNL     1      45.486 -10.861  10.074  1.00  0.00     0.035 C 
ENDBRANCH  25  26
ENDBRANCH  23  25
ENDBRANCH  21  23
ENDBRANCH  19  21
ENDBRANCH   2  19
TORSDOF 9
ENDMDL
MODEL 7
REMARK VINA RESULT:      -7.5      6.184      8.032
REMARK  9 active torsions:
REMARK  status: ('A' for Active; 'I' for Inactive)
REMARK    1  A    between atoms: C_2  and  O_3 
REMARK    2  A    between atoms: O_3  and  C_4 
REMARK    3  A    between atoms: C_4  and  C_5 
REMARK    4  A    between atoms: C_7  and  C_8 
REMARK       I    between atoms: C_8  and  N_9 
REMARK    5  A    between atoms: N_9  and  N_10 
REMARK    6  A    between atoms: N_10  and  C_11 
REMARK    7  A    between atoms: C_11  and  N_12 
REMARK    8  A    between atoms: N_12  and  C_13 
REMARK    9  A    between atoms: C_13  and  C_14 
ROOT
HETATM    1  C   UNL     1      38.496 -14.278   0.925  1.00  0.00     0.293 C 
HETATM    2  N   UNL     1      39.064 -14.422  -0.334  1.00  0.00    -0.262 N 
HETATM    3  O   UNL     1      37.271 -14.145   0.962  1.00  0.00    -0.264 OA
HETATM    4  H   UNL     1      38.337 -14.536  -1.041  1.00  0.00     0.190 HD
ENDROOT
BRANCH   1   5
HETATM    5  C   UNL     1      39.331 -14.214   2.110  1.00  0.00     0.145 A 
HETATM    6  O   UNL     1      39.855 -15.406   2.555  1.00  0.00    -0.307 OA
HETATM    7  C   UNL     1      40.533 -15.171   3.711  1.00  0.00     0.078 A 
HETATM    8  C   UNL     1      40.483 -13.830   4.015  1.00  0.00     0.038 A 
HETATM    9  C   UNL     1      39.713 -13.218   2.993  1.00  0.00     0.045 A 
BRANCH   7  10
HETATM   10  C   UNL     1      41.148 -16.352   4.371  1.00  0.00     0.240 C 
BRANCH  10  11
HETATM   11  O   UNL     1      42.506 -16.401   3.933  1.00  0.00    -0.345 OA
BRANCH  11  12
HETATM   12  C   UNL     1      43.000 -17.625   3.577  1.00  0.00     0.069 A 
HETATM   13  C   UNL     1      43.906 -18.390   4.313  1.00  0.00     0.038 A 
HETATM   14  C   UNL     1      44.321 -19.639   3.834  1.00  0.00     0.022 A 
HETATM   15  C   UNL     1      43.830 -20.119   2.621  1.00  0.00     0.011 A 
HETATM   16  C   UNL     1      42.927 -19.363   1.881  1.00  0.00     0.022 A 
HETATM   17 BR   UNL     1      44.393 -21.805   1.981  1.00  0.00    -0.051 Br
HETATM   18  C   UNL     1      42.513 -18.118   2.363  1.00  0.00     0.038 A 
ENDBRANCH  11  12
ENDBRANCH  10  11
ENDBRANCH   7  10
ENDBRANCH   1   5
BRANCH   2  19
HETATM   19  N   UNL     1      40.226 -15.197  -0.587  1.00  0.00    -0.274 N 
HETATM   20  H   UNL     1      40.678 -15.563   0.253  1.00  0.00     0.189 HD
BRANCH  19  21
HETATM   21  C   UNL     1      41.053 -14.799  -1.610  1.00  0.00     0.186 C 
HETATM   22  S   UNL     1      40.921 -15.300  -3.203  1.00  0.00    -0.040 SA
BRANCH  21  23
HETATM   23  N   UNL     1      42.058 -13.933  -1.317  1.00  0.00    -0.364 N 
HETATM   24  H   UNL     1      42.301 -13.941  -0.331  1.00  0.00     0.162 HD
BRANCH  23  25
HETATM   25  C   UNL     1      42.689 -12.895  -2.127  1.00  0.00     0.154 C 
BRANCH  25  26
HETATM   26  C   UNL     1      42.342 -11.463  -1.695  1.00  0.00     0.139 C 
HETATM   27  O   UNL     1      43.340 -11.003  -0.752  1.00  0.00    -0.384 OA
HETATM   28  C   UNL     1      43.955  -9.823  -1.291  1.00  0.00     0.168 C 
HETATM   29  C   UNL     1      42.939  -9.233  -2.237  1.00  0.00     0.029 C 
HETATM   30  C   UNL     1      42.351 -10.475  -2.857  1.00  0.00     0.035 C 
ENDBRANCH  25  26
ENDBRANCH  23  25
ENDBRANCH  21  23
ENDBRANCH  19  21
ENDBRANCH   2  19
TORSDOF 9
ENDMDL
MODEL 8
REMARK VINA RESULT:      -7.5      4.357      7.129
REMARK  9 active torsions:
REMARK  status: ('A' for Active; 'I' for Inactive)
REMARK    1  A    between atoms: C_2  and  O_3 
REMARK    2  A    between atoms: O_3  and  C_4 
REMARK    3  A    between atoms: C_4  and  C_5 
REMARK    4  A    between atoms: C_7  and  C_8 
REMARK       I    between atoms: C_8  and  N_9 
REMARK    5  A    between atoms: N_9  and  N_10 
REMARK    6  A    between atoms: N_10  and  C_11 
REMARK    7  A    between atoms: C_11  and  N_12 
REMARK    8  A    between atoms: N_12  and  C_13 
REMARK    9  A    between atoms: C_13  and  C_14 
ROOT
HETATM    1  C   UNL     1      43.710 -15.104   6.638  1.00  0.00     0.293 C 
HETATM    2  N   UNL     1      42.977 -16.095   7.278  1.00  0.00    -0.262 N 
HETATM    3  O   UNL     1      44.750 -14.747   7.194  1.00  0.00    -0.264 OA
HETATM    4  H   UNL     1      43.504 -16.478   8.062  1.00  0.00     0.190 HD
ENDROOT
BRANCH   1   5
HETATM    5  C   UNL     1      43.216 -14.485   5.422  1.00  0.00     0.145 A 
HETATM    6  O   UNL     1      41.853 -14.510   5.233  1.00  0.00    -0.307 OA
HETATM    7  C   UNL     1      41.579 -13.968   4.016  1.00  0.00     0.078 A 
HETATM    8  C   UNL     1      42.749 -13.560   3.415  1.00  0.00     0.038 A 
HETATM    9  C   UNL     1      43.795 -13.892   4.314  1.00  0.00     0.045 A 
BRANCH   7  10
HETATM   10  C   UNL     1      40.151 -13.938   3.609  1.00  0.00     0.240 C 
BRANCH  10  11
HETATM   11  O   UNL     1      39.898 -15.165   2.924  1.00  0.00    -0.345 OA
BRANCH  11  12
HETATM   12  C   UNL     1      40.239 -15.220   1.602  1.00  0.00     0.069 A 
HETATM   13  C   UNL     1      41.109 -16.141   1.015  1.00  0.00     0.038 A 
HETATM   14  C   UNL     1      41.361 -16.091  -0.361  1.00  0.00     0.022 A 
HETATM   15  C   UNL     1      40.743 -15.120  -1.148  1.00  0.00     0.011 A 
HETATM   16  C   UNL     1      39.875 -14.197  -0.572  1.00  0.00     0.022 A 
HETATM   17 BR   UNL     1      41.086 -15.058  -3.005  1.00  0.00    -0.051 Br
HETATM   18  C   UNL     1      39.624 -14.252   0.802  1.00  0.00     0.038 A 
ENDBRANCH  11  12
ENDBRANCH  10  11
ENDBRANCH   7  10
ENDBRANCH   1   5
BRANCH   2  19
HETATM   19  N   UNL     1      42.200 -17.064   6.590  1.00  0.00    -0.274 N 
HETATM   20  H   UNL     1      41.268 -17.211   6.982  1.00  0.00     0.189 HD
BRANCH  19  21
HETATM   21  C   UNL     1      42.846 -18.173   6.099  1.00  0.00     0.186 C 
HETATM   22  S   UNL     1      43.830 -19.190   6.997  1.00  0.00    -0.040 SA
BRANCH  21  23
HETATM   23  N   UNL     1      42.682 -18.477   4.785  1.00  0.00    -0.364 N 
HETATM   24  H   UNL     1      42.207 -19.365   4.649  1.00  0.00     0.162 HD
BRANCH  23  25
HETATM   25  C   UNL     1      43.227 -17.849   3.585  1.00  0.00     0.154 C 
BRANCH  25  26
HETATM   26  C   UNL     1      43.957 -18.818   2.645  1.00  0.00     0.139 C 
HETATM   27  O   UNL     1      44.848 -19.650   3.427  1.00  0.00    -0.384 OA
HETATM   28  C   UNL     1      44.472 -21.021   3.225  1.00  0.00     0.168 C 
HETATM   29  C   UNL     1      43.777 -21.058   1.886  1.00  0.00     0.029 C 
HETATM   30  C   UNL     1      43.008 -19.762   1.913  1.00  0.00     0.035 C 
ENDBRANCH  25  26
ENDBRANCH  23  25
ENDBRANCH  21  23
ENDBRANCH  19  21
ENDBRANCH   2  19
TORSDOF 9
ENDMDL
MODEL 9
REMARK VINA RESULT:      -7.4      2.568      3.909
REMARK  9 active torsions:
REMARK  status: ('A' for Active; 'I' for Inactive)
REMARK    1  A    between atoms: C_2  and  O_3 
REMARK    2  A    between atoms: O_3  and  C_4 
REMARK    3  A    between atoms: C_4  and  C_5 
REMARK    4  A    between atoms: C_7  and  C_8 
REMARK       I    between atoms: C_8  and  N_9 
REMARK    5  A    between atoms: N_9  and  N_10 
REMARK    6  A    between atoms: N_10  and  C_11 
REMARK    7  A    between atoms: C_11  and  N_12 
REMARK    8  A    between atoms: N_12  and  C_13 
REMARK    9  A    between atoms: C_13  and  C_14 
ROOT
HETATM    1  C   UNL     1      44.583 -12.703   8.630  1.00  0.00     0.293 C 
HETATM    2  N   UNL     1      43.924 -11.486   8.741  1.00  0.00    -0.262 N 
HETATM    3  O   UNL     1      45.478 -12.919   9.449  1.00  0.00    -0.264 OA
HETATM    4  H   UNL     1      44.203 -11.007   9.598  1.00  0.00     0.190 HD
ENDROOT
BRANCH   1   5
HETATM    5  C   UNL     1      44.267 -13.620   7.551  1.00  0.00     0.145 A 
HETATM    6  O   UNL     1      44.496 -14.955   7.795  1.00  0.00    -0.307 OA
HETATM    7  C   UNL     1      44.227 -15.652   6.658  1.00  0.00     0.078 A 
HETATM    8  C   UNL     1      43.797 -14.789   5.675  1.00  0.00     0.038 A 
HETATM    9  C   UNL     1      43.824 -13.491   6.246  1.00  0.00     0.045 A 
BRANCH   7  10
HETATM   10  C   UNL     1      44.451 -17.120   6.711  1.00  0.00     0.240 C 
BRANCH  10  11
HETATM   11  O   UNL     1      43.300 -17.726   6.121  1.00  0.00    -0.345 OA
BRANCH  11  12
HETATM   12  C   UNL     1      43.516 -18.592   5.086  1.00  0.00     0.069 A 
HETATM   13  C   UNL     1      43.051 -18.441   3.779  1.00  0.00     0.038 A 
HETATM   14  C   UNL     1      43.359 -19.402   2.808  1.00  0.00     0.022 A 
HETATM   15  C   UNL     1      44.131 -20.512   3.147  1.00  0.00     0.011 A 
HETATM   16  C   UNL     1      44.599 -20.672   4.448  1.00  0.00     0.022 A 
HETATM   17 BR   UNL     1      44.545 -21.806   1.833  1.00  0.00    -0.051 Br
HETATM   18  C   UNL     1      44.292 -19.709   5.413  1.00  0.00     0.038 A 
ENDBRANCH  11  12
ENDBRANCH  10  11
ENDBRANCH   7  10
ENDBRANCH   1   5
BRANCH   2  19
HETATM   19  N   UNL     1      42.556 -11.301   8.409  1.00  0.00    -0.274 N 
HETATM   20  H   UNL     1      42.396 -10.954   7.461  1.00  0.00     0.189 HD
BRANCH  19  21
HETATM   21  C   UNL     1      41.715 -10.830   9.390  1.00  0.00     0.186 C 
HETATM   22  S   UNL     1      40.530  -9.668   9.163  1.00  0.00    -0.040 SA
BRANCH  21  23
HETATM   23  N   UNL     1      41.849 -11.338  10.642  1.00  0.00    -0.364 N 
HETATM   24  H   UNL     1      42.519 -12.101  10.682  1.00  0.00     0.162 HD
BRANCH  23  25
HETATM   25  C   UNL     1      41.071 -11.102  11.855  1.00  0.00     0.154 C 
BRANCH  25  26
HETATM   26  C   UNL     1      41.524  -9.880  12.665  1.00  0.00     0.139 C 
HETATM   27  O   UNL     1      41.121 -10.054  14.045  1.00  0.00    -0.384 OA
HETATM   28  C   UNL     1      42.300 -10.016  14.864  1.00  0.00     0.168 C 
HETATM   29  C   UNL     1      43.316  -9.226  14.075  1.00  0.00     0.029 C 
HETATM   30  C   UNL     1      43.039  -9.701  12.671  1.00  0.00     0.035 C 
ENDBRANCH  25  26
ENDBRANCH  23  25
ENDBRANCH  21  23
ENDBRANCH  19  21
ENDBRANCH   2  19
TORSDOF 9
ENDMDL
MODEL 10
REMARK VINA RESULT:      -7.3      2.210      3.254
REMARK  9 active torsions:
REMARK  status: ('A' for Active; 'I' for Inactive)
REMARK    1  A    between atoms: C_2  and  O_3 
REMARK    2  A    between atoms: O_3  and  C_4 
REMARK    3  A    between atoms: C_4  and  C_5 
REMARK    4  A    between atoms: C_7  and  C_8 
REMARK       I    between atoms: C_8  and  N_9 
REMARK    5  A    between atoms: N_9  and  N_10 
REMARK    6  A    between atoms: N_10  and  C_11 
REMARK    7  A    between atoms: C_11  and  N_12 
REMARK    8  A    between atoms: N_12  and  C_13 
REMARK    9  A    between atoms: C_13  and  C_14 
ROOT
HETATM    1  C   UNL     1      42.048 -12.934   5.781  1.00  0.00     0.293 C 
HETATM    2  N   UNL     1      42.779 -12.654   6.929  1.00  0.00    -0.262 N 
HETATM    3  O   UNL     1      41.617 -11.963   5.156  1.00  0.00    -0.264 OA
HETATM    4  H   UNL     1      42.963 -11.653   6.998  1.00  0.00     0.190 HD
ENDROOT
BRANCH   1   5
HETATM    5  C   UNL     1      41.758 -14.305   5.404  1.00  0.00     0.145 A 
HETATM    6  O   UNL     1      42.280 -14.733   4.206  1.00  0.00    -0.307 OA
HETATM    7  C   UNL     1      41.841 -16.000   3.976  1.00  0.00     0.078 A 
HETATM    8  C   UNL     1      41.058 -16.419   5.027  1.00  0.00     0.038 A 
HETATM    9  C   UNL     1      41.004 -15.335   5.940  1.00  0.00     0.045 A 
BRANCH   7  10
HETATM   10  C   UNL     1      42.272 -16.630   2.700  1.00  0.00     0.240 C 
BRANCH  10  11
HETATM   11  O   UNL     1      43.655 -16.950   2.853  1.00  0.00    -0.345 OA
BRANCH  11  12
HETATM   12  C   UNL     1      43.959 -18.223   3.244  1.00  0.00     0.069 A 
HETATM   13  C   UNL     1      44.008 -19.347   2.418  1.00  0.00     0.038 A 
HETATM   14  C   UNL     1      44.348 -20.597   2.950  1.00  0.00     0.022 A 
HETATM   15  C   UNL     1      44.638 -20.720   4.308  1.00  0.00     0.011 A 
HETATM   16  C   UNL     1      44.592 -19.605   5.140  1.00  0.00     0.022 A 
HETATM   17 BR   UNL     1      45.098 -22.408   5.021  1.00  0.00    -0.051 Br
HETATM   18  C   UNL     1      44.254 -18.360   4.604  1.00  0.00     0.038 A 
ENDBRANCH  11  12
ENDBRANCH  10  11
ENDBRANCH   7  10
ENDBRANCH   1   5
BRANCH   2  19
HETATM   19  N   UNL     1      43.850 -13.461   7.393  1.00  0.00    -0.274 N 
HETATM   20  H   UNL     1      43.613 -14.449   7.509  1.00  0.00     0.189 HD
BRANCH  19  21
HETATM   21  C   UNL     1      44.707 -12.919   8.320  1.00  0.00     0.186 C 
HETATM   22  S   UNL     1      46.259 -12.377   7.994  1.00  0.00    -0.040 SA
BRANCH  21  23
HETATM   23  N   UNL     1      44.273 -12.810   9.603  1.00  0.00    -0.364 N 
HETATM   24  H   UNL     1      43.349 -13.209   9.734  1.00  0.00     0.162 HD
BRANCH  23  25
HETATM   25  C   UNL     1      44.821 -12.069  10.736  1.00  0.00     0.154 C 
BRANCH  25  26
HETATM   26  C   UNL     1      43.873 -11.008  11.311  1.00  0.00     0.139 C 
HETATM   27  O   UNL     1      42.943 -10.599  10.278  1.00  0.00    -0.384 OA
HETATM   28  C   UNL     1      41.612 -10.869  10.741  1.00  0.00     0.168 C 
HETATM   29  C   UNL     1      41.698 -10.866  12.247  1.00  0.00     0.029 C 
HETATM   30  C   UNL     1      43.032 -11.531  12.471  1.00  0.00     0.035 C 
ENDBRANCH  25  26
ENDBRANCH  23  25
ENDBRANCH  21  23
ENDBRANCH  19  21
ENDBRANCH   2  19
TORSDOF 9
ENDMDL
