MODEL 1
REMARK VINA RESULT:      -7.3      0.000      0.000
REMARK  6 active torsions:
REMARK  status: ('A' for Active; 'I' for Inactive)
REMARK    1  A    between atoms: C_2  and  O_3 
REMARK    2  A    between atoms: O_3  and  C_4 
REMARK    3  A    between atoms: C_4  and  C_5 
REMARK    4  A    between atoms: C_6  and  O_7 
REMARK    5  A    between atoms: C_12  and  O_13 
REMARK    6  A    between atoms: C_17  and  C_18 
ROOT
HETATM    1  C   UNL     1      42.847 -18.683   3.891  1.00  0.00     0.133 C 
HETATM    2  C   UNL     1      43.753 -19.265   2.741  1.00  0.00     0.073 C 
HETATM    3  C   UNL     1      43.012 -20.411   2.016  1.00  0.00     0.047 C 
HETATM    4  C   UNL     1      44.183 -18.193   1.703  1.00  0.00     0.097 C 
HETATM    5  C   UNL     1      42.982 -17.447   1.277  1.00  0.00     0.042 A 
HETATM    6  C   UNL     1      41.895 -17.166   2.074  1.00  0.00     0.030 A 
HETATM    7  C   UNL     1      41.018 -16.507   1.203  1.00  0.00     0.190 A 
HETATM    8  N   UNL     1      41.485 -16.390  -0.035  1.00  0.00    -0.149 NA
HETATM    9  N   UNL     1      42.701 -16.963   0.033  1.00  0.00    -0.279 N 
HETATM   10  H   UNL     1      43.265 -16.999  -0.810  1.00  0.00     0.189 HD
HETATM   11  C   UNL     1      41.812 -17.571   3.510  1.00  0.00     0.074 C 
ENDROOT
BRANCH  11  12
HETATM   12  C   UNL     1      41.847 -16.268   4.304  1.00  0.00    -0.048 A 
HETATM   13  C   UNL     1      42.881 -15.349   4.064  1.00  0.00     0.009 A 
HETATM   14  C   UNL     1      42.951 -14.146   4.773  1.00  0.00     0.024 A 
HETATM   15  C   UNL     1      41.985 -13.844   5.730  1.00  0.00     0.034 A 
HETATM   16 CL   UNL     1      42.068 -12.362   6.597  1.00  0.00    -0.084 Cl
HETATM   17  C   UNL     1      40.944 -14.732   5.977  1.00  0.00     0.024 A 
HETATM   18  C   UNL     1      40.872 -15.929   5.263  1.00  0.00     0.009 A 
ENDBRANCH  11  12
BRANCH   1  19
HETATM   19  C   UNL     1      43.617 -18.393   5.161  1.00  0.00     0.267 C 
HETATM   20  O   UNL     1      44.753 -17.927   5.138  1.00  0.00    -0.265 OA
BRANCH  19  21
HETATM   21  O   UNL     1      42.916 -18.674   6.288  1.00  0.00    -0.321 OA
BRANCH  21  22
HETATM   22  C   UNL     1      43.590 -18.361   7.517  1.00  0.00     0.174 C 
HETATM   23  C   UNL     1      43.225 -16.972   8.012  1.00  0.00     0.034 C 
ENDBRANCH  21  22
ENDBRANCH  19  21
ENDBRANCH   1  19
BRANCH   2  24
HETATM   24  O   UNL     1      44.951 -19.859   3.265  1.00  0.00    -0.389 OA
HETATM   25  H   UNL     1      45.661 -19.782   2.602  1.00  0.00     0.210 HD
ENDBRANCH   2  24
BRANCH   7  26
HETATM   26  O   UNL     1      39.811 -15.989   1.440  1.00  0.00    -0.343 OA
HETATM   27  H   UNL     1      39.148 -16.462   0.917  1.00  0.00     0.219 HD
ENDBRANCH   7  26
TORSDOF 6
ENDMDL
MODEL 2
REMARK VINA RESULT:      -6.9      2.827      4.397
REMARK  6 active torsions:
REMARK  status: ('A' for Active; 'I' for Inactive)
REMARK    1  A    between atoms: C_2  and  O_3 
REMARK    2  A    between atoms: O_3  and  C_4 
REMARK    3  A    between atoms: C_4  and  C_5 
REMARK    4  A    between atoms: C_6  and  O_7 
REMARK    5  A    between atoms: C_12  and  O_13 
REMARK    6  A    between atoms: C_17  and  C_18 
ROOT
HETATM    1  C   UNL     1      42.465 -17.910   5.895  1.00  0.00     0.133 C 
HETATM    2  C   UNL     1      43.685 -18.396   6.763  1.00  0.00     0.073 C 
HETATM    3  C   UNL     1      43.383 -19.789   7.361  1.00  0.00     0.047 C 
HETATM    4  C   UNL     1      45.016 -18.456   5.965  1.00  0.00     0.097 C 
HETATM    5  C   UNL     1      44.772 -19.190   4.707  1.00  0.00     0.042 A 
HETATM    6  C   UNL     1      43.597 -19.175   3.991  1.00  0.00     0.030 A 
HETATM    7  C   UNL     1      43.851 -20.061   2.936  1.00  0.00     0.190 A 
HETATM    8  N   UNL     1      45.062 -20.604   2.977  1.00  0.00    -0.149 NA
HETATM    9  N   UNL     1      45.620 -20.047   4.067  1.00  0.00    -0.279 N 
HETATM   10  H   UNL     1      46.567 -20.314   4.314  1.00  0.00     0.189 HD
HETATM   11  C   UNL     1      42.405 -18.373   4.400  1.00  0.00     0.074 C 
ENDROOT
BRANCH  11  12
HETATM   12  C   UNL     1      42.253 -17.295   3.330  1.00  0.00    -0.048 A 
HETATM   13  C   UNL     1      41.057 -17.221   2.597  1.00  0.00     0.009 A 
HETATM   14  C   UNL     1      40.881 -16.250   1.607  1.00  0.00     0.024 A 
HETATM   15  C   UNL     1      41.898 -15.337   1.337  1.00  0.00     0.034 A 
HETATM   16 CL   UNL     1      41.678 -14.141   0.122  1.00  0.00    -0.084 Cl
HETATM   17  C   UNL     1      43.087 -15.382   2.056  1.00  0.00     0.024 A 
HETATM   18  C   UNL     1      43.258 -16.347   3.051  1.00  0.00     0.009 A 
ENDBRANCH  11  12
BRANCH   1  19
HETATM   19  C   UNL     1      42.142 -16.445   6.095  1.00  0.00     0.267 C 
HETATM   20  O   UNL     1      43.023 -15.601   6.232  1.00  0.00    -0.265 OA
BRANCH  19  21
HETATM   21  O   UNL     1      40.811 -16.182   6.078  1.00  0.00    -0.321 OA
BRANCH  21  22
HETATM   22  C   UNL     1      40.467 -14.789   6.026  1.00  0.00     0.174 C 
HETATM   23  C   UNL     1      40.042 -14.374   4.628  1.00  0.00     0.034 C 
ENDBRANCH  21  22
ENDBRANCH  19  21
ENDBRANCH   1  19
BRANCH   2  24
HETATM   24  O   UNL     1      43.901 -17.537   7.894  1.00  0.00    -0.389 OA
HETATM   25  H   UNL     1      44.690 -16.988   7.731  1.00  0.00     0.210 HD
ENDBRANCH   2  24
BRANCH   7  26
HETATM   26  O   UNL     1      43.066 -20.420   1.917  1.00  0.00    -0.343 OA
HETATM   27  H   UNL     1      43.590 -20.458   1.104  1.00  0.00     0.219 HD
ENDBRANCH   7  26
TORSDOF 6
ENDMDL
MODEL 3
REMARK VINA RESULT:      -6.9      3.014      4.688
REMARK  6 active torsions:
REMARK  status: ('A' for Active; 'I' for Inactive)
REMARK    1  A    between atoms: C_2  and  O_3 
REMARK    2  A    between atoms: O_3  and  C_4 
REMARK    3  A    between atoms: C_4  and  C_5 
REMARK    4  A    between atoms: C_6  and  O_7 
REMARK    5  A    between atoms: C_12  and  O_13 
REMARK    6  A    between atoms: C_17  and  C_18 
ROOT
HETATM    1  C   UNL     1      43.364 -16.810   3.806  1.00  0.00     0.133 C 
HETATM    2  C   UNL     1      43.288 -18.332   4.205  1.00  0.00     0.073 C 
HETATM    3  C   UNL     1      44.713 -18.890   4.422  1.00  0.00     0.047 C 
HETATM    4  C   UNL     1      42.435 -18.586   5.477  1.00  0.00     0.097 C 
HETATM    5  C   UNL     1      42.882 -17.653   6.532  1.00  0.00     0.042 A 
HETATM    6  C   UNL     1      43.349 -16.376   6.320  1.00  0.00     0.030 A 
HETATM    7  C   UNL     1      43.693 -15.941   7.606  1.00  0.00     0.190 A 
HETATM    8  N   UNL     1      43.483 -16.851   8.550  1.00  0.00    -0.149 NA
HETATM    9  N   UNL     1      42.972 -17.895   7.872  1.00  0.00    -0.279 N 
HETATM   10  H   UNL     1      42.728 -18.733   8.389  1.00  0.00     0.189 HD
HETATM   11  C   UNL     1      43.439 -15.757   4.963  1.00  0.00     0.074 C 
ENDROOT
BRANCH  11  12
HETATM   12  C   UNL     1      42.410 -14.629   4.961  1.00  0.00    -0.048 A 
HETATM   13  C   UNL     1      42.732 -13.411   4.341  1.00  0.00     0.009 A 
HETATM   14  C   UNL     1      41.818 -12.353   4.321  1.00  0.00     0.024 A 
HETATM   15  C   UNL     1      40.569 -12.499   4.919  1.00  0.00     0.034 A 
HETATM   16 CL   UNL     1      39.445 -11.199   4.889  1.00  0.00    -0.084 Cl
HETATM   17  C   UNL     1      40.222 -13.699   5.529  1.00  0.00     0.024 A 
HETATM   18  C   UNL     1      41.132 -14.758   5.540  1.00  0.00     0.009 A 
ENDBRANCH  11  12
BRANCH   1  19
HETATM   19  C   UNL     1      42.399 -16.439   2.702  1.00  0.00     0.267 C 
HETATM   20  O   UNL     1      42.765 -15.837   1.696  1.00  0.00    -0.265 OA
BRANCH  19  21
HETATM   21  O   UNL     1      41.130 -16.859   2.935  1.00  0.00    -0.321 OA
BRANCH  21  22
HETATM   22  C   UNL     1      40.183 -16.535   1.906  1.00  0.00     0.174 C 
HETATM   23  C   UNL     1      39.479 -15.220   2.194  1.00  0.00     0.034 C 
ENDBRANCH  21  22
ENDBRANCH  19  21
ENDBRANCH   1  19
BRANCH   2  24
HETATM   24  O   UNL     1      42.728 -19.125   3.147  1.00  0.00    -0.389 OA
HETATM   25  H   UNL     1      43.184 -18.911   2.313  1.00  0.00     0.210 HD
ENDBRANCH   2  24
BRANCH   7  26
HETATM   26  O   UNL     1      44.183 -14.765   8.005  1.00  0.00    -0.343 OA
HETATM   27  H   UNL     1      44.220 -14.741   8.972  1.00  0.00     0.219 HD
ENDBRANCH   7  26
TORSDOF 6
ENDMDL
MODEL 4
REMARK VINA RESULT:      -6.8      0.985      1.546
REMARK  6 active torsions:
REMARK  status: ('A' for Active; 'I' for Inactive)
REMARK    1  A    between atoms: C_2  and  O_3 
REMARK    2  A    between atoms: O_3  and  C_4 
REMARK    3  A    between atoms: C_4  and  C_5 
REMARK    4  A    between atoms: C_6  and  O_7 
REMARK    5  A    between atoms: C_12  and  O_13 
REMARK    6  A    between atoms: C_17  and  C_18 
ROOT
HETATM    1  C   UNL     1      42.410 -18.155   4.088  1.00  0.00     0.133 C 
HETATM    2  C   UNL     1      43.474 -18.737   3.083  1.00  0.00     0.073 C 
HETATM    3  C   UNL     1      42.875 -19.940   2.321  1.00  0.00     0.047 C 
HETATM    4  C   UNL     1      43.988 -17.685   2.062  1.00  0.00     0.097 C 
HETATM    5  C   UNL     1      42.820 -17.009   1.461  1.00  0.00     0.042 A 
HETATM    6  C   UNL     1      41.632 -16.748   2.107  1.00  0.00     0.030 A 
HETATM    7  C   UNL     1      40.845 -16.161   1.108  1.00  0.00     0.190 A 
HETATM    8  N   UNL     1      41.458 -16.067  -0.067  1.00  0.00    -0.149 NA
HETATM    9  N   UNL     1      42.678 -16.583   0.173  1.00  0.00    -0.279 N 
HETATM   10  H   UNL     1      43.343 -16.624  -0.592  1.00  0.00     0.189 HD
HETATM   11  C   UNL     1      41.387 -17.105   3.537  1.00  0.00     0.074 C 
ENDROOT
BRANCH  11  12
HETATM   12  C   UNL     1      41.272 -15.774   4.275  1.00  0.00    -0.048 A 
HETATM   13  C   UNL     1      40.346 -15.650   5.324  1.00  0.00     0.009 A 
HETATM   14  C   UNL     1      40.209 -14.447   6.022  1.00  0.00     0.024 A 
HETATM   15  C   UNL     1      40.997 -13.350   5.682  1.00  0.00     0.034 A 
HETATM   16 CL   UNL     1      40.830 -11.872   6.545  1.00  0.00    -0.084 Cl
HETATM   17  C   UNL     1      41.929 -13.450   4.655  1.00  0.00     0.024 A 
HETATM   18  C   UNL     1      42.071 -14.655   3.965  1.00  0.00     0.009 A 
ENDBRANCH  11  12
BRANCH   1  19
HETATM   19  C   UNL     1      43.004 -17.785   5.429  1.00  0.00     0.267 C 
HETATM   20  O   UNL     1      42.522 -18.189   6.484  1.00  0.00    -0.265 OA
BRANCH  19  21
HETATM   21  O   UNL     1      44.108 -17.004   5.330  1.00  0.00    -0.321 OA
BRANCH  21  22
HETATM   22  C   UNL     1      44.673 -16.587   6.583  1.00  0.00     0.174 C 
HETATM   23  C   UNL     1      44.243 -15.176   6.944  1.00  0.00     0.034 C 
ENDBRANCH  21  22
ENDBRANCH  19  21
ENDBRANCH   1  19
BRANCH   2  24
HETATM   24  O   UNL     1      44.620 -19.259   3.774  1.00  0.00    -0.389 OA
HETATM   25  H   UNL     1      44.339 -19.602   4.642  1.00  0.00     0.210 HD
ENDBRANCH   2  24
BRANCH   7  26
HETATM   26  O   UNL     1      39.598 -15.688   1.173  1.00  0.00    -0.343 OA
HETATM   27  H   UNL     1      39.218 -15.655   0.284  1.00  0.00     0.219 HD
ENDBRANCH   7  26
TORSDOF 6
ENDMDL
MODEL 5
REMARK VINA RESULT:      -6.6      3.218      5.276
REMARK  6 active torsions:
REMARK  status: ('A' for Active; 'I' for Inactive)
REMARK    1  A    between atoms: C_2  and  O_3 
REMARK    2  A    between atoms: O_3  and  C_4 
REMARK    3  A    between atoms: C_4  and  C_5 
REMARK    4  A    between atoms: C_6  and  O_7 
REMARK    5  A    between atoms: C_12  and  O_13 
REMARK    6  A    between atoms: C_17  and  C_18 
ROOT
HETATM    1  C   UNL     1      41.625 -13.945   2.876  1.00  0.00     0.133 C 
HETATM    2  C   UNL     1      40.247 -13.186   2.948  1.00  0.00     0.073 C 
HETATM    3  C   UNL     1      40.408 -11.751   2.397  1.00  0.00     0.047 C 
HETATM    4  C   UNL     1      39.112 -13.910   2.175  1.00  0.00     0.097 C 
HETATM    5  C   UNL     1      39.607 -14.245   0.824  1.00  0.00     0.042 A 
HETATM    6  C   UNL     1      40.906 -14.576   0.511  1.00  0.00     0.030 A 
HETATM    7  C   UNL     1      40.871 -14.739  -0.880  1.00  0.00     0.190 A 
HETATM    8  N   UNL     1      39.674 -14.520  -1.412  1.00  0.00    -0.149 NA
HETATM    9  N   UNL     1      38.905 -14.229  -0.346  1.00  0.00    -0.279 N 
HETATM   10  H   UNL     1      37.925 -14.016  -0.503  1.00  0.00     0.189 HD
HETATM   11  C   UNL     1      41.992 -14.663   1.533  1.00  0.00     0.074 C 
ENDROOT
BRANCH  11  12
HETATM   12  C   UNL     1      42.371 -16.140   1.600  1.00  0.00    -0.048 A 
HETATM   13  C   UNL     1      43.723 -16.494   1.732  1.00  0.00     0.009 A 
HETATM   14  C   UNL     1      44.111 -17.836   1.794  1.00  0.00     0.024 A 
HETATM   15  C   UNL     1      43.151 -18.843   1.726  1.00  0.00     0.034 A 
HETATM   16 CL   UNL     1      43.629 -20.492   1.807  1.00  0.00    -0.084 Cl
HETATM   17  C   UNL     1      41.804 -18.518   1.607  1.00  0.00     0.024 A 
HETATM   18  C   UNL     1      41.418 -17.177   1.554  1.00  0.00     0.009 A 
ENDBRANCH  11  12
BRANCH   1  19
HETATM   19  C   UNL     1      41.909 -14.774   4.110  1.00  0.00     0.267 C 
HETATM   20  O   UNL     1      42.987 -14.716   4.695  1.00  0.00    -0.265 OA
BRANCH  19  21
HETATM   21  O   UNL     1      40.858 -15.542   4.493  1.00  0.00    -0.321 OA
BRANCH  21  22
HETATM   22  C   UNL     1      41.107 -16.393   5.623  1.00  0.00     0.174 C 
HETATM   23  C   UNL     1      41.491 -17.796   5.187  1.00  0.00     0.034 C 
ENDBRANCH  21  22
ENDBRANCH  19  21
ENDBRANCH   1  19
BRANCH   2  24
HETATM   24  O   UNL     1      39.806 -13.024   4.305  1.00  0.00    -0.389 OA
HETATM   25  H   UNL     1      40.324 -13.615   4.881  1.00  0.00     0.210 HD
ENDBRANCH   2  24
BRANCH   7  26
HETATM   26  O   UNL     1      41.848 -15.082  -1.722  1.00  0.00    -0.343 OA
HETATM   27  H   UNL     1      41.474 -15.258  -2.597  1.00  0.00     0.219 HD
ENDBRANCH   7  26
TORSDOF 6
ENDMDL
MODEL 6
REMARK VINA RESULT:      -6.6      2.919      4.566
REMARK  6 active torsions:
REMARK  status: ('A' for Active; 'I' for Inactive)
REMARK    1  A    between atoms: C_2  and  O_3 
REMARK    2  A    between atoms: O_3  and  C_4 
REMARK    3  A    between atoms: C_4  and  C_5 
REMARK    4  A    between atoms: C_6  and  O_7 
REMARK    5  A    between atoms: C_12  and  O_13 
REMARK    6  A    between atoms: C_17  and  C_18 
ROOT
HETATM    1  C   UNL     1      41.401 -16.464   1.837  1.00  0.00     0.133 C 
HETATM    2  C   UNL     1      41.403 -15.171   0.937  1.00  0.00     0.073 C 
HETATM    3  C   UNL     1      39.990 -14.930   0.360  1.00  0.00     0.047 C 
HETATM    4  C   UNL     1      41.873 -13.901   1.698  1.00  0.00     0.097 C 
HETATM    5  C   UNL     1      41.124 -13.814   2.968  1.00  0.00     0.042 A 
HETATM    6  C   UNL     1      40.701 -14.889   3.717  1.00  0.00     0.030 A 
HETATM    7  C   UNL     1      39.999 -14.290   4.771  1.00  0.00     0.190 A 
HETATM    8  N   UNL     1      39.961 -12.964   4.701  1.00  0.00    -0.149 NA
HETATM    9  N   UNL     1      40.670 -12.689   3.590  1.00  0.00    -0.279 N 
HETATM   10  H   UNL     1      40.781 -11.717   3.318  1.00  0.00     0.189 HD
HETATM   11  C   UNL     1      40.978 -16.307   3.337  1.00  0.00     0.074 C 
ENDROOT
BRANCH  11  12
HETATM   12  C   UNL     1      41.935 -16.835   4.402  1.00  0.00    -0.048 A 
HETATM   13  C   UNL     1      43.059 -16.070   4.751  1.00  0.00     0.009 A 
HETATM   14  C   UNL     1      43.961 -16.521   5.720  1.00  0.00     0.024 A 
HETATM   15  C   UNL     1      43.749 -17.743   6.355  1.00  0.00     0.034 A 
HETATM   16 CL   UNL     1      44.856 -18.294   7.549  1.00  0.00    -0.084 Cl
HETATM   17  C   UNL     1      42.637 -18.513   6.035  1.00  0.00     0.024 A 
HETATM   18  C   UNL     1      41.733 -18.057   5.074  1.00  0.00     0.009 A 
ENDBRANCH  11  12
BRANCH   1  19
HETATM   19  C   UNL     1      42.626 -17.328   1.634  1.00  0.00     0.267 C 
HETATM   20  O   UNL     1      43.738 -16.842   1.447  1.00  0.00    -0.265 OA
BRANCH  19  21
HETATM   21  O   UNL     1      42.363 -18.657   1.709  1.00  0.00    -0.321 OA
BRANCH  21  22
HETATM   22  C   UNL     1      43.513 -19.511   1.611  1.00  0.00     0.174 C 
HETATM   23  C   UNL     1      44.058 -19.869   2.983  1.00  0.00     0.034 C 
ENDBRANCH  21  22
ENDBRANCH  19  21
ENDBRANCH   1  19
BRANCH   2  24
HETATM   24  O   UNL     1      42.259 -15.328  -0.206  1.00  0.00    -0.389 OA
HETATM   25  H   UNL     1      41.931 -14.761  -0.928  1.00  0.00     0.210 HD
ENDBRANCH   2  24
BRANCH   7  26
HETATM   26  O   UNL     1      39.386 -14.853   5.815  1.00  0.00    -0.343 OA
HETATM   27  H   UNL     1      39.771 -15.724   5.985  1.00  0.00     0.219 HD
ENDBRANCH   7  26
TORSDOF 6
ENDMDL
MODEL 7
REMARK VINA RESULT:      -6.5      2.952      4.882
REMARK  6 active torsions:
REMARK  status: ('A' for Active; 'I' for Inactive)
REMARK    1  A    between atoms: C_2  and  O_3 
REMARK    2  A    between atoms: O_3  and  C_4 
REMARK    3  A    between atoms: C_4  and  C_5 
REMARK    4  A    between atoms: C_6  and  O_7 
REMARK    5  A    between atoms: C_12  and  O_13 
REMARK    6  A    between atoms: C_17  and  C_18 
ROOT
HETATM    1  C   UNL     1      42.356 -14.673   4.467  1.00  0.00     0.133 C 
HETATM    2  C   UNL     1      41.060 -13.860   4.842  1.00  0.00     0.073 C 
HETATM    3  C   UNL     1      41.299 -12.351   4.608  1.00  0.00     0.047 C 
HETATM    4  C   UNL     1      39.806 -14.312   4.047  1.00  0.00     0.097 C 
HETATM    5  C   UNL     1      40.156 -14.362   2.612  1.00  0.00     0.042 A 
HETATM    6  C   UNL     1      41.390 -14.699   2.106  1.00  0.00     0.030 A 
HETATM    7  C   UNL     1      41.226 -14.538   0.724  1.00  0.00     0.190 A 
HETATM    8  N   UNL     1      40.013 -14.125   0.376  1.00  0.00    -0.149 NA
HETATM    9  N   UNL     1      39.363 -14.034   1.552  1.00  0.00    -0.279 N 
HETATM   10  H   UNL     1      38.396 -13.726   1.546  1.00  0.00     0.189 HD
HETATM   11  C   UNL     1      42.546 -15.088   2.969  1.00  0.00     0.074 C 
ENDROOT
BRANCH  11  12
HETATM   12  C   UNL     1      42.799 -16.563   2.669  1.00  0.00    -0.048 A 
HETATM   13  C   UNL     1      44.057 -16.958   2.185  1.00  0.00     0.009 A 
HETATM   14  C   UNL     1      44.326 -18.299   1.896  1.00  0.00     0.024 A 
HETATM   15  C   UNL     1      43.342 -19.265   2.090  1.00  0.00     0.034 A 
HETATM   16 CL   UNL     1      43.677 -20.914   1.739  1.00  0.00    -0.084 Cl
HETATM   17  C   UNL     1      42.093 -18.902   2.580  1.00  0.00     0.024 A 
HETATM   18  C   UNL     1      41.828 -17.564   2.876  1.00  0.00     0.009 A 
ENDBRANCH  11  12
BRANCH   1  19
HETATM   19  C   UNL     1      42.668 -15.777   5.452  1.00  0.00     0.267 C 
HETATM   20  O   UNL     1      41.784 -16.458   5.964  1.00  0.00    -0.265 OA
BRANCH  19  21
HETATM   21  O   UNL     1      43.997 -15.937   5.676  1.00  0.00    -0.321 OA
BRANCH  21  22
HETATM   22  C   UNL     1      44.345 -17.059   6.502  1.00  0.00     0.174 C 
HETATM   23  C   UNL     1      44.719 -18.270   5.666  1.00  0.00     0.034 C 
ENDBRANCH  21  22
ENDBRANCH  19  21
ENDBRANCH   1  19
BRANCH   2  24
HETATM   24  O   UNL     1      40.750 -13.982   6.239  1.00  0.00    -0.389 OA
HETATM   25  H   UNL     1      40.302 -13.169   6.538  1.00  0.00     0.210 HD
ENDBRANCH   2  24
BRANCH   7  26
HETATM   26  O   UNL     1      42.096 -14.745  -0.267  1.00  0.00    -0.343 OA
HETATM   27  H   UNL     1      42.826 -14.113  -0.194  1.00  0.00     0.219 HD
ENDBRANCH   7  26
TORSDOF 6
ENDMDL
MODEL 8
REMARK VINA RESULT:      -6.4      2.899      4.847
REMARK  6 active torsions:
REMARK  status: ('A' for Active; 'I' for Inactive)
REMARK    1  A    between atoms: C_2  and  O_3 
REMARK    2  A    between atoms: O_3  and  C_4 
REMARK    3  A    between atoms: C_4  and  C_5 
REMARK    4  A    between atoms: C_6  and  O_7 
REMARK    5  A    between atoms: C_12  and  O_13 
REMARK    6  A    between atoms: C_17  and  C_18 
ROOT
HETATM    1  C   UNL     1      43.634 -16.720   5.197  1.00  0.00     0.133 C 
HETATM    2  C   UNL     1      42.433 -16.007   5.924  1.00  0.00     0.073 C 
HETATM    3  C   UNL     1      42.615 -14.473   5.858  1.00  0.00     0.047 C 
HETATM    4  C   UNL     1      41.049 -16.387   5.331  1.00  0.00     0.097 C 
HETATM    5  C   UNL     1      41.112 -16.233   3.863  1.00  0.00     0.042 A 
HETATM    6  C   UNL     1      42.225 -16.459   3.086  1.00  0.00     0.030 A 
HETATM    7  C   UNL     1      41.793 -16.120   1.798  1.00  0.00     0.190 A 
HETATM    8  N   UNL     1      40.534 -15.702   1.751  1.00  0.00    -0.149 NA
HETATM    9  N   UNL     1      40.126 -15.790   3.031  1.00  0.00    -0.279 N 
HETATM   10  H   UNL     1      39.175 -15.515   3.254  1.00  0.00     0.189 HD
HETATM   11  C   UNL     1      43.530 -16.924   3.648  1.00  0.00     0.074 C 
ENDROOT
BRANCH  11  12
HETATM   12  C   UNL     1      43.726 -18.337   3.105  1.00  0.00    -0.048 A 
HETATM   13  C   UNL     1      44.978 -18.958   3.248  1.00  0.00     0.009 A 
HETATM   14  C   UNL     1      45.198 -20.249   2.761  1.00  0.00     0.024 A 
HETATM   15  C   UNL     1      44.169 -20.941   2.127  1.00  0.00     0.034 A 
HETATM   16 CL   UNL     1      44.440 -22.531   1.534  1.00  0.00    -0.084 Cl
HETATM   17  C   UNL     1      42.917 -20.354   1.984  1.00  0.00     0.024 A 
HETATM   18  C   UNL     1      42.696 -19.067   2.478  1.00  0.00     0.009 A 
ENDBRANCH  11  12
BRANCH   1  19
HETATM   19  C   UNL     1      44.138 -17.937   5.942  1.00  0.00     0.267 C 
HETATM   20  O   UNL     1      45.312 -18.047   6.283  1.00  0.00    -0.265 OA
BRANCH  19  21
HETATM   21  O   UNL     1      43.166 -18.847   6.202  1.00  0.00    -0.321 OA
BRANCH  21  22
HETATM   22  C   UNL     1      43.583 -19.975   6.987  1.00  0.00     0.174 C 
HETATM   23  C   UNL     1      43.973 -21.150   6.107  1.00  0.00     0.034 C 
ENDBRANCH  21  22
ENDBRANCH  19  21
ENDBRANCH   1  19
BRANCH   2  24
HETATM   24  O   UNL     1      42.402 -16.325   7.324  1.00  0.00    -0.389 OA
HETATM   25  H   UNL     1      42.564 -15.513   7.839  1.00  0.00     0.210 HD
ENDBRANCH   2  24
BRANCH   7  26
HETATM   26  O   UNL     1      42.454 -16.164   0.638  1.00  0.00    -0.343 OA
HETATM   27  H   UNL     1      43.383 -15.937   0.787  1.00  0.00     0.219 HD
ENDBRANCH   7  26
TORSDOF 6
ENDMDL
MODEL 9
REMARK VINA RESULT:      -6.4      3.644      6.160
REMARK  6 active torsions:
REMARK  status: ('A' for Active; 'I' for Inactive)
REMARK    1  A    between atoms: C_2  and  O_3 
REMARK    2  A    between atoms: O_3  and  C_4 
REMARK    3  A    between atoms: C_4  and  C_5 
REMARK    4  A    between atoms: C_6  and  O_7 
REMARK    5  A    between atoms: C_12  and  O_13 
REMARK    6  A    between atoms: C_17  and  C_18 
ROOT
HETATM    1  C   UNL     1      42.272 -15.051   3.885  1.00  0.00     0.133 C 
HETATM    2  C   UNL     1      42.866 -13.737   4.518  1.00  0.00     0.073 C 
HETATM    3  C   UNL     1      41.774 -13.003   5.329  1.00  0.00     0.047 C 
HETATM    4  C   UNL     1      44.095 -14.001   5.429  1.00  0.00     0.097 C 
HETATM    5  C   UNL     1      43.752 -15.085   6.372  1.00  0.00     0.042 A 
HETATM    6  C   UNL     1      42.921 -16.146   6.096  1.00  0.00     0.030 A 
HETATM    7  C   UNL     1      42.873 -16.843   7.310  1.00  0.00     0.190 A 
HETATM    8  N   UNL     1      43.589 -16.279   8.276  1.00  0.00    -0.149 NA
HETATM    9  N   UNL     1      44.134 -15.204   7.676  1.00  0.00    -0.279 N 
HETATM   10  H   UNL     1      44.734 -14.598   8.226  1.00  0.00     0.189 HD
HETATM   11  C   UNL     1      42.269 -16.346   4.766  1.00  0.00     0.074 C 
ENDROOT
BRANCH  11  12
HETATM   12  C   UNL     1      42.910 -17.601   4.182  1.00  0.00    -0.048 A 
HETATM   13  C   UNL     1      42.297 -18.240   3.093  1.00  0.00     0.009 A 
HETATM   14  C   UNL     1      42.851 -19.395   2.532  1.00  0.00     0.024 A 
HETATM   15  C   UNL     1      44.030 -19.925   3.051  1.00  0.00     0.034 A 
HETATM   16 CL   UNL     1      44.714 -21.341   2.357  1.00  0.00    -0.084 Cl
HETATM   17  C   UNL     1      44.664 -19.304   4.122  1.00  0.00     0.024 A 
HETATM   18  C   UNL     1      44.113 -18.147   4.675  1.00  0.00     0.009 A 
ENDBRANCH  11  12
BRANCH   1  19
HETATM   19  C   UNL     1      42.729 -15.281   2.461  1.00  0.00     0.267 C 
HETATM   20  O   UNL     1      43.914 -15.429   2.177  1.00  0.00    -0.265 OA
BRANCH  19  21
HETATM   21  O   UNL     1      41.706 -15.328   1.571  1.00  0.00    -0.321 OA
BRANCH  21  22
HETATM   22  C   UNL     1      40.540 -14.578   1.944  1.00  0.00     0.174 C 
HETATM   23  C   UNL     1      39.287 -15.434   1.884  1.00  0.00     0.034 C 
ENDBRANCH  21  22
ENDBRANCH  19  21
ENDBRANCH   1  19
BRANCH   2  24
HETATM   24  O   UNL     1      43.276 -12.804   3.505  1.00  0.00    -0.389 OA
HETATM   25  H   UNL     1      43.626 -13.298   2.741  1.00  0.00     0.210 HD
ENDBRANCH   2  24
BRANCH   7  26
HETATM   26  O   UNL     1      42.229 -17.971   7.621  1.00  0.00    -0.343 OA
HETATM   27  H   UNL     1      41.367 -17.982   7.182  1.00  0.00     0.219 HD
ENDBRANCH   7  26
TORSDOF 6
ENDMDL
MODEL 10
REMARK VINA RESULT:      -6.4      2.818      4.674
REMARK  6 active torsions:
REMARK  status: ('A' for Active; 'I' for Inactive)
REMARK    1  A    between atoms: C_2  and  O_3 
REMARK    2  A    between atoms: O_3  and  C_4 
REMARK    3  A    between atoms: C_4  and  C_5 
REMARK    4  A    between atoms: C_6  and  O_7 
REMARK    5  A    between atoms: C_12  and  O_13 
REMARK    6  A    between atoms: C_17  and  C_18 
ROOT
HETATM    1  C   UNL     1      42.083 -15.597   4.700  1.00  0.00     0.133 C 
HETATM    2  C   UNL     1      40.668 -15.115   4.205  1.00  0.00     0.073 C 
HETATM    3  C   UNL     1      40.789 -13.722   3.546  1.00  0.00     0.047 C 
HETATM    4  C   UNL     1      40.003 -16.101   3.207  1.00  0.00     0.097 C 
HETATM    5  C   UNL     1      40.986 -16.436   2.157  1.00  0.00     0.042 A 
HETATM    6  C   UNL     1      42.346 -16.534   2.342  1.00  0.00     0.030 A 
HETATM    7  C   UNL     1      42.828 -16.806   1.055  1.00  0.00     0.190 A 
HETATM    8  N   UNL     1      41.876 -16.863   0.131  1.00  0.00    -0.149 NA
HETATM    9  N   UNL     1      40.747 -16.645   0.830  1.00  0.00    -0.279 N 
HETATM   10  H   UNL     1      39.864 -16.637   0.329  1.00  0.00     0.189 HD
HETATM   11  C   UNL     1      43.004 -16.332   3.668  1.00  0.00     0.074 C 
ENDROOT
BRANCH  11  12
HETATM   12  C   UNL     1      43.559 -17.698   4.060  1.00  0.00    -0.048 A 
HETATM   13  C   UNL     1      43.142 -18.836   3.349  1.00  0.00     0.009 A 
HETATM   14  C   UNL     1      43.624 -20.106   3.681  1.00  0.00     0.024 A 
HETATM   15  C   UNL     1      44.533 -20.256   4.725  1.00  0.00     0.034 A 
HETATM   16 CL   UNL     1      45.128 -21.817   5.128  1.00  0.00    -0.084 Cl
HETATM   17  C   UNL     1      44.970 -19.144   5.437  1.00  0.00     0.024 A 
HETATM   18  C   UNL     1      44.494 -17.876   5.100  1.00  0.00     0.009 A 
ENDBRANCH  11  12
BRANCH   1  19
HETATM   19  C   UNL     1      42.040 -16.259   6.060  1.00  0.00     0.267 C 
HETATM   20  O   UNL     1      41.255 -17.168   6.314  1.00  0.00    -0.265 OA
BRANCH  19  21
HETATM   21  O   UNL     1      42.957 -15.763   6.927  1.00  0.00    -0.321 OA
BRANCH  21  22
HETATM   22  C   UNL     1      43.468 -14.462   6.595  1.00  0.00     0.174 C 
HETATM   23  C   UNL     1      44.942 -14.340   6.941  1.00  0.00     0.034 C 
ENDBRANCH  21  22
ENDBRANCH  19  21
ENDBRANCH   1  19
BRANCH   2  24
HETATM   24  O   UNL     1      39.759 -14.937   5.303  1.00  0.00    -0.389 OA
HETATM   25  H   UNL     1      39.285 -14.093   5.189  1.00  0.00     0.210 HD
ENDBRANCH   2  24
BRANCH   7  26
HETATM   26  O   UNL     1      44.079 -17.019   0.641  1.00  0.00    -0.343 OA
HETATM   27  H   UNL     1      44.153 -16.789  -0.296  1.00  0.00     0.219 HD
ENDBRANCH   7  26
TORSDOF 6
ENDMDL
