MODEL 1
REMARK VINA RESULT:      -8.6      0.000      0.000
REMARK  7 active torsions:
REMARK  status: ('A' for Active; 'I' for Inactive)
REMARK    1  A    between atoms: C_8  and  C_9 
REMARK    2  A    between atoms: C_9  and  N_10 
REMARK    3  A    between atoms: C_9  and  C_14 
REMARK       I    between atoms: C_14  and  N_15 
REMARK    4  A    between atoms: N_15  and  C_16 
REMARK    5  A    between atoms: C_16  and  C_17 
REMARK    6  A    between atoms: C_17  and  C_18 
REMARK    7  A    between atoms: C_20  and  C_21 
ROOT
HETATM    1  C   UNL     1      40.992 -15.551   0.575  1.00  0.00     0.253 C 
HETATM    2  N   UNL     1      42.276 -15.963   0.314  1.00  0.00    -0.359 N 
HETATM    3  O   UNL     1      40.245 -16.106   1.384  1.00  0.00    -0.271 OA
HETATM    4  H   UNL     1      42.753 -15.638  -0.523  1.00  0.00     0.162 HD
ENDROOT
BRANCH   1   5
HETATM    5  C   UNL     1      40.506 -14.267  -0.136  1.00  0.00     0.311 C 
BRANCH   5   6
HETATM    6  C   UNL     1      41.250 -13.995  -1.397  1.00  0.00     0.031 A 
HETATM    7  C   UNL     1      41.252 -14.701  -2.593  1.00  0.00     0.035 A 
HETATM    8  C   UNL     1      40.552 -15.927  -3.052  1.00  0.00     0.070 C 
HETATM    9  N   UNL     1      42.131 -14.045  -3.416  1.00  0.00    -0.282 N 
HETATM   10  H   UNL     1      42.430 -14.295  -4.357  1.00  0.00     0.189 HD
HETATM   11  N   UNL     1      42.660 -12.954  -2.854  1.00  0.00    -0.179 NA
HETATM   12  C   UNL     1      42.146 -12.911  -1.627  1.00  0.00     0.061 A 
HETATM   13  C   UNL     1      42.543 -11.812  -0.706  1.00  0.00     0.073 C 
ENDBRANCH   5   6
BRANCH   5  14
HETATM   14  N   UNL     1      39.036 -14.376  -0.402  1.00  0.00    -0.062 N 
HETATM   15  H   UNL     1      38.585 -13.490  -0.146  1.00  0.00     0.275 HD
HETATM   16  H   UNL     1      38.877 -14.483  -1.412  1.00  0.00     0.275 HD
HETATM   17  H   UNL     1      38.600 -15.143   0.117  1.00  0.00     0.275 HD
ENDBRANCH   5  14
ENDBRANCH   1   5
BRANCH   2  18
HETATM   18  C   UNL     1      42.846 -17.153   0.936  1.00  0.00     0.127 C 
BRANCH  18  19
HETATM   19  C   UNL     1      43.518 -16.866   2.285  1.00  0.00     0.058 C 
BRANCH  19  20
HETATM   20  C   UNL     1      43.883 -18.117   3.051  1.00  0.00    -0.056 A 
HETATM   21  C   UNL     1      43.888 -19.363   2.409  1.00  0.00     0.023 A 
HETATM   22  C   UNL     1      44.229 -20.538   3.103  1.00  0.00     0.048 A 
HETATM   23  C   UNL     1      44.574 -20.449   4.457  1.00  0.00     0.016 A 
HETATM   24  C   UNL     1      44.552 -19.216   5.110  1.00  0.00     0.001 A 
HETATM   25  C   UNL     1      44.206 -18.058   4.413  1.00  0.00     0.007 A 
BRANCH  22  26
HETATM   26  C   UNL     1      44.261 -21.863   2.383  1.00  0.00     0.417 C 
HETATM   27  F   UNL     1      43.119 -22.114   1.685  1.00  0.00    -0.166 F 
HETATM   28  F   UNL     1      45.263 -21.912   1.454  1.00  0.00    -0.166 F 
HETATM   29  F   UNL     1      44.452 -22.932   3.201  1.00  0.00    -0.166 F 
ENDBRANCH  22  26
ENDBRANCH  19  20
ENDBRANCH  18  19
ENDBRANCH   2  18
TORSDOF 7
ENDMDL
MODEL 2
REMARK VINA RESULT:      -8.3      3.724      5.064
REMARK  7 active torsions:
REMARK  status: ('A' for Active; 'I' for Inactive)
REMARK    1  A    between atoms: C_8  and  C_9 
REMARK    2  A    between atoms: C_9  and  N_10 
REMARK    3  A    between atoms: C_9  and  C_14 
REMARK       I    between atoms: C_14  and  N_15 
REMARK    4  A    between atoms: N_15  and  C_16 
REMARK    5  A    between atoms: C_16  and  C_17 
REMARK    6  A    between atoms: C_17  and  C_18 
REMARK    7  A    between atoms: C_20  and  C_21 
ROOT
HETATM    1  C   UNL     1      42.324 -15.492   6.092  1.00  0.00     0.253 C 
HETATM    2  N   UNL     1      42.809 -16.725   6.457  1.00  0.00    -0.359 N 
HETATM    3  O   UNL     1      43.029 -14.582   5.650  1.00  0.00    -0.271 OA
HETATM    4  H   UNL     1      42.244 -17.339   7.039  1.00  0.00     0.162 HD
ENDROOT
BRANCH   1   5
HETATM    5  C   UNL     1      40.795 -15.283   6.172  1.00  0.00     0.311 C 
BRANCH   5   6
HETATM    6  C   UNL     1      40.270 -14.460   5.048  1.00  0.00     0.031 A 
HETATM    7  C   UNL     1      40.234 -14.740   3.688  1.00  0.00     0.035 A 
HETATM    8  C   UNL     1      40.677 -15.901   2.875  1.00  0.00     0.070 C 
HETATM    9  N   UNL     1      39.680 -13.636   3.091  1.00  0.00    -0.282 N 
HETATM   10  H   UNL     1      39.535 -13.454   2.099  1.00  0.00     0.189 HD
HETATM   11  N   UNL     1      39.323 -12.691   3.967  1.00  0.00    -0.179 NA
HETATM   12  C   UNL     1      39.680 -13.168   5.157  1.00  0.00     0.061 A 
HETATM   13  C   UNL     1      39.439 -12.347   6.374  1.00  0.00     0.073 C 
ENDBRANCH   5   6
BRANCH   5  14
HETATM   14  N   UNL     1      40.116 -16.618   6.212  1.00  0.00    -0.062 N 
HETATM   15  H   UNL     1      39.169 -16.520   5.829  1.00  0.00     0.275 HD
HETATM   16  H   UNL     1      40.602 -17.269   5.581  1.00  0.00     0.275 HD
HETATM   17  H   UNL     1      40.063 -17.002   7.159  1.00  0.00     0.275 HD
ENDBRANCH   5  14
ENDBRANCH   1   5
BRANCH   2  18
HETATM   18  C   UNL     1      44.232 -17.040   6.411  1.00  0.00     0.127 C 
BRANCH  18  19
HETATM   19  C   UNL     1      44.515 -18.494   6.013  1.00  0.00     0.058 C 
BRANCH  19  20
HETATM   20  C   UNL     1      44.246 -18.779   4.553  1.00  0.00    -0.056 A 
HETATM   21  C   UNL     1      44.321 -20.090   4.062  1.00  0.00     0.023 A 
HETATM   22  C   UNL     1      44.069 -20.376   2.709  1.00  0.00     0.048 A 
HETATM   23  C   UNL     1      43.731 -19.326   1.846  1.00  0.00     0.016 A 
HETATM   24  C   UNL     1      43.672 -18.016   2.321  1.00  0.00     0.001 A 
HETATM   25  C   UNL     1      43.931 -17.743   3.664  1.00  0.00     0.007 A 
BRANCH  22  26
HETATM   26  C   UNL     1      44.124 -21.798   2.209  1.00  0.00     0.417 C 
HETATM   27  F   UNL     1      44.132 -22.714   3.219  1.00  0.00    -0.166 F 
HETATM   28  F   UNL     1      43.029 -22.114   1.454  1.00  0.00    -0.166 F 
HETATM   29  F   UNL     1      45.208 -22.072   1.437  1.00  0.00    -0.166 F 
ENDBRANCH  22  26
ENDBRANCH  19  20
ENDBRANCH  18  19
ENDBRANCH   2  18
TORSDOF 7
ENDMDL
MODEL 3
REMARK VINA RESULT:      -8.2      3.809      5.270
REMARK  7 active torsions:
REMARK  status: ('A' for Active; 'I' for Inactive)
REMARK    1  A    between atoms: C_8  and  C_9 
REMARK    2  A    between atoms: C_9  and  N_10 
REMARK    3  A    between atoms: C_9  and  C_14 
REMARK       I    between atoms: C_14  and  N_15 
REMARK    4  A    between atoms: N_15  and  C_16 
REMARK    5  A    between atoms: C_16  and  C_17 
REMARK    6  A    between atoms: C_17  and  C_18 
REMARK    7  A    between atoms: C_20  and  C_21 
ROOT
HETATM    1  C   UNL     1      41.751 -16.802   6.066  1.00  0.00     0.253 C 
HETATM    2  N   UNL     1      42.852 -17.103   6.832  1.00  0.00    -0.359 N 
HETATM    3  O   UNL     1      41.019 -17.652   5.555  1.00  0.00    -0.271 OA
HETATM    4  H   UNL     1      43.552 -16.388   7.015  1.00  0.00     0.162 HD
ENDROOT
BRANCH   1   5
HETATM    5  C   UNL     1      41.383 -15.308   5.918  1.00  0.00     0.311 C 
BRANCH   5   6
HETATM    6  C   UNL     1      42.108 -14.648   4.797  1.00  0.00     0.031 A 
HETATM    7  C   UNL     1      41.724 -14.478   3.472  1.00  0.00     0.035 A 
HETATM    8  C   UNL     1      40.512 -14.864   2.707  1.00  0.00     0.070 C 
HETATM    9  N   UNL     1      42.769 -13.837   2.857  1.00  0.00    -0.282 N 
HETATM   10  H   UNL     1      42.872 -13.586   1.875  1.00  0.00     0.189 HD
HETATM   11  N   UNL     1      43.772 -13.549   3.692  1.00  0.00    -0.179 NA
HETATM   12  C   UNL     1      43.395 -14.041   4.871  1.00  0.00     0.061 A 
HETATM   13  C   UNL     1      44.302 -13.906   6.042  1.00  0.00     0.073 C 
ENDBRANCH   5   6
BRANCH   5  14
HETATM   14  N   UNL     1      39.901 -15.180   5.736  1.00  0.00    -0.062 N 
HETATM   15  H   UNL     1      39.434 -15.885   6.319  1.00  0.00     0.275 HD
HETATM   16  H   UNL     1      39.588 -14.271   6.100  1.00  0.00     0.275 HD
HETATM   17  H   UNL     1      39.615 -15.300   4.761  1.00  0.00     0.275 HD
ENDBRANCH   5  14
ENDBRANCH   1   5
BRANCH   2  18
HETATM   18  C   UNL     1      43.287 -18.477   7.051  1.00  0.00     0.127 C 
BRANCH  18  19
HETATM   19  C   UNL     1      44.619 -18.806   6.363  1.00  0.00     0.058 C 
BRANCH  19  20
HETATM   20  C   UNL     1      44.457 -19.242   4.924  1.00  0.00    -0.056 A 
HETATM   21  C   UNL     1      44.050 -18.323   3.948  1.00  0.00     0.023 A 
HETATM   22  C   UNL     1      43.899 -18.708   2.604  1.00  0.00     0.048 A 
HETATM   23  C   UNL     1      44.169 -20.034   2.245  1.00  0.00     0.016 A 
HETATM   24  C   UNL     1      44.556 -20.961   3.213  1.00  0.00     0.001 A 
HETATM   25  C   UNL     1      44.696 -20.569   4.544  1.00  0.00     0.007 A 
BRANCH  22  26
HETATM   26  C   UNL     1      43.492 -17.694   1.564  1.00  0.00     0.417 C 
HETATM   27  F   UNL     1      44.077 -16.478   1.753  1.00  0.00    -0.166 F 
HETATM   28  F   UNL     1      43.869 -18.077   0.306  1.00  0.00    -0.166 F 
HETATM   29  F   UNL     1      42.154 -17.469   1.505  1.00  0.00    -0.166 F 
ENDBRANCH  22  26
ENDBRANCH  19  20
ENDBRANCH  18  19
ENDBRANCH   2  18
TORSDOF 7
ENDMDL
MODEL 4
REMARK VINA RESULT:      -8.2      0.773      1.989
REMARK  7 active torsions:
REMARK  status: ('A' for Active; 'I' for Inactive)
REMARK    1  A    between atoms: C_8  and  C_9 
REMARK    2  A    between atoms: C_9  and  N_10 
REMARK    3  A    between atoms: C_9  and  C_14 
REMARK       I    between atoms: C_14  and  N_15 
REMARK    4  A    between atoms: N_15  and  C_16 
REMARK    5  A    between atoms: C_16  and  C_17 
REMARK    6  A    between atoms: C_17  and  C_18 
REMARK    7  A    between atoms: C_20  and  C_21 
ROOT
HETATM    1  C   UNL     1      40.292 -14.905   0.500  1.00  0.00     0.253 C 
HETATM    2  N   UNL     1      41.000 -16.040   0.187  1.00  0.00    -0.359 N 
HETATM    3  O   UNL     1      40.042 -14.550   1.653  1.00  0.00    -0.271 OA
HETATM    4  H   UNL     1      40.964 -16.416  -0.757  1.00  0.00     0.162 HD
ENDROOT
BRANCH   1   5
HETATM    5  C   UNL     1      39.865 -13.995  -0.675  1.00  0.00     0.311 C 
BRANCH   5   6
HETATM    6  C   UNL     1      40.848 -14.004  -1.793  1.00  0.00     0.031 A 
HETATM    7  C   UNL     1      41.966 -13.204  -1.995  1.00  0.00     0.035 A 
HETATM    8  C   UNL     1      42.580 -12.097  -1.218  1.00  0.00     0.070 C 
HETATM    9  N   UNL     1      42.503 -13.603  -3.192  1.00  0.00    -0.282 N 
HETATM   10  H   UNL     1      43.302 -13.216  -3.692  1.00  0.00     0.189 HD
HETATM   11  N   UNL     1      41.839 -14.619  -3.751  1.00  0.00    -0.179 NA
HETATM   12  C   UNL     1      40.828 -14.871  -2.923  1.00  0.00     0.061 A 
HETATM   13  C   UNL     1      39.863 -15.953  -3.256  1.00  0.00     0.073 C 
ENDBRANCH   5   6
BRANCH   5  14
HETATM   14  N   UNL     1      38.511 -14.416  -1.159  1.00  0.00    -0.062 N 
HETATM   15  H   UNL     1      38.388 -15.417  -0.970  1.00  0.00     0.275 HD
HETATM   16  H   UNL     1      37.786 -13.941  -0.606  1.00  0.00     0.275 HD
HETATM   17  H   UNL     1      38.381 -14.238  -2.158  1.00  0.00     0.275 HD
ENDBRANCH   5  14
ENDBRANCH   1   5
BRANCH   2  18
HETATM   18  C   UNL     1      41.466 -16.966   1.212  1.00  0.00     0.127 C 
BRANCH  18  19
HETATM   19  C   UNL     1      42.995 -17.044   1.307  1.00  0.00     0.058 C 
BRANCH  19  20
HETATM   20  C   UNL     1      43.483 -18.107   2.265  1.00  0.00    -0.056 A 
HETATM   21  C   UNL     1      43.585 -19.441   1.849  1.00  0.00     0.023 A 
HETATM   22  C   UNL     1      44.041 -20.443   2.724  1.00  0.00     0.048 A 
HETATM   23  C   UNL     1      44.402 -20.089   4.030  1.00  0.00     0.016 A 
HETATM   24  C   UNL     1      44.286 -18.768   4.460  1.00  0.00     0.001 A 
HETATM   25  C   UNL     1      43.826 -17.783   3.585  1.00  0.00     0.007 A 
BRANCH  22  26
HETATM   26  C   UNL     1      44.176 -21.867   2.245  1.00  0.00     0.417 C 
HETATM   27  F   UNL     1      44.227 -22.767   3.266  1.00  0.00    -0.166 F 
HETATM   28  F   UNL     1      43.104 -22.251   1.487  1.00  0.00    -0.166 F 
HETATM   29  F   UNL     1      45.277 -22.092   1.482  1.00  0.00    -0.166 F 
ENDBRANCH  22  26
ENDBRANCH  19  20
ENDBRANCH  18  19
ENDBRANCH   2  18
TORSDOF 7
ENDMDL
MODEL 5
REMARK VINA RESULT:      -8.2      2.374      3.019
REMARK  7 active torsions:
REMARK  status: ('A' for Active; 'I' for Inactive)
REMARK    1  A    between atoms: C_8  and  C_9 
REMARK    2  A    between atoms: C_9  and  N_10 
REMARK    3  A    between atoms: C_9  and  C_14 
REMARK       I    between atoms: C_14  and  N_15 
REMARK    4  A    between atoms: N_15  and  C_16 
REMARK    5  A    between atoms: C_16  and  C_17 
REMARK    6  A    between atoms: C_17  and  C_18 
REMARK    7  A    between atoms: C_20  and  C_21 
ROOT
HETATM    1  C   UNL     1      40.560 -14.573   3.231  1.00  0.00     0.253 C 
HETATM    2  N   UNL     1      40.198 -15.496   4.182  1.00  0.00    -0.359 N 
HETATM    3  O   UNL     1      41.550 -13.844   3.325  1.00  0.00    -0.271 OA
HETATM    4  H   UNL     1      39.258 -15.885   4.179  1.00  0.00     0.162 HD
ENDROOT
BRANCH   1   5
HETATM    5  C   UNL     1      39.711 -14.521   1.940  1.00  0.00     0.311 C 
BRANCH   5   6
HETATM    6  C   UNL     1      40.541 -14.578   0.706  1.00  0.00     0.031 A 
HETATM    7  C   UNL     1      41.327 -15.613   0.214  1.00  0.00     0.035 A 
HETATM    8  C   UNL     1      41.624 -16.984   0.700  1.00  0.00     0.070 C 
HETATM    9  N   UNL     1      41.904 -15.134  -0.934  1.00  0.00    -0.282 N 
HETATM   10  H   UNL     1      42.580 -15.591  -1.545  1.00  0.00     0.189 HD
HETATM   11  N   UNL     1      41.518 -13.891  -1.236  1.00  0.00    -0.179 NA
HETATM   12  C   UNL     1      40.699 -13.532  -0.249  1.00  0.00     0.061 A 
HETATM   13  C   UNL     1      40.090 -12.175  -0.263  1.00  0.00     0.073 C 
ENDBRANCH   5   6
BRANCH   5  14
HETATM   14  N   UNL     1      38.715 -15.640   1.959  1.00  0.00    -0.062 N 
HETATM   15  H   UNL     1      38.602 -15.967   2.926  1.00  0.00     0.275 HD
HETATM   16  H   UNL     1      37.792 -15.283   1.680  1.00  0.00     0.275 HD
HETATM   17  H   UNL     1      38.997 -16.424   1.364  1.00  0.00     0.275 HD
ENDBRANCH   5  14
ENDBRANCH   1   5
BRANCH   2  18
HETATM   18  C   UNL     1      40.932 -15.644   5.433  1.00  0.00     0.127 C 
BRANCH  18  19
HETATM   19  C   UNL     1      40.976 -17.091   5.940  1.00  0.00     0.058 C 
BRANCH  19  20
HETATM   20  C   UNL     1      42.274 -17.798   5.623  1.00  0.00    -0.056 A 
HETATM   21  C   UNL     1      42.533 -18.251   4.322  1.00  0.00     0.023 A 
HETATM   22  C   UNL     1      43.737 -18.906   4.006  1.00  0.00     0.048 A 
HETATM   23  C   UNL     1      44.689 -19.098   5.015  1.00  0.00     0.016 A 
HETATM   24  C   UNL     1      44.433 -18.668   6.317  1.00  0.00     0.001 A 
HETATM   25  C   UNL     1      43.232 -18.025   6.620  1.00  0.00     0.007 A 
BRANCH  22  26
HETATM   26  C   UNL     1      44.009 -19.356   2.592  1.00  0.00     0.417 C 
HETATM   27  F   UNL     1      44.468 -18.350   1.796  1.00  0.00    -0.166 F 
HETATM   28  F   UNL     1      44.979 -20.318   2.543  1.00  0.00    -0.166 F 
HETATM   29  F   UNL     1      42.926 -19.879   1.960  1.00  0.00    -0.166 F 
ENDBRANCH  22  26
ENDBRANCH  19  20
ENDBRANCH  18  19
ENDBRANCH   2  18
TORSDOF 7
ENDMDL
MODEL 6
REMARK VINA RESULT:      -8.2      2.187      2.711
REMARK  7 active torsions:
REMARK  status: ('A' for Active; 'I' for Inactive)
REMARK    1  A    between atoms: C_8  and  C_9 
REMARK    2  A    between atoms: C_9  and  N_10 
REMARK    3  A    between atoms: C_9  and  C_14 
REMARK       I    between atoms: C_14  and  N_15 
REMARK    4  A    between atoms: N_15  and  C_16 
REMARK    5  A    between atoms: C_16  and  C_17 
REMARK    6  A    between atoms: C_17  and  C_18 
REMARK    7  A    between atoms: C_20  and  C_21 
ROOT
HETATM    1  C   UNL     1      40.805 -14.979   0.759  1.00  0.00     0.253 C 
HETATM    2  N   UNL     1      40.937 -16.299   0.400  1.00  0.00    -0.359 N 
HETATM    3  O   UNL     1      41.158 -14.527   1.850  1.00  0.00    -0.271 OA
HETATM    4  H   UNL     1      40.413 -16.664  -0.392  1.00  0.00     0.162 HD
ENDROOT
BRANCH   1   5
HETATM    5  C   UNL     1      40.255 -14.009  -0.312  1.00  0.00     0.311 C 
BRANCH   5   6
HETATM    6  C   UNL     1      41.166 -13.873  -1.483  1.00  0.00     0.031 A 
HETATM    7  C   UNL     1      41.260 -14.656  -2.627  1.00  0.00     0.035 A 
HETATM    8  C   UNL     1      40.530 -15.860  -3.099  1.00  0.00     0.070 C 
HETATM    9  N   UNL     1      42.281 -14.118  -3.368  1.00  0.00    -0.282 N 
HETATM   10  H   UNL     1      42.672 -14.450  -4.248  1.00  0.00     0.189 HD
HETATM   11  N   UNL     1      42.818 -13.031  -2.807  1.00  0.00    -0.179 NA
HETATM   12  C   UNL     1      42.163 -12.871  -1.659  1.00  0.00     0.061 A 
HETATM   13  C   UNL     1      42.528 -11.743  -0.761  1.00  0.00     0.073 C 
ENDBRANCH   5   6
BRANCH   5  14
HETATM   14  N   UNL     1      38.899 -14.473  -0.749  1.00  0.00    -0.062 N 
HETATM   15  H   UNL     1      38.444 -14.951   0.037  1.00  0.00     0.275 HD
HETATM   16  H   UNL     1      38.308 -13.658  -0.955  1.00  0.00     0.275 HD
HETATM   17  H   UNL     1      38.942 -15.104  -1.554  1.00  0.00     0.275 HD
ENDBRANCH   5  14
ENDBRANCH   1   5
BRANCH   2  18
HETATM   18  C   UNL     1      41.455 -17.302   1.323  1.00  0.00     0.127 C 
BRANCH  18  19
HETATM   19  C   UNL     1      42.962 -17.544   1.167  1.00  0.00     0.058 C 
BRANCH  19  20
HETATM   20  C   UNL     1      43.527 -18.489   2.204  1.00  0.00    -0.056 A 
HETATM   21  C   UNL     1      43.846 -18.022   3.486  1.00  0.00     0.023 A 
HETATM   22  C   UNL     1      44.368 -18.886   4.466  1.00  0.00     0.048 A 
HETATM   23  C   UNL     1      44.562 -20.234   4.145  1.00  0.00     0.016 A 
HETATM   24  C   UNL     1      44.266 -20.705   2.866  1.00  0.00     0.001 A 
HETATM   25  C   UNL     1      43.755 -19.837   1.900  1.00  0.00     0.007 A 
BRANCH  22  26
HETATM   26  C   UNL     1      44.672 -18.369   5.850  1.00  0.00     0.417 C 
HETATM   27  F   UNL     1      46.001 -18.149   6.053  1.00  0.00    -0.166 F 
HETATM   28  F   UNL     1      44.073 -17.162   6.085  1.00  0.00    -0.166 F 
HETATM   29  F   UNL     1      44.265 -19.193   6.850  1.00  0.00    -0.166 F 
ENDBRANCH  22  26
ENDBRANCH  19  20
ENDBRANCH  18  19
ENDBRANCH   2  18
TORSDOF 7
ENDMDL
MODEL 7
REMARK VINA RESULT:      -8.2      3.722      5.622
REMARK  7 active torsions:
REMARK  status: ('A' for Active; 'I' for Inactive)
REMARK    1  A    between atoms: C_8  and  C_9 
REMARK    2  A    between atoms: C_9  and  N_10 
REMARK    3  A    between atoms: C_9  and  C_14 
REMARK       I    between atoms: C_14  and  N_15 
REMARK    4  A    between atoms: N_15  and  C_16 
REMARK    5  A    between atoms: C_16  and  C_17 
REMARK    6  A    between atoms: C_17  and  C_18 
REMARK    7  A    between atoms: C_20  and  C_21 
ROOT
HETATM    1  C   UNL     1      40.972 -16.676   4.957  1.00  0.00     0.253 C 
HETATM    2  N   UNL     1      41.217 -16.106   3.731  1.00  0.00    -0.359 N 
HETATM    3  O   UNL     1      40.684 -17.864   5.114  1.00  0.00    -0.271 OA
HETATM    4  H   UNL     1      41.201 -15.094   3.630  1.00  0.00     0.162 HD
ENDROOT
BRANCH   1   5
HETATM    5  C   UNL     1      41.153 -15.777   6.201  1.00  0.00     0.311 C 
BRANCH   5   6
HETATM    6  C   UNL     1      42.524 -15.203   6.297  1.00  0.00     0.031 A 
HETATM    7  C   UNL     1      43.029 -14.024   5.765  1.00  0.00     0.035 A 
HETATM    8  C   UNL     1      42.433 -12.940   4.944  1.00  0.00     0.070 C 
HETATM    9  N   UNL     1      44.353 -13.987   6.121  1.00  0.00    -0.282 N 
HETATM   10  H   UNL     1      45.061 -13.297   5.872  1.00  0.00     0.189 HD
HETATM   11  N   UNL     1      44.723 -15.029   6.871  1.00  0.00    -0.179 NA
HETATM   12  C   UNL     1      43.631 -15.783   6.982  1.00  0.00     0.061 A 
HETATM   13  C   UNL     1      43.695 -17.053   7.753  1.00  0.00     0.073 C 
ENDBRANCH   5   6
BRANCH   5  14
HETATM   14  N   UNL     1      40.125 -14.688   6.177  1.00  0.00    -0.062 N 
HETATM   15  H   UNL     1      39.904 -14.462   5.200  1.00  0.00     0.275 HD
HETATM   16  H   UNL     1      39.247 -15.035   6.584  1.00  0.00     0.275 HD
HETATM   17  H   UNL     1      40.440 -13.842   6.659  1.00  0.00     0.275 HD
ENDBRANCH   5  14
ENDBRANCH   1   5
BRANCH   2  18
HETATM   18  C   UNL     1      41.089 -16.860   2.489  1.00  0.00     0.127 C 
BRANCH  18  19
HETATM   19  C   UNL     1      42.440 -17.174   1.832  1.00  0.00     0.058 C 
BRANCH  19  20
HETATM   20  C   UNL     1      43.235 -18.227   2.570  1.00  0.00    -0.056 A 
HETATM   21  C   UNL     1      43.308 -19.536   2.073  1.00  0.00     0.023 A 
HETATM   22  C   UNL     1      44.046 -20.528   2.742  1.00  0.00     0.048 A 
HETATM   23  C   UNL     1      44.721 -20.190   3.921  1.00  0.00     0.016 A 
HETATM   24  C   UNL     1      44.639 -18.896   4.435  1.00  0.00     0.001 A 
HETATM   25  C   UNL     1      43.898 -17.921   3.765  1.00  0.00     0.007 A 
BRANCH  22  26
HETATM   26  C   UNL     1      44.138 -21.921   2.172  1.00  0.00     0.417 C 
HETATM   27  F   UNL     1      45.208 -22.085   1.344  1.00  0.00    -0.166 F 
HETATM   28  F   UNL     1      44.300 -22.862   3.151  1.00  0.00    -0.166 F 
HETATM   29  F   UNL     1      43.044 -22.301   1.461  1.00  0.00    -0.166 F 
ENDBRANCH  22  26
ENDBRANCH  19  20
ENDBRANCH  18  19
ENDBRANCH   2  18
TORSDOF 7
ENDMDL
MODEL 8
REMARK VINA RESULT:      -8.0      4.157      5.964
REMARK  7 active torsions:
REMARK  status: ('A' for Active; 'I' for Inactive)
REMARK    1  A    between atoms: C_8  and  C_9 
REMARK    2  A    between atoms: C_9  and  N_10 
REMARK    3  A    between atoms: C_9  and  C_14 
REMARK       I    between atoms: C_14  and  N_15 
REMARK    4  A    between atoms: N_15  and  C_16 
REMARK    5  A    between atoms: C_16  and  C_17 
REMARK    6  A    between atoms: C_17  and  C_18 
REMARK    7  A    between atoms: C_20  and  C_21 
ROOT
HETATM    1  C   UNL     1      41.618 -17.223   4.661  1.00  0.00     0.253 C 
HETATM    2  N   UNL     1      42.029 -16.729   3.447  1.00  0.00    -0.359 N 
HETATM    3  O   UNL     1      41.525 -18.426   4.915  1.00  0.00    -0.271 OA
HETATM    4  H   UNL     1      41.851 -15.756   3.209  1.00  0.00     0.162 HD
ENDROOT
BRANCH   1   5
HETATM    5  C   UNL     1      41.340 -16.196   5.783  1.00  0.00     0.311 C 
BRANCH   5   6
HETATM    6  C   UNL     1      42.571 -15.487   6.227  1.00  0.00     0.031 A 
HETATM    7  C   UNL     1      43.130 -14.305   5.757  1.00  0.00     0.035 A 
HETATM    8  C   UNL     1      42.738 -13.346   4.693  1.00  0.00     0.070 C 
HETATM    9  N   UNL     1      44.276 -14.114   6.487  1.00  0.00    -0.282 N 
HETATM   10  H   UNL     1      44.975 -13.379   6.394  1.00  0.00     0.189 HD
HETATM   11  N   UNL     1      44.471 -15.059   7.411  1.00  0.00    -0.179 NA
HETATM   12  C   UNL     1      43.454 -15.905   7.264  1.00  0.00     0.061 A 
HETATM   13  C   UNL     1      43.369 -17.104   8.140  1.00  0.00     0.073 C 
ENDBRANCH   5   6
BRANCH   5  14
HETATM   14  N   UNL     1      40.307 -15.218   5.311  1.00  0.00    -0.062 N 
HETATM   15  H   UNL     1      40.661 -14.266   5.458  1.00  0.00     0.275 HD
HETATM   16  H   UNL     1      40.184 -15.312   4.295  1.00  0.00     0.275 HD
HETATM   17  H   UNL     1      39.413 -15.329   5.797  1.00  0.00     0.275 HD
ENDBRANCH   5  14
ENDBRANCH   1   5
BRANCH   2  18
HETATM   18  C   UNL     1      42.332 -17.603   2.320  1.00  0.00     0.127 C 
BRANCH  18  19
HETATM   19  C   UNL     1      43.805 -18.028   2.264  1.00  0.00     0.058 C 
BRANCH  19  20
HETATM   20  C   UNL     1      44.005 -19.518   2.418  1.00  0.00    -0.056 A 
HETATM   21  C   UNL     1      44.304 -20.066   3.673  1.00  0.00     0.023 A 
HETATM   22  C   UNL     1      44.489 -21.450   3.838  1.00  0.00     0.048 A 
HETATM   23  C   UNL     1      44.362 -22.288   2.723  1.00  0.00     0.016 A 
HETATM   24  C   UNL     1      44.083 -21.751   1.466  1.00  0.00     0.001 A 
HETATM   25  C   UNL     1      43.909 -20.375   1.313  1.00  0.00     0.007 A 
BRANCH  22  26
HETATM   26  C   UNL     1      44.777 -22.021   5.204  1.00  0.00     0.417 C 
HETATM   27  F   UNL     1      44.645 -21.102   6.201  1.00  0.00    -0.166 F 
HETATM   28  F   UNL     1      43.907 -23.024   5.529  1.00  0.00    -0.166 F 
HETATM   29  F   UNL     1      46.023 -22.547   5.331  1.00  0.00    -0.166 F 
ENDBRANCH  22  26
ENDBRANCH  19  20
ENDBRANCH  18  19
ENDBRANCH   2  18
TORSDOF 7
ENDMDL
MODEL 9
REMARK VINA RESULT:      -7.9      3.348      4.594
REMARK  7 active torsions:
REMARK  status: ('A' for Active; 'I' for Inactive)
REMARK    1  A    between atoms: C_8  and  C_9 
REMARK    2  A    between atoms: C_9  and  N_10 
REMARK    3  A    between atoms: C_9  and  C_14 
REMARK       I    between atoms: C_14  and  N_15 
REMARK    4  A    between atoms: N_15  and  C_16 
REMARK    5  A    between atoms: C_16  and  C_17 
REMARK    6  A    between atoms: C_17  and  C_18 
REMARK    7  A    between atoms: C_20  and  C_21 
ROOT
HETATM    1  C   UNL     1      42.011 -14.753   5.041  1.00  0.00     0.253 C 
HETATM    2  N   UNL     1      42.374 -15.873   5.748  1.00  0.00    -0.359 N 
HETATM    3  O   UNL     1      42.773 -14.138   4.293  1.00  0.00    -0.271 OA
HETATM    4  H   UNL     1      41.801 -16.189   6.527  1.00  0.00     0.162 HD
ENDROOT
BRANCH   1   5
HETATM    5  C   UNL     1      40.535 -14.304   5.142  1.00  0.00     0.311 C 
BRANCH   5   6
HETATM    6  C   UNL     1      39.928 -14.030   3.810  1.00  0.00     0.031 A 
HETATM    7  C   UNL     1      39.287 -12.887   3.347  1.00  0.00     0.035 A 
HETATM    8  C   UNL     1      38.981 -11.572   3.963  1.00  0.00     0.070 C 
HETATM    9  N   UNL     1      38.889 -13.172   2.066  1.00  0.00    -0.282 N 
HETATM   10  H   UNL     1      38.349 -12.594   1.424  1.00  0.00     0.189 HD
HETATM   11  N   UNL     1      39.259 -14.391   1.661  1.00  0.00    -0.179 NA
HETATM   12  C   UNL     1      39.882 -14.930   2.707  1.00  0.00     0.061 A 
HETATM   13  C   UNL     1      40.417 -16.315   2.603  1.00  0.00     0.073 C 
ENDBRANCH   5   6
BRANCH   5  14
HETATM   14  N   UNL     1      39.750 -15.347   5.876  1.00  0.00    -0.062 N 
HETATM   15  H   UNL     1      38.770 -15.298   5.575  1.00  0.00     0.275 HD
HETATM   16  H   UNL     1      40.076 -16.281   5.597  1.00  0.00     0.275 HD
HETATM   17  H   UNL     1      39.802 -15.233   6.892  1.00  0.00     0.275 HD
ENDBRANCH   5  14
ENDBRANCH   1   5
BRANCH   2  18
HETATM   18  C   UNL     1      43.735 -16.397   5.720  1.00  0.00     0.127 C 
BRANCH  18  19
HETATM   19  C   UNL     1      43.794 -17.912   5.487  1.00  0.00     0.058 C 
BRANCH  19  20
HETATM   20  C   UNL     1      43.808 -18.293   4.024  1.00  0.00    -0.056 A 
HETATM   21  C   UNL     1      43.772 -19.642   3.644  1.00  0.00     0.023 A 
HETATM   22  C   UNL     1      43.779 -20.016   2.288  1.00  0.00     0.048 A 
HETATM   23  C   UNL     1      43.817 -19.016   1.310  1.00  0.00     0.016 A 
HETATM   24  C   UNL     1      43.873 -17.671   1.678  1.00  0.00     0.001 A 
HETATM   25  C   UNL     1      43.872 -17.312   3.026  1.00  0.00     0.007 A 
BRANCH  22  26
HETATM   26  C   UNL     1      43.705 -21.472   1.902  1.00  0.00     0.417 C 
HETATM   27  F   UNL     1      44.020 -22.309   2.930  1.00  0.00    -0.166 F 
HETATM   28  F   UNL     1      42.442 -21.834   1.524  1.00  0.00    -0.166 F 
HETATM   29  F   UNL     1      44.521 -21.812   0.869  1.00  0.00    -0.166 F 
ENDBRANCH  22  26
ENDBRANCH  19  20
ENDBRANCH  18  19
ENDBRANCH   2  18
TORSDOF 7
ENDMDL
MODEL 10
REMARK VINA RESULT:      -7.8      3.994      5.087
REMARK  7 active torsions:
REMARK  status: ('A' for Active; 'I' for Inactive)
REMARK    1  A    between atoms: C_8  and  C_9 
REMARK    2  A    between atoms: C_9  and  N_10 
REMARK    3  A    between atoms: C_9  and  C_14 
REMARK       I    between atoms: C_14  and  N_15 
REMARK    4  A    between atoms: N_15  and  C_16 
REMARK    5  A    between atoms: C_16  and  C_17 
REMARK    6  A    between atoms: C_17  and  C_18 
REMARK    7  A    between atoms: C_20  and  C_21 
ROOT
HETATM    1  C   UNL     1      41.967 -14.358   5.195  1.00  0.00     0.253 C 
HETATM    2  N   UNL     1      42.048 -15.362   4.261  1.00  0.00    -0.359 N 
HETATM    3  O   UNL     1      42.889 -13.579   5.444  1.00  0.00    -0.271 OA
HETATM    4  H   UNL     1      41.369 -16.119   4.270  1.00  0.00     0.162 HD
ENDROOT
BRANCH   1   5
HETATM    5  C   UNL     1      40.607 -14.163   5.904  1.00  0.00     0.311 C 
BRANCH   5   6
HETATM    6  C   UNL     1      39.858 -12.984   5.390  1.00  0.00     0.031 A 
HETATM    7  C   UNL     1      39.428 -12.702   4.099  1.00  0.00     0.035 A 
HETATM    8  C   UNL     1      39.540 -13.427   2.808  1.00  0.00     0.070 C 
HETATM    9  N   UNL     1      38.818 -11.475   4.165  1.00  0.00    -0.282 N 
HETATM   10  H   UNL     1      38.420 -10.921   3.408  1.00  0.00     0.189 HD
HETATM   11  N   UNL     1      38.789 -10.971   5.402  1.00  0.00    -0.179 NA
HETATM   12  C   UNL     1      39.423 -11.865   6.157  1.00  0.00     0.061 A 
HETATM   13  C   UNL     1      39.589 -11.605   7.613  1.00  0.00     0.073 C 
ENDBRANCH   5   6
BRANCH   5  14
HETATM   14  N   UNL     1      39.791 -15.411   5.760  1.00  0.00    -0.062 N 
HETATM   15  H   UNL     1      39.715 -15.644   4.763  1.00  0.00     0.275 HD
HETATM   16  H   UNL     1      40.292 -16.200   6.189  1.00  0.00     0.275 HD
HETATM   17  H   UNL     1      38.854 -15.314   6.160  1.00  0.00     0.275 HD
ENDBRANCH   5  14
ENDBRANCH   1   5
BRANCH   2  18
HETATM   18  C   UNL     1      43.275 -15.631   3.521  1.00  0.00     0.127 C 
BRANCH  18  19
HETATM   19  C   UNL     1      43.176 -16.867   2.617  1.00  0.00     0.058 C 
BRANCH  19  20
HETATM   20  C   UNL     1      43.721 -18.123   3.258  1.00  0.00    -0.056 A 
HETATM   21  C   UNL     1      43.719 -19.335   2.553  1.00  0.00     0.023 A 
HETATM   22  C   UNL     1      44.227 -20.513   3.131  1.00  0.00     0.048 A 
HETATM   23  C   UNL     1      44.746 -20.461   4.430  1.00  0.00     0.016 A 
HETATM   24  C   UNL     1      44.735 -19.264   5.146  1.00  0.00     0.001 A 
HETATM   25  C   UNL     1      44.223 -18.103   4.566  1.00  0.00     0.007 A 
BRANCH  22  26
HETATM   26  C   UNL     1      44.245 -21.799   2.342  1.00  0.00     0.417 C 
HETATM   27  F   UNL     1      44.352 -22.903   3.132  1.00  0.00    -0.166 F 
HETATM   28  F   UNL     1      43.088 -21.978   1.636  1.00  0.00    -0.166 F 
HETATM   29  F   UNL     1      45.255 -21.877   1.437  1.00  0.00    -0.166 F 
ENDBRANCH  22  26
ENDBRANCH  19  20
ENDBRANCH  18  19
ENDBRANCH   2  18
TORSDOF 7
ENDMDL
