MODEL 1
REMARK VINA RESULT:      -7.2      0.000      0.000
REMARK  11 active torsions:
REMARK  status: ('A' for Active; 'I' for Inactive)
REMARK    1  A    between atoms: C_1  and  C_17 
REMARK    2  A    between atoms: C_1  and  S_18 
REMARK    3  A    between atoms: C_2  and  N_23 
REMARK    4  A    between atoms: C_3  and  C_13 
REMARK    5  A    between atoms: C_6  and  S_18 
REMARK    6  A    between atoms: C_6  and  S_19 
REMARK    7  A    between atoms: C_7  and  C_20 
REMARK    8  A    between atoms: C_7  and  C_21 
REMARK    9  A    between atoms: C_9  and  C_24 
REMARK   10  A    between atoms: C_16  and  C_17 
REMARK   11  A    between atoms: S_19  and  C_20 
ROOT
HETATM    1  C           1      40.760 -15.054   5.392  0.00  0.00     0.092 C 
HETATM    2  C           1      43.100 -15.340   5.887  0.00  0.00     0.156 C 
HETATM    3  C           1      41.318 -16.016   4.381  0.00  0.00     0.127 C 
HETATM    4  C           1      42.825 -15.678   4.378  0.00  0.00     0.136 C 
HETATM    5  C           1      43.131 -14.471   3.558  0.00  0.00     0.079 C 
HETATM    6  N           1      43.344 -13.586   2.839  0.00  0.00    -0.196 NA
HETATM    7  C           1      40.806 -16.291   2.906  0.00  0.00     0.248 C 
HETATM    8  C           1      42.915 -17.612   2.709  0.00  0.00     0.105 C 
HETATM    9  N           1      41.722 -14.726   6.216  0.00  0.00    -0.350 N 
HETATM   10  N           1      41.517 -17.550   2.306  0.00  0.00    -0.040 N 
HETATM   11  C           1      43.713 -18.688   2.012  0.00  0.00     0.075 C 
HETATM   12  C           1      43.499 -16.822   3.642  0.00  0.00     0.036 C 
HETATM   13  H           1      41.571 -14.099   7.017  0.00  0.00     0.163 HD
HETATM   14  H           1      41.011 -18.427   2.554  0.00  0.00     0.284 HD
HETATM   15  H           1      41.480 -17.468   1.265  0.00  0.00     0.284 HD
ENDROOT
BRANCH   2  16
HETATM   16  S           1      44.361 -14.048   6.135  0.00  0.00    -0.125 SA
BRANCH  16  17
HETATM   17  C           1      44.430 -13.892   7.945  0.00  0.00     0.077 C 
BRANCH  17  18
HETATM   18  C           1      45.344 -12.711   8.309  0.00  0.00     0.010 C 
BRANCH  18  19
HETATM   19  C           1      44.617 -11.685   9.194  0.00  0.00    -0.004 C 
HETATM   20  C           1      45.552 -11.075  10.247  0.00  0.00     0.005 C 
ENDBRANCH  18  19
ENDBRANCH  17  18
ENDBRANCH  16  17
ENDBRANCH   2  16
BRANCH   2  21
HETATM   21  S           1      43.332 -16.872   6.853  0.00  0.00    -0.125 SA
BRANCH  21  22
HETATM   22  C           1      45.067 -17.257   6.456  0.00  0.00     0.077 C 
BRANCH  22  23
HETATM   23  C           1      45.154 -18.720   5.991  0.00  0.00     0.010 C 
BRANCH  23  24
HETATM   24  C           1      43.827 -19.465   6.212  0.00  0.00    -0.004 C 
HETATM   25  C           1      44.038 -20.977   6.368  0.00  0.00     0.005 C 
ENDBRANCH  23  24
ENDBRANCH  22  23
ENDBRANCH  21  22
ENDBRANCH   2  21
BRANCH   3  26
HETATM   26  C           1      41.073 -17.410   4.853  0.00  0.00     0.105 C 
HETATM   27  N           1      40.324 -17.942   5.559  0.00  0.00    -0.151 N 
ENDBRANCH   3  26
BRANCH   1  28
HETATM   28  N           1      39.552 -14.689   5.496  0.00  0.00    -0.388 N 
HETATM   29  H           1      38.769 -15.368   5.330  0.00  0.00     0.157 HD
HETATM   30  H           1      39.313 -13.697   5.745  0.00  0.00     0.157 HD
ENDBRANCH   1  28
BRANCH   7  31
HETATM   31  C           1      40.856 -15.112   1.945  0.00  0.00    -0.026 A 
HETATM   32  C           1      40.174 -13.989   2.235  0.00  0.00     0.009 A 
HETATM   33  C           1      40.181 -12.927   1.413  0.00  0.00     0.001 A 
HETATM   34  C           1      40.875 -12.972   0.268  0.00  0.00     0.000 A 
HETATM   35  C           1      41.554 -14.085  -0.045  0.00  0.00     0.001 A 
HETATM   36  C           1      41.541 -15.139   0.785  0.00  0.00     0.009 A 
ENDBRANCH   7  31
TORSDOF 11
ENDMDL
MODEL 2
REMARK VINA RESULT:      -6.4      2.317      4.623
REMARK  11 active torsions:
REMARK  status: ('A' for Active; 'I' for Inactive)
REMARK    1  A    between atoms: C_1  and  C_17 
REMARK    2  A    between atoms: C_1  and  S_18 
REMARK    3  A    between atoms: C_2  and  N_23 
REMARK    4  A    between atoms: C_3  and  C_13 
REMARK    5  A    between atoms: C_6  and  S_18 
REMARK    6  A    between atoms: C_6  and  S_19 
REMARK    7  A    between atoms: C_7  and  C_20 
REMARK    8  A    between atoms: C_7  and  C_21 
REMARK    9  A    between atoms: C_9  and  C_24 
REMARK   10  A    between atoms: C_16  and  C_17 
REMARK   11  A    between atoms: S_19  and  C_20 
ROOT
HETATM    1  C           1      40.847 -15.893   5.307  0.00  0.00     0.092 C 
HETATM    2  C           1      43.156 -15.666   4.663  0.00  0.00     0.156 C 
HETATM    3  C           1      40.914 -14.831   4.246  0.00  0.00     0.127 C 
HETATM    4  C           1      42.375 -14.341   4.340  0.00  0.00     0.136 C 
HETATM    5  C           1      42.579 -13.384   5.464  0.00  0.00     0.079 C 
HETATM    6  N           1      42.681 -12.573   6.287  0.00  0.00    -0.196 NA
HETATM    7  C           1      39.930 -13.607   4.023  0.00  0.00     0.248 C 
HETATM    8  C           1      41.656 -12.867   2.378  0.00  0.00     0.105 C 
HETATM    9  N           1      42.055 -16.357   5.496  0.00  0.00    -0.350 N 
HETATM   10  N           1      40.227 -12.909   2.654  0.00  0.00    -0.040 N 
HETATM   11  C           1      42.031 -12.037   1.174  0.00  0.00     0.075 C 
HETATM   12  C           1      42.611 -13.517   3.086  0.00  0.00     0.036 C 
HETATM   13  H           1      42.256 -17.119   6.157  0.00  0.00     0.163 HD
HETATM   14  H           1      39.704 -13.362   1.875  0.00  0.00     0.284 HD
HETATM   15  H           1      39.878 -11.926   2.717  0.00  0.00     0.284 HD
ENDROOT
BRANCH   2  16
HETATM   16  S           1      44.604 -15.421   5.743  0.00  0.00    -0.125 SA
BRANCH  16  17
HETATM   17  C           1      44.273 -16.557   7.124  0.00  0.00     0.077 C 
BRANCH  17  18
HETATM   18  C           1      44.831 -17.945   6.771  0.00  0.00     0.010 C 
BRANCH  18  19
HETATM   19  C           1      43.939 -19.070   7.322  0.00  0.00    -0.004 C 
HETATM   20  C           1      43.962 -20.312   6.421  0.00  0.00     0.005 C 
ENDBRANCH  18  19
ENDBRANCH  17  18
ENDBRANCH  16  17
ENDBRANCH   2  16
BRANCH   2  21
HETATM   21  S           1      43.456 -16.620   3.136  0.00  0.00    -0.125 SA
BRANCH  21  22
HETATM   22  C           1      42.882 -18.268   3.653  0.00  0.00     0.077 C 
BRANCH  22  23
HETATM   23  C           1      42.980 -19.224   2.453  0.00  0.00     0.010 C 
BRANCH  23  24
HETATM   24  C           1      44.144 -20.215   2.612  0.00  0.00    -0.004 C 
HETATM   25  C           1      43.904 -21.511   1.824  0.00  0.00     0.005 C 
ENDBRANCH  23  24
ENDBRANCH  22  23
ENDBRANCH  21  22
ENDBRANCH   2  21
BRANCH   3  26
HETATM   26  C           1      40.631 -15.453   2.920  0.00  0.00     0.105 C 
HETATM   27  N           1      39.975 -16.320   2.518  0.00  0.00    -0.151 N 
ENDBRANCH   3  26
BRANCH   1  28
HETATM   28  N           1      39.798 -16.336   5.862  0.00  0.00    -0.388 N 
HETATM   29  H           1      39.835 -16.759   6.822  0.00  0.00     0.157 HD
HETATM   30  H           1      38.873 -16.293   5.367  0.00  0.00     0.157 HD
ENDBRANCH   1  28
BRANCH   7  31
HETATM   31  C           1      39.845 -12.596   5.157  0.00  0.00    -0.026 A 
HETATM   32  C           1      39.476 -13.004   6.385  0.00  0.00     0.009 A 
HETATM   33  C           1      39.379 -12.147   7.414  0.00  0.00     0.001 A 
HETATM   34  C           1      39.646 -10.847   7.229  0.00  0.00     0.000 A 
HETATM   35  C           1      40.007 -10.417   6.011  0.00  0.00     0.001 A 
HETATM   36  C           1      40.102 -11.284   4.991  0.00  0.00     0.009 A 
ENDBRANCH   7  31
TORSDOF 11
ENDMDL
MODEL 3
REMARK VINA RESULT:      -6.4      2.555      4.465
REMARK  11 active torsions:
REMARK  status: ('A' for Active; 'I' for Inactive)
REMARK    1  A    between atoms: C_1  and  C_17 
REMARK    2  A    between atoms: C_1  and  S_18 
REMARK    3  A    between atoms: C_2  and  N_23 
REMARK    4  A    between atoms: C_3  and  C_13 
REMARK    5  A    between atoms: C_6  and  S_18 
REMARK    6  A    between atoms: C_6  and  S_19 
REMARK    7  A    between atoms: C_7  and  C_20 
REMARK    8  A    between atoms: C_7  and  C_21 
REMARK    9  A    between atoms: C_9  and  C_24 
REMARK   10  A    between atoms: C_16  and  C_17 
REMARK   11  A    between atoms: S_19  and  C_20 
ROOT
HETATM    1  C           1      39.761 -15.186   2.097  0.00  0.00     0.092 C 
HETATM    2  C           1      41.764 -14.072   2.837  0.00  0.00     0.156 C 
HETATM    3  C           1      40.381 -14.532   0.894  0.00  0.00     0.127 C 
HETATM    4  C           1      41.236 -13.406   1.515  0.00  0.00     0.136 C 
HETATM    5  C           1      40.421 -12.212   1.878  0.00  0.00     0.079 C 
HETATM    6  N           1      39.773 -11.267   2.061  0.00  0.00    -0.196 NA
HETATM    7  C           1      39.661 -14.021  -0.423  0.00  0.00     0.248 C 
HETATM    8  C           1      41.887 -13.009  -0.925  0.00  0.00     0.105 C 
HETATM    9  N           1      40.533 -14.958   3.127  0.00  0.00    -0.350 N 
HETATM   10  N           1      40.718 -13.647  -1.515  0.00  0.00    -0.040 N 
HETATM   11  C           1      42.859 -12.444  -1.933  0.00  0.00     0.075 C 
HETATM   12  C           1      42.149 -12.924   0.402  0.00  0.00     0.036 C 
HETATM   13  H           1      40.330 -15.335   4.062  0.00  0.00     0.163 HD
HETATM   14  H           1      40.986 -14.477  -2.085  0.00  0.00     0.284 HD
HETATM   15  H           1      40.270 -12.966  -2.169  0.00  0.00     0.284 HD
ENDROOT
BRANCH   2  16
HETATM   16  S           1      41.951 -12.904   4.225  0.00  0.00    -0.125 SA
BRANCH  16  17
HETATM   17  C           1      42.400 -13.993   5.610  0.00  0.00     0.077 C 
BRANCH  17  18
HETATM   18  C           1      43.919 -13.913   5.834  0.00  0.00     0.010 C 
BRANCH  18  19
HETATM   19  C           1      44.355 -14.744   7.052  0.00  0.00    -0.004 C 
HETATM   20  C           1      43.967 -16.222   6.904  0.00  0.00     0.005 C 
ENDBRANCH  18  19
ENDBRANCH  17  18
ENDBRANCH  16  17
ENDBRANCH   2  16
BRANCH   2  21
HETATM   21  S           1      43.210 -15.129   2.487  0.00  0.00    -0.125 SA
BRANCH  21  22
HETATM   22  C           1      42.742 -16.643   3.386  0.00  0.00     0.077 C 
BRANCH  22  23
HETATM   23  C           1      43.655 -17.791   2.927  0.00  0.00     0.010 C 
BRANCH  23  24
HETATM   24  C           1      42.872 -18.861   2.148  0.00  0.00    -0.004 C 
HETATM   25  C           1      43.616 -20.203   2.114  0.00  0.00     0.005 C 
ENDBRANCH  23  24
ENDBRANCH  22  23
ENDBRANCH  21  22
ENDBRANCH   2  21
BRANCH   3  26
HETATM   26  C           1      41.230 -15.533   0.183  0.00  0.00     0.105 C 
HETATM   27  N           1      41.176 -16.665  -0.057  0.00  0.00    -0.151 N 
ENDBRANCH   3  26
BRANCH   1  28
HETATM   28  N           1      38.722 -15.910   2.107  0.00  0.00    -0.388 N 
HETATM   29  H           1      37.801 -15.533   1.773  0.00  0.00     0.157 HD
HETATM   30  H           1      38.764 -16.900   2.454  0.00  0.00     0.157 HD
ENDBRANCH   1  28
BRANCH   7  31
HETATM   31  C           1      38.631 -12.915  -0.242  0.00  0.00    -0.026 A 
HETATM   32  C           1      37.560 -13.127   0.546  0.00  0.00     0.009 A 
HETATM   33  C           1      36.622 -12.184   0.729  0.00  0.00     0.001 A 
HETATM   34  C           1      36.735 -10.999   0.114  0.00  0.00     0.000 A 
HETATM   35  C           1      37.789 -10.771  -0.683  0.00  0.00     0.001 A 
HETATM   36  C           1      38.722 -11.720  -0.857  0.00  0.00     0.009 A 
ENDBRANCH   7  31
TORSDOF 11
ENDMDL
MODEL 4
REMARK VINA RESULT:      -6.3      3.094      4.731
REMARK  11 active torsions:
REMARK  status: ('A' for Active; 'I' for Inactive)
REMARK    1  A    between atoms: C_1  and  C_17 
REMARK    2  A    between atoms: C_1  and  S_18 
REMARK    3  A    between atoms: C_2  and  N_23 
REMARK    4  A    between atoms: C_3  and  C_13 
REMARK    5  A    between atoms: C_6  and  S_18 
REMARK    6  A    between atoms: C_6  and  S_19 
REMARK    7  A    between atoms: C_7  and  C_20 
REMARK    8  A    between atoms: C_7  and  C_21 
REMARK    9  A    between atoms: C_9  and  C_24 
REMARK   10  A    between atoms: C_16  and  C_17 
REMARK   11  A    between atoms: S_19  and  C_20 
ROOT
HETATM    1  C           1      39.938 -15.197   2.174  0.00  0.00     0.092 C 
HETATM    2  C           1      41.657 -13.797   3.115  0.00  0.00     0.156 C 
HETATM    3  C           1      40.561 -14.429   1.042  0.00  0.00     0.127 C 
HETATM    4  C           1      41.161 -13.196   1.751  0.00  0.00     0.136 C 
HETATM    5  C           1      40.135 -12.153   2.037  0.00  0.00     0.079 C 
HETATM    6  N           1      39.330 -11.326   2.160  0.00  0.00    -0.196 NA
HETATM    7  C           1      39.899 -14.011  -0.337  0.00  0.00     0.248 C 
HETATM    8  C           1      41.973 -12.650  -0.611  0.00  0.00     0.105 C 
HETATM    9  N           1      40.561 -14.872   3.277  0.00  0.00    -0.350 N 
HETATM   10  N           1      40.984 -13.451  -1.317  0.00  0.00    -0.040 N 
HETATM   11  C           1      42.936 -11.917  -1.514  0.00  0.00     0.075 C 
HETATM   12  C           1      42.089 -12.552   0.736  0.00  0.00     0.036 C 
HETATM   13  H           1      40.331 -15.296   4.186  0.00  0.00     0.163 HD
HETATM   14  H           1      41.434 -14.216  -1.862  0.00  0.00     0.284 HD
HETATM   15  H           1      40.498 -12.836  -2.009  0.00  0.00     0.284 HD
ENDROOT
BRANCH   2  16
HETATM   16  S           1      41.522 -12.644   4.521  0.00  0.00    -0.125 SA
BRANCH  16  17
HETATM   17  C           1      40.566 -13.600   5.736  0.00  0.00     0.077 C 
BRANCH  17  18
HETATM   18  C           1      39.383 -12.747   6.222  0.00  0.00     0.010 C 
BRANCH  18  19
HETATM   19  C           1      39.531 -11.278   5.791  0.00  0.00    -0.004 C 
HETATM   20  C           1      39.633 -10.336   6.999  0.00  0.00     0.005 C 
ENDBRANCH  18  19
ENDBRANCH  17  18
ENDBRANCH  16  17
ENDBRANCH   2  16
BRANCH   2  21
HETATM   21  S           1      43.280 -14.606   2.904  0.00  0.00    -0.125 SA
BRANCH  21  22
HETATM   22  C           1      43.004 -16.153   3.823  0.00  0.00     0.077 C 
BRANCH  22  23
HETATM   23  C           1      43.672 -17.308   3.058  0.00  0.00     0.010 C 
BRANCH  23  24
HETATM   24  C           1      42.730 -18.514   2.916  0.00  0.00    -0.004 C 
HETATM   25  C           1      43.326 -19.603   2.014  0.00  0.00     0.005 C 
ENDBRANCH  23  24
ENDBRANCH  22  23
ENDBRANCH  21  22
ENDBRANCH   2  21
BRANCH   3  26
HETATM   26  C           1      41.622 -15.268   0.414  0.00  0.00     0.105 C 
HETATM   27  N           1      41.757 -16.383   0.128  0.00  0.00    -0.151 N 
ENDBRANCH   3  26
BRANCH   1  28
HETATM   28  N           1      39.032 -16.076   2.077  0.00  0.00    -0.388 N 
HETATM   29  H           1      38.397 -16.286   2.886  0.00  0.00     0.157 HD
HETATM   30  H           1      38.903 -16.615   1.185  0.00  0.00     0.157 HD
ENDBRANCH   1  28
BRANCH   7  31
HETATM   31  C           1      38.694 -13.085  -0.253  0.00  0.00    -0.026 A 
HETATM   32  C           1      38.699 -11.924  -0.935  0.00  0.00     0.009 A 
HETATM   33  C           1      37.663 -11.072  -0.885  0.00  0.00     0.001 A 
HETATM   34  C           1      36.591 -11.366  -0.137  0.00  0.00     0.000 A 
HETATM   35  C           1      36.568 -12.512   0.558  0.00  0.00     0.001 A 
HETATM   36  C           1      37.610 -13.357   0.498  0.00  0.00     0.009 A 
ENDBRANCH   7  31
TORSDOF 11
ENDMDL
MODEL 5
REMARK VINA RESULT:      -6.3      2.574      7.044
REMARK  11 active torsions:
REMARK  status: ('A' for Active; 'I' for Inactive)
REMARK    1  A    between atoms: C_1  and  C_17 
REMARK    2  A    between atoms: C_1  and  S_18 
REMARK    3  A    between atoms: C_2  and  N_23 
REMARK    4  A    between atoms: C_3  and  C_13 
REMARK    5  A    between atoms: C_6  and  S_18 
REMARK    6  A    between atoms: C_6  and  S_19 
REMARK    7  A    between atoms: C_7  and  C_20 
REMARK    8  A    between atoms: C_7  and  C_21 
REMARK    9  A    between atoms: C_9  and  C_24 
REMARK   10  A    between atoms: C_16  and  C_17 
REMARK   11  A    between atoms: S_19  and  C_20 
ROOT
HETATM    1  C           1      40.262 -15.769   2.364  0.00  0.00     0.092 C 
HETATM    2  C           1      41.573 -13.827   1.808  0.00  0.00     0.156 C 
HETATM    3  C           1      41.263 -15.573   3.468  0.00  0.00     0.127 C 
HETATM    4  C           1      42.381 -14.761   2.778  0.00  0.00     0.136 C 
HETATM    5  C           1      43.285 -15.622   1.964  0.00  0.00     0.079 C 
HETATM    6  N           1      44.022 -16.333   1.417  0.00  0.00    -0.196 NA
HETATM    7  C           1      41.885 -16.668   4.431  0.00  0.00     0.248 C 
HETATM    8  C           1      43.403 -14.811   5.121  0.00  0.00     0.105 C 
HETATM    9  N           1      40.417 -14.803   1.496  0.00  0.00    -0.350 N 
HETATM   10  N           1      42.683 -15.986   5.592  0.00  0.00    -0.040 N 
HETATM   11  C           1      44.350 -14.216   6.136  0.00  0.00     0.075 C 
HETATM   12  C           1      43.258 -14.238   3.902  0.00  0.00     0.036 C 
HETATM   13  H           1      39.820 -14.708   0.665  0.00  0.00     0.163 HD
HETATM   14  H           1      42.062 -15.753   6.396  0.00  0.00     0.284 HD
HETATM   15  H           1      43.382 -16.678   5.944  0.00  0.00     0.284 HD
ENDROOT
BRANCH   2  16
HETATM   16  S           1      42.436 -13.466   0.243  0.00  0.00    -0.125 SA
BRANCH  16  17
HETATM   17  C           1      41.415 -14.328  -0.989  0.00  0.00     0.077 C 
BRANCH  17  18
HETATM   18  C           1      40.549 -13.295  -1.728  0.00  0.00     0.010 C 
BRANCH  18  19
HETATM   19  C           1      39.297 -13.943  -2.342  0.00  0.00    -0.004 C 
HETATM   20  C           1      38.510 -12.954  -3.213  0.00  0.00     0.005 C 
ENDBRANCH  18  19
ENDBRANCH  17  18
ENDBRANCH  16  17
ENDBRANCH   2  16
BRANCH   2  21
HETATM   21  S           1      40.922 -12.379   2.709  0.00  0.00    -0.125 SA
BRANCH  21  22
HETATM   22  C           1      39.771 -11.704   1.470  0.00  0.00     0.077 C 
BRANCH  22  23
HETATM   23  C           1      38.336 -12.081   1.873  0.00  0.00     0.010 C 
BRANCH  23  24
HETATM   24  C           1      37.515 -12.557   0.663  0.00  0.00    -0.004 C 
HETATM   25  C           1      37.214 -14.061   0.732  0.00  0.00     0.005 C 
ENDBRANCH  23  24
ENDBRANCH  22  23
ENDBRANCH  21  22
ENDBRANCH   2  21
BRANCH   3  26
HETATM   26  C           1      40.624 -14.795   4.569  0.00  0.00     0.105 C 
HETATM   27  N           1      39.550 -14.629   4.970  0.00  0.00    -0.151 N 
ENDBRANCH   3  26
BRANCH   1  28
HETATM   28  N           1      39.359 -16.656   2.317  0.00  0.00    -0.388 N 
HETATM   29  H           1      39.075 -17.087   1.404  0.00  0.00     0.157 HD
HETATM   30  H           1      38.874 -16.972   3.194  0.00  0.00     0.157 HD
ENDBRANCH   1  28
BRANCH   7  31
HETATM   31  C           1      42.700 -17.767   3.766  0.00  0.00    -0.026 A 
HETATM   32  C           1      42.183 -18.436   2.718  0.00  0.00     0.009 A 
HETATM   33  C           1      42.861 -19.419   2.104  0.00  0.00     0.001 A 
HETATM   34  C           1      44.082 -19.760   2.537  0.00  0.00     0.000 A 
HETATM   35  C           1      44.612 -19.114   3.585  0.00  0.00     0.001 A 
HETATM   36  C           1      43.925 -18.131   4.190  0.00  0.00     0.009 A 
ENDBRANCH   7  31
TORSDOF 11
ENDMDL
MODEL 6
REMARK VINA RESULT:      -6.2      2.246      5.228
REMARK  11 active torsions:
REMARK  status: ('A' for Active; 'I' for Inactive)
REMARK    1  A    between atoms: C_1  and  C_17 
REMARK    2  A    between atoms: C_1  and  S_18 
REMARK    3  A    between atoms: C_2  and  N_23 
REMARK    4  A    between atoms: C_3  and  C_13 
REMARK    5  A    between atoms: C_6  and  S_18 
REMARK    6  A    between atoms: C_6  and  S_19 
REMARK    7  A    between atoms: C_7  and  C_20 
REMARK    8  A    between atoms: C_7  and  C_21 
REMARK    9  A    between atoms: C_9  and  C_24 
REMARK   10  A    between atoms: C_16  and  C_17 
REMARK   11  A    between atoms: S_19  and  C_20 
ROOT
HETATM    1  C           1      43.526 -14.627   3.995  0.00  0.00     0.092 C 
HETATM    2  C           1      42.109 -16.300   4.993  0.00  0.00     0.156 C 
HETATM    3  C           1      42.432 -13.907   4.734  0.00  0.00     0.127 C 
HETATM    4  C           1      41.308 -14.963   4.800  0.00  0.00     0.136 C 
HETATM    5  C           1      40.538 -15.051   3.527  0.00  0.00     0.079 C 
HETATM    6  N           1      39.903 -15.026   2.556  0.00  0.00    -0.196 NA
HETATM    7  C           1      41.830 -12.471   4.433  0.00  0.00     0.248 C 
HETATM    8  C           1      40.121 -13.130   6.129  0.00  0.00     0.105 C 
HETATM    9  N           1      43.358 -15.912   4.173  0.00  0.00    -0.350 N 
HETATM   10  N           1      40.895 -12.015   5.603  0.00  0.00    -0.040 N 
HETATM   11  C           1      39.057 -12.731   7.124  0.00  0.00     0.075 C 
HETATM   12  C           1      40.310 -14.434   5.816  0.00  0.00     0.036 C 
HETATM   13  H           1      44.007 -16.611   3.786  0.00  0.00     0.163 HD
HETATM   14  H           1      41.434 -11.537   6.356  0.00  0.00     0.284 HD
HETATM   15  H           1      40.229 -11.307   5.218  0.00  0.00     0.284 HD
ENDROOT
BRANCH   2  16
HETATM   16  S           1      41.338 -17.743   4.189  0.00  0.00    -0.125 SA
BRANCH  16  17
HETATM   17  C           1      42.424 -18.036   2.760  0.00  0.00     0.077 C 
BRANCH  17  18
HETATM   18  C           1      43.320 -19.250   3.056  0.00  0.00     0.010 C 
BRANCH  18  19
HETATM   19  C           1      43.387 -20.209   1.856  0.00  0.00    -0.004 C 
HETATM   20  C           1      44.095 -21.523   2.213  0.00  0.00     0.005 C 
ENDBRANCH  18  19
ENDBRANCH  17  18
ENDBRANCH  16  17
ENDBRANCH   2  16
BRANCH   2  21
HETATM   21  S           1      42.573 -16.521   6.745  0.00  0.00    -0.125 SA
BRANCH  21  22
HETATM   22  C           1      44.179 -17.358   6.562  0.00  0.00     0.077 C 
BRANCH  22  23
HETATM   23  C           1      44.160 -18.650   7.396  0.00  0.00     0.010 C 
BRANCH  23  24
HETATM   24  C           1      43.921 -19.888   6.517  0.00  0.00    -0.004 C 
HETATM   25  C           1      43.536 -21.117   7.352  0.00  0.00     0.005 C 
ENDBRANCH  23  24
ENDBRANCH  22  23
ENDBRANCH  21  22
ENDBRANCH   2  21
BRANCH   3  26
HETATM   26  C           1      42.923 -13.547   6.096  0.00  0.00     0.105 C 
HETATM   27  N           1      43.949 -13.338   6.594  0.00  0.00    -0.151 N 
ENDBRANCH   3  26
BRANCH   1  28
HETATM   28  N           1      44.497 -14.093   3.383  0.00  0.00    -0.388 N 
HETATM   29  H           1      44.568 -13.050   3.294  0.00  0.00     0.157 HD
HETATM   30  H           1      45.246 -14.687   2.949  0.00  0.00     0.157 HD
ENDBRANCH   1  28
BRANCH   7  31
HETATM   31  C           1      41.157 -12.292   3.080  0.00  0.00    -0.026 A 
HETATM   32  C           1      41.862 -12.508   1.954  0.00  0.00     0.009 A 
HETATM   33  C           1      41.313 -12.355   0.738  0.00  0.00     0.001 A 
HETATM   34  C           1      40.034 -11.971   0.625  0.00  0.00     0.000 A 
HETATM   35  C           1      39.317 -11.741   1.734  0.00  0.00     0.001 A 
HETATM   36  C           1      39.876 -11.900   2.944  0.00  0.00     0.009 A 
ENDBRANCH   7  31
TORSDOF 11
ENDMDL
MODEL 7
REMARK VINA RESULT:      -6.1      3.581      5.525
REMARK  11 active torsions:
REMARK  status: ('A' for Active; 'I' for Inactive)
REMARK    1  A    between atoms: C_1  and  C_17 
REMARK    2  A    between atoms: C_1  and  S_18 
REMARK    3  A    between atoms: C_2  and  N_23 
REMARK    4  A    between atoms: C_3  and  C_13 
REMARK    5  A    between atoms: C_6  and  S_18 
REMARK    6  A    between atoms: C_6  and  S_19 
REMARK    7  A    between atoms: C_7  and  C_20 
REMARK    8  A    between atoms: C_7  and  C_21 
REMARK    9  A    between atoms: C_9  and  C_24 
REMARK   10  A    between atoms: C_16  and  C_17 
REMARK   11  A    between atoms: S_19  and  C_20 
ROOT
HETATM    1  C           1      39.285 -12.108   1.285  0.00  0.00     0.092 C 
HETATM    2  C           1      40.841 -13.876   1.789  0.00  0.00     0.156 C 
HETATM    3  C           1      39.489 -12.899   0.024  0.00  0.00     0.127 C 
HETATM    4  C           1      40.865 -13.561   0.250  0.00  0.00     0.136 C 
HETATM    5  C           1      41.994 -12.627  -0.025  0.00  0.00     0.079 C 
HETATM    6  N           1      42.847 -11.904  -0.337  0.00  0.00    -0.196 NA
HETATM    7  C           1      39.351 -12.402  -1.476  0.00  0.00     0.248 C 
HETATM    8  C           1      40.356 -14.621  -2.019  0.00  0.00     0.105 C 
HETATM    9  N           1      39.992 -12.665   2.234  0.00  0.00    -0.350 N 
HETATM   10  N           1      39.398 -13.618  -2.461  0.00  0.00    -0.040 N 
HETATM   11  C           1      40.600 -15.727  -3.018  0.00  0.00     0.075 C 
HETATM   12  C           1      40.985 -14.632  -0.819  0.00  0.00     0.036 C 
HETATM   13  H           1      39.988 -12.316   3.202  0.00  0.00     0.163 HD
HETATM   14  H           1      38.452 -14.032  -2.600  0.00  0.00     0.284 HD
HETATM   15  H           1      39.707 -13.258  -3.392  0.00  0.00     0.284 HD
ENDROOT
BRANCH   2  16
HETATM   16  S           1      42.471 -13.741   2.595  0.00  0.00    -0.125 SA
BRANCH  16  17
HETATM   17  C           1      42.089 -12.852   4.133  0.00  0.00     0.077 C 
BRANCH  17  18
HETATM   18  C           1      41.963 -13.871   5.278  0.00  0.00     0.010 C 
BRANCH  18  19
HETATM   19  C           1      40.493 -14.132   5.644  0.00  0.00    -0.004 C 
HETATM   20  C           1      39.820 -12.884   6.234  0.00  0.00     0.005 C 
ENDBRANCH  18  19
ENDBRANCH  17  18
ENDBRANCH  16  17
ENDBRANCH   2  16
BRANCH   2  21
HETATM   21  S           1      39.921 -15.419   2.112  0.00  0.00    -0.125 SA
BRANCH  21  22
HETATM   22  C           1      41.284 -16.529   2.584  0.00  0.00     0.077 C 
BRANCH  22  23
HETATM   23  C           1      41.600 -17.455   1.397  0.00  0.00     0.010 C 
BRANCH  23  24
HETATM   24  C           1      43.080 -17.368   0.989  0.00  0.00    -0.004 C 
HETATM   25  C           1      43.962 -18.299   1.834  0.00  0.00     0.005 C 
ENDBRANCH  23  24
ENDBRANCH  22  23
ENDBRANCH  21  22
ENDBRANCH   2  21
BRANCH   3  26
HETATM   26  C           1      38.405 -13.918  -0.089  0.00  0.00     0.105 C 
HETATM   27  N           1      37.309 -14.026   0.271  0.00  0.00    -0.151 N 
ENDBRANCH   3  26
BRANCH   1  28
HETATM   28  N           1      38.499 -11.127   1.439  0.00  0.00    -0.388 N 
HETATM   29  H           1      38.709 -10.196   1.002  0.00  0.00     0.157 HD
HETATM   30  H           1      37.625 -11.228   2.012  0.00  0.00     0.157 HD
ENDBRANCH   1  28
BRANCH   7  31
HETATM   31  C           1      40.301 -11.296  -1.910  0.00  0.00    -0.026 A 
HETATM   32  C           1      40.282 -10.113  -1.267  0.00  0.00     0.009 A 
HETATM   33  C           1      41.096  -9.105  -1.620  0.00  0.00     0.001 A 
HETATM   34  C           1      41.951  -9.262  -2.640  0.00  0.00     0.000 A 
HETATM   35  C           1      41.980 -10.428  -3.301  0.00  0.00     0.001 A 
HETATM   36  C           1      41.162 -11.429  -2.937  0.00  0.00     0.009 A 
ENDBRANCH   7  31
TORSDOF 11
ENDMDL
MODEL 8
REMARK VINA RESULT:      -6.1      3.228      5.531
REMARK  11 active torsions:
REMARK  status: ('A' for Active; 'I' for Inactive)
REMARK    1  A    between atoms: C_1  and  C_17 
REMARK    2  A    between atoms: C_1  and  S_18 
REMARK    3  A    between atoms: C_2  and  N_23 
REMARK    4  A    between atoms: C_3  and  C_13 
REMARK    5  A    between atoms: C_6  and  S_18 
REMARK    6  A    between atoms: C_6  and  S_19 
REMARK    7  A    between atoms: C_7  and  C_20 
REMARK    8  A    between atoms: C_7  and  C_21 
REMARK    9  A    between atoms: C_9  and  C_24 
REMARK   10  A    between atoms: C_16  and  C_17 
REMARK   11  A    between atoms: S_19  and  C_20 
ROOT
HETATM    1  C           1      39.064 -14.635   1.359  0.00  0.00     0.092 C 
HETATM    2  C           1      41.377 -15.123   1.821  0.00  0.00     0.156 C 
HETATM    3  C           1      39.893 -13.644   0.591  0.00  0.00     0.127 C 
HETATM    4  C           1      41.222 -13.624   1.378  0.00  0.00     0.136 C 
HETATM    5  C           1      41.142 -12.774   2.600  0.00  0.00     0.079 C 
HETATM    6  N           1      41.073 -12.033   3.490  0.00  0.00    -0.196 NA
HETATM    7  C           1      39.494 -12.179   0.136  0.00  0.00     0.248 C 
HETATM    8  C           1      41.908 -12.001  -0.475  0.00  0.00     0.105 C 
HETATM    9  N           1      39.876 -15.446   1.987  0.00  0.00    -0.350 N 
HETATM   10  N           1      40.560 -11.605  -0.857  0.00  0.00    -0.040 N 
HETATM   11  C           1      43.001 -11.326  -1.268  0.00  0.00     0.075 C 
HETATM   12  C           1      42.218 -12.912   0.480  0.00  0.00     0.036 C 
HETATM   13  H           1      39.537 -16.232   2.557  0.00  0.00     0.163 HD
HETATM   14  H           1      40.349 -11.877  -1.840  0.00  0.00     0.284 HD
HETATM   15  H           1      40.502 -10.562  -0.815  0.00  0.00     0.284 HD
ENDROOT
BRANCH   2  16
HETATM   16  S           1      42.177 -15.333   3.445  0.00  0.00    -0.125 SA
BRANCH  16  17
HETATM   17  C           1      40.894 -16.172   4.422  0.00  0.00     0.077 C 
BRANCH  17  18
HETATM   18  C           1      41.439 -17.528   4.898  0.00  0.00     0.010 C 
BRANCH  18  19
HETATM   19  C           1      42.925 -17.437   5.282  0.00  0.00    -0.004 C 
HETATM   20  C           1      43.437 -18.744   5.903  0.00  0.00     0.005 C 
ENDBRANCH  18  19
ENDBRANCH  17  18
ENDBRANCH  16  17
ENDBRANCH   2  16
BRANCH   2  21
HETATM   21  S           1      42.069 -16.124   0.459  0.00  0.00    -0.125 SA
BRANCH  21  22
HETATM   22  C           1      42.333 -17.711   1.312  0.00  0.00     0.077 C 
BRANCH  22  23
HETATM   23  C           1      43.842 -18.001   1.357  0.00  0.00     0.010 C 
BRANCH  23  24
HETATM   24  C           1      44.167 -19.163   2.310  0.00  0.00    -0.004 C 
HETATM   25  C           1      43.421 -20.447   1.922  0.00  0.00     0.005 C 
ENDBRANCH  23  24
ENDBRANCH  22  23
ENDBRANCH  21  22
ENDBRANCH   2  21
BRANCH   3  26
HETATM   26  C           1      40.090 -14.151  -0.798  0.00  0.00     0.105 C 
HETATM   27  N           1      39.414 -14.431  -1.697  0.00  0.00    -0.151 N 
ENDBRANCH   3  26
BRANCH   1  28
HETATM   28  N           1      37.802 -14.737   1.335  0.00  0.00    -0.388 N 
HETATM   29  H           1      37.193 -13.884   1.385  0.00  0.00     0.157 HD
HETATM   30  H           1      37.343 -15.680   1.271  0.00  0.00     0.157 HD
ENDBRANCH   1  28
BRANCH   7  31
HETATM   31  C           1      39.179 -11.189   1.248  0.00  0.00    -0.026 A 
HETATM   32  C           1      38.193 -11.464   2.122  0.00  0.00     0.009 A 
HETATM   33  C           1      37.874 -10.618   3.115  0.00  0.00     0.001 A 
HETATM   34  C           1      38.540  -9.463   3.249  0.00  0.00     0.000 A 
HETATM   35  C           1      39.520  -9.165   2.384  0.00  0.00     0.001 A 
HETATM   36  C           1      39.831 -10.020   1.397  0.00  0.00     0.009 A 
ENDBRANCH   7  31
TORSDOF 11
ENDMDL
MODEL 9
REMARK VINA RESULT:      -6.1      2.215      3.521
REMARK  11 active torsions:
REMARK  status: ('A' for Active; 'I' for Inactive)
REMARK    1  A    between atoms: C_1  and  C_17 
REMARK    2  A    between atoms: C_1  and  S_18 
REMARK    3  A    between atoms: C_2  and  N_23 
REMARK    4  A    between atoms: C_3  and  C_13 
REMARK    5  A    between atoms: C_6  and  S_18 
REMARK    6  A    between atoms: C_6  and  S_19 
REMARK    7  A    between atoms: C_7  and  C_20 
REMARK    8  A    between atoms: C_7  and  C_21 
REMARK    9  A    between atoms: C_9  and  C_24 
REMARK   10  A    between atoms: C_16  and  C_17 
REMARK   11  A    between atoms: S_19  and  C_20 
ROOT
HETATM    1  C           1      40.766 -15.253   4.722  0.00  0.00     0.092 C 
HETATM    2  C           1      42.978 -14.916   3.830  0.00  0.00     0.156 C 
HETATM    3  C           1      40.610 -14.694   3.336  0.00  0.00     0.127 C 
HETATM    4  C           1      41.954 -13.972   3.102  0.00  0.00     0.136 C 
HETATM    5  C           1      41.998 -12.632   3.754  0.00  0.00     0.079 C 
HETATM    6  N           1      41.962 -11.559   4.194  0.00  0.00    -0.196 NA
HETATM    7  C           1      39.409 -13.836   2.756  0.00  0.00     0.248 C 
HETATM    8  C           1      40.931 -13.522   0.803  0.00  0.00     0.105 C 
HETATM    9  N           1      42.044 -15.399   4.961  0.00  0.00    -0.350 N 
HETATM   10  N           1      39.541 -13.689   1.204  0.00  0.00    -0.040 N 
HETATM   11  C           1      41.118 -13.178  -0.656  0.00  0.00     0.075 C 
HETATM   12  C           1      42.006 -13.676   1.613  0.00  0.00     0.036 C 
HETATM   13  H           1      42.398 -15.797   5.841  0.00  0.00     0.163 HD
HETATM   14  H           1      39.096 -14.490   0.707  0.00  0.00     0.284 HD
HETATM   15  H           1      39.014 -12.832   0.921  0.00  0.00     0.284 HD
ENDROOT
BRANCH   2  16
HETATM   16  S           1      44.375 -14.033   4.599  0.00  0.00    -0.125 SA
BRANCH  16  17
HETATM   17  C           1      44.171 -14.413   6.364  0.00  0.00     0.077 C 
BRANCH  17  18
HETATM   18  C           1      45.278 -13.701   7.158  0.00  0.00     0.010 C 
BRANCH  18  19
HETATM   19  C           1      44.700 -12.877   8.321  0.00  0.00    -0.004 C 
HETATM   20  C           1      45.773 -12.015   9.000  0.00  0.00     0.005 C 
ENDBRANCH  18  19
ENDBRANCH  17  18
ENDBRANCH  16  17
ENDBRANCH   2  16
BRANCH   2  21
HETATM   21  S           1      43.421 -16.326   2.759  0.00  0.00    -0.125 SA
BRANCH  21  22
HETATM   22  C           1      43.434 -17.679   3.978  0.00  0.00     0.077 C 
BRANCH  22  23
HETATM   23  C           1      44.074 -18.919   3.331  0.00  0.00     0.010 C 
BRANCH  23  24
HETATM   24  C           1      43.173 -19.516   2.238  0.00  0.00    -0.004 C 
HETATM   25  C           1      43.592 -20.946   1.869  0.00  0.00     0.005 C 
ENDBRANCH  23  24
ENDBRANCH  22  23
ENDBRANCH  21  22
ENDBRANCH   2  21
BRANCH   3  26
HETATM   26  C           1      40.422 -15.822   2.377  0.00  0.00     0.105 C 
HETATM   27  N           1      39.900 -16.856   2.385  0.00  0.00    -0.151 N 
ENDBRANCH   3  26
BRANCH   1  28
HETATM   28  N           1      39.831 -15.611   5.498  0.00  0.00    -0.388 N 
HETATM   29  H           1      39.171 -14.905   5.906  0.00  0.00     0.157 HD
HETATM   30  H           1      39.705 -16.622   5.751  0.00  0.00     0.157 HD
ENDBRANCH   1  28
BRANCH   7  31
HETATM   31  C           1      39.158 -12.491   3.423  0.00  0.00    -0.026 A 
HETATM   32  C           1      39.067 -11.381   2.667  0.00  0.00     0.009 A 
HETATM   33  C           1      38.855 -10.172   3.211  0.00  0.00     0.001 A 
HETATM   34  C           1      38.735 -10.048   4.540  0.00  0.00     0.000 A 
HETATM   35  C           1      38.831 -11.140   5.313  0.00  0.00     0.001 A 
HETATM   36  C           1      39.042 -12.343   4.757  0.00  0.00     0.009 A 
ENDBRANCH   7  31
TORSDOF 11
ENDMDL
MODEL 10
REMARK VINA RESULT:      -6.0      3.829      7.833
REMARK  11 active torsions:
REMARK  status: ('A' for Active; 'I' for Inactive)
REMARK    1  A    between atoms: C_1  and  C_17 
REMARK    2  A    between atoms: C_1  and  S_18 
REMARK    3  A    between atoms: C_2  and  N_23 
REMARK    4  A    between atoms: C_3  and  C_13 
REMARK    5  A    between atoms: C_6  and  S_18 
REMARK    6  A    between atoms: C_6  and  S_19 
REMARK    7  A    between atoms: C_7  and  C_20 
REMARK    8  A    between atoms: C_7  and  C_21 
REMARK    9  A    between atoms: C_9  and  C_24 
REMARK   10  A    between atoms: C_16  and  C_17 
REMARK   11  A    between atoms: S_19  and  C_20 
ROOT
HETATM    1  C           1      40.184 -14.245  -0.298  0.00  0.00     0.092 C 
HETATM    2  C           1      40.575 -12.067   0.653  0.00  0.00     0.156 C 
HETATM    3  C           1      39.970 -14.359   1.185  0.00  0.00     0.127 C 
HETATM    4  C           1      40.792 -13.177   1.744  0.00  0.00     0.136 C 
HETATM    5  C           1      42.248 -13.488   1.821  0.00  0.00     0.079 C 
HETATM    6  N           1      43.359 -13.796   1.954  0.00  0.00    -0.196 NA
HETATM    7  C           1      40.143 -15.640   2.103  0.00  0.00     0.248 C 
HETATM    8  C           1      39.851 -14.009   3.970  0.00  0.00     0.105 C 
HETATM    9  N           1      40.475 -13.000  -0.574  0.00  0.00    -0.350 N 
HETATM   10  N           1      39.569 -15.369   3.534  0.00  0.00    -0.040 N 
HETATM   11  C           1      39.501 -13.736   5.414  0.00  0.00     0.075 C 
HETATM   12  C           1      40.356 -13.023   3.190  0.00  0.00     0.036 C 
HETATM   13  H           1      40.634 -12.670  -1.535  0.00  0.00     0.163 HD
HETATM   14  H           1      38.549 -15.579   3.580  0.00  0.00     0.284 HD
HETATM   15  H           1      40.039 -16.029   4.194  0.00  0.00     0.284 HD
ENDROOT
BRANCH   2  16
HETATM   16  S           1      42.017 -10.979   0.412  0.00  0.00    -0.125 SA
BRANCH  16  17
HETATM   17  C           1      42.699 -11.558  -1.171  0.00  0.00     0.077 C 
BRANCH  17  18
HETATM   18  C           1      43.160 -10.341  -1.989  0.00  0.00     0.010 C 
BRANCH  18  19
HETATM   19  C           1      42.419 -10.250  -3.334  0.00  0.00    -0.004 C 
HETATM   20  C           1      42.284 -11.624  -4.006  0.00  0.00     0.005 C 
ENDBRANCH  18  19
ENDBRANCH  17  18
ENDBRANCH  16  17
ENDBRANCH   2  16
BRANCH   2  21
HETATM   21  S           1      38.977 -11.223   0.910  0.00  0.00    -0.125 SA
BRANCH  21  22
HETATM   22  C           1      38.393 -11.082  -0.809  0.00  0.00     0.077 C 
BRANCH  22  23
HETATM   23  C           1      36.920 -11.521  -0.867  0.00  0.00     0.010 C 
BRANCH  23  24
HETATM   24  C           1      36.245 -11.423   0.510  0.00  0.00    -0.004 C 
HETATM   25  C           1      34.960 -10.586   0.460  0.00  0.00     0.005 C 
ENDBRANCH  23  24
ENDBRANCH  22  23
ENDBRANCH  21  22
ENDBRANCH   2  21
BRANCH   3  26
HETATM   26  C           1      38.516 -14.199   1.478  0.00  0.00     0.105 C 
HETATM   27  N           1      37.518 -14.550   1.006  0.00  0.00    -0.151 N 
ENDBRANCH   3  26
BRANCH   1  28
HETATM   28  N           1      40.023 -15.165  -1.154  0.00  0.00    -0.388 N 
HETATM   29  H           1      40.424 -15.077  -2.119  0.00  0.00     0.157 HD
HETATM   30  H           1      39.480 -16.031  -0.912  0.00  0.00     0.157 HD
ENDBRANCH   1  28
BRANCH   7  31
HETATM   31  C           1      41.540 -16.239   2.168  0.00  0.00    -0.026 A 
HETATM   32  C           1      42.126 -16.683   1.041  0.00  0.00     0.009 A 
HETATM   33  C           1      43.354 -17.227   1.050  0.00  0.00     0.001 A 
HETATM   34  C           1      44.025 -17.343   2.205  0.00  0.00     0.000 A 
HETATM   35  C           1      43.456 -16.916   3.341  0.00  0.00     0.001 A 
HETATM   36  C           1      42.229 -16.372   3.318  0.00  0.00     0.009 A 
ENDBRANCH   7  31
TORSDOF 11
ENDMDL
