MODEL 1
REMARK VINA RESULT:     -10.1      0.000      0.000
REMARK  8 active torsions:
REMARK  status: ('A' for Active; 'I' for Inactive)
REMARK    1  A    between atoms: C_8  and  N_9 
REMARK    2  A    between atoms: N_9  and  C_10 
REMARK    3  A    between atoms: N_14  and  C_15 
REMARK    4  A    between atoms: C_15  and  C_16 
REMARK    5  A    between atoms: C_28  and  N_29 
REMARK       I    between atoms: N_29  and  C_30 
REMARK    6  A    between atoms: C_30  and  O_31 
REMARK    7  A    between atoms: O_31  and  C_32 
REMARK    8  A    between atoms: C_32  and  C_33 
ROOT
HETATM    1  C   UNL     1      39.432 -14.806   2.142  1.00  0.00     0.053 C 
HETATM    2  C   UNL     1      39.776 -13.468   2.698  1.00  0.00    -0.002 A 
HETATM    3  C   UNL     1      39.949 -13.129   4.040  1.00  0.00     0.106 A 
HETATM    4  N   UNL     1      40.264 -11.803   4.106  1.00  0.00    -0.238 N 
HETATM    5  N   UNL     1      40.490 -11.113   5.230  1.00  0.00    -0.161 NA
HETATM    6  C   UNL     1      40.409 -11.831   6.304  1.00  0.00     0.257 A 
HETATM    7  N   UNL     1      40.142 -13.171   6.375  1.00  0.00    -0.226 NA
HETATM    8  C   UNL     1      39.919 -13.855   5.289  1.00  0.00     0.138 A 
HETATM    9  C   UNL     1      40.347 -11.286   2.846  1.00  0.00     0.149 A 
HETATM   10  C   UNL     1      40.070 -12.284   1.944  1.00  0.00     0.062 A 
ENDROOT
BRANCH   8  11
HETATM   11  N   UNL     1      39.673 -15.218   5.354  1.00  0.00    -0.242 NA
HETATM   12  H   UNL     1      39.019 -15.543   4.658  1.00  0.00     0.135 HD
BRANCH  11  13
HETATM   13  C   UNL     1      40.747 -16.146   5.471  1.00  0.00     0.015 A 
HETATM   14  C   UNL     1      41.242 -16.562   6.718  1.00  0.00     0.039 A 
HETATM   15  C   UNL     1      42.389 -17.376   6.778  1.00  0.00     0.013 A 
HETATM   16  C   UNL     1      43.007 -17.774   5.598  1.00  0.00     0.065 A 
HETATM   17  C   UNL     1      43.171 -17.946   7.804  1.00  0.00     0.152 A 
HETATM   18  N   UNL     1      44.141 -18.448   5.997  1.00  0.00    -0.265 N 
HETATM   19  C   UNL     1      42.495 -17.444   4.338  1.00  0.00     0.034 A 
HETATM   20  N   UNL     1      44.237 -18.601   7.337  1.00  0.00    -0.183 NA
HETATM   21  C   UNL     1      41.354 -16.633   4.303  1.00  0.00     0.026 A 
BRANCH  18  22
HETATM   22  C   UNL     1      45.241 -18.897   5.148  1.00  0.00     0.190 C 
BRANCH  22  23
HETATM   23  C   UNL     1      44.952 -20.223   4.473  1.00  0.00    -0.035 A 
HETATM   24  C   UNL     1      44.684 -20.303   3.095  1.00  0.00     0.051 A 
HETATM   25  C   UNL     1      44.398 -21.532   2.509  1.00  0.00     0.117 A 
HETATM   26  F   UNL     1      44.107 -21.589   1.203  1.00  0.00    -0.206 F 
HETATM   27  C   UNL     1      44.402 -22.701   3.259  1.00  0.00     0.042 A 
HETATM   28  C   UNL     1      44.701 -22.642   4.618  1.00  0.00     0.004 A 
HETATM   29  C   UNL     1      44.977 -21.411   5.222  1.00  0.00     0.009 A 
ENDBRANCH  22  23
ENDBRANCH  18  22
ENDBRANCH  11  13
ENDBRANCH   8  11
BRANCH  10  30
HETATM   30  N   UNL     1      40.092 -12.179   0.564  1.00  0.00    -0.301 N 
HETATM   31  C   UNL     1      41.213 -12.200  -0.211  1.00  0.00     0.365 C 
HETATM   32  O   UNL     1      42.384 -12.247   0.141  1.00  0.00    -0.238 OA
HETATM   33  H   UNL     1      39.214 -12.249   0.069  1.00  0.00     0.171 HD
BRANCH  31  34
HETATM   34  O   UNL     1      40.854 -12.217  -1.522  1.00  0.00    -0.302 OA
BRANCH  34  35
HETATM   35  C   UNL     1      41.205 -13.390  -2.294  1.00  0.00     0.215 C 
BRANCH  35  36
HETATM   36  C   UNL     1      40.517 -14.704  -1.847  1.00  0.00     0.233 C 
HETATM   37  N   UNL     1      39.008 -14.538  -1.720  1.00  0.00    -0.065 N 
HETATM   38  H   UNL     1      38.609 -15.304  -1.166  1.00  0.00     0.277 HD
HETATM   39  H   UNL     1      38.819 -13.671  -1.172  1.00  0.00     0.277 HD
HETATM   40  C   UNL     1      38.275 -14.401  -3.026  1.00  0.00     0.259 C 
HETATM   41  C   UNL     1      38.708 -15.510  -3.986  1.00  0.00     0.195 C 
HETATM   42  O   UNL     1      40.136 -15.551  -4.115  1.00  0.00    -0.387 OA
HETATM   43  C   UNL     1      40.771 -15.835  -2.861  1.00  0.00     0.202 C 
ENDBRANCH  35  36
ENDBRANCH  34  35
ENDBRANCH  31  34
ENDBRANCH  10  30
TORSDOF 8
ENDMDL
MODEL 2
REMARK VINA RESULT:      -9.6      4.353      9.961
REMARK  8 active torsions:
REMARK  status: ('A' for Active; 'I' for Inactive)
REMARK    1  A    between atoms: C_8  and  N_9 
REMARK    2  A    between atoms: N_9  and  C_10 
REMARK    3  A    between atoms: N_14  and  C_15 
REMARK    4  A    between atoms: C_15  and  C_16 
REMARK    5  A    between atoms: C_28  and  N_29 
REMARK       I    between atoms: N_29  and  C_30 
REMARK    6  A    between atoms: C_30  and  O_31 
REMARK    7  A    between atoms: O_31  and  C_32 
REMARK    8  A    between atoms: C_32  and  C_33 
ROOT
HETATM    1  C   UNL     1      41.688 -14.782   5.539  1.00  0.00     0.053 C 
HETATM    2  C   UNL     1      42.669 -15.898   5.641  1.00  0.00    -0.002 A 
HETATM    3  C   UNL     1      42.805 -16.985   4.777  1.00  0.00     0.106 A 
HETATM    4  N   UNL     1      43.829 -17.763   5.232  1.00  0.00    -0.238 N 
HETATM    5  N   UNL     1      44.248 -18.904   4.670  1.00  0.00    -0.161 NA
HETATM    6  C   UNL     1      43.597 -19.222   3.597  1.00  0.00     0.257 A 
HETATM    7  N   UNL     1      42.583 -18.514   3.015  1.00  0.00    -0.226 NA
HETATM    8  C   UNL     1      42.165 -17.403   3.551  1.00  0.00     0.138 A 
HETATM    9  C   UNL     1      44.390 -17.188   6.335  1.00  0.00     0.149 A 
HETATM   10  C   UNL     1      43.716 -16.025   6.613  1.00  0.00     0.062 A 
ENDROOT
BRANCH   8  11
HETATM   11  N   UNL     1      41.153 -16.669   2.951  1.00  0.00    -0.242 NA
HETATM   12  H   UNL     1      40.631 -16.096   3.598  1.00  0.00     0.135 HD
BRANCH  11  13
HETATM   13  C   UNL     1      41.398 -15.935   1.754  1.00  0.00     0.015 A 
HETATM   14  C   UNL     1      41.631 -14.551   1.761  1.00  0.00     0.039 A 
HETATM   15  C   UNL     1      41.736 -13.854   0.543  1.00  0.00     0.013 A 
HETATM   16  C   UNL     1      41.626 -14.552  -0.655  1.00  0.00     0.065 A 
HETATM   17  C   UNL     1      41.927 -12.510   0.160  1.00  0.00     0.152 A 
HETATM   18  N   UNL     1      41.655 -13.585  -1.637  1.00  0.00    -0.265 N 
HETATM   19  C   UNL     1      41.473 -15.942  -0.699  1.00  0.00     0.034 A 
HETATM   20  N   UNL     1      41.881 -12.339  -1.164  1.00  0.00    -0.183 NA
HETATM   21  C   UNL     1      41.371 -16.614   0.526  1.00  0.00     0.026 A 
BRANCH  18  22
HETATM   22  C   UNL     1      41.374 -13.768  -3.058  1.00  0.00     0.190 C 
BRANCH  22  23
HETATM   23  C   UNL     1      39.927 -14.131  -3.324  1.00  0.00    -0.035 A 
HETATM   24  C   UNL     1      38.894 -13.189  -3.173  1.00  0.00     0.051 A 
HETATM   25  C   UNL     1      37.572 -13.559  -3.401  1.00  0.00     0.117 A 
HETATM   26  F   UNL     1      36.594 -12.663  -3.216  1.00  0.00    -0.206 F 
HETATM   27  C   UNL     1      37.249 -14.847  -3.809  1.00  0.00     0.042 A 
HETATM   28  C   UNL     1      38.265 -15.781  -3.997  1.00  0.00     0.004 A 
HETATM   29  C   UNL     1      39.597 -15.425  -3.759  1.00  0.00     0.009 A 
ENDBRANCH  22  23
ENDBRANCH  18  22
ENDBRANCH  11  13
ENDBRANCH   8  11
BRANCH  10  30
HETATM   30  N   UNL     1      44.003 -15.126   7.626  1.00  0.00    -0.301 N 
HETATM   31  C   UNL     1      44.810 -14.034   7.506  1.00  0.00     0.365 C 
HETATM   32  O   UNL     1      45.471 -13.675   6.541  1.00  0.00    -0.238 OA
HETATM   33  H   UNL     1      43.459 -15.180   8.476  1.00  0.00     0.171 HD
BRANCH  31  34
HETATM   34  O   UNL     1      44.752 -13.303   8.650  1.00  0.00    -0.302 OA
BRANCH  34  35
HETATM   35  C   UNL     1      44.029 -12.050   8.605  1.00  0.00     0.215 C 
BRANCH  35  36
HETATM   36  C   UNL     1      44.456 -11.004   9.665  1.00  0.00     0.233 C 
HETATM   37  N   UNL     1      43.266 -10.206  10.183  1.00  0.00    -0.065 N 
HETATM   38  H   UNL     1      43.586  -9.351  10.654  1.00  0.00     0.277 HD
HETATM   39  H   UNL     1      42.709  -9.880   9.364  1.00  0.00     0.277 HD
HETATM   40  C   UNL     1      42.331 -10.974  11.074  1.00  0.00     0.259 C 
HETATM   41  C   UNL     1      43.123 -11.701  12.162  1.00  0.00     0.195 C 
HETATM   42  O   UNL     1      44.175 -12.493  11.591  1.00  0.00    -0.387 OA
HETATM   43  C   UNL     1      45.118 -11.682  10.879  1.00  0.00     0.202 C 
ENDBRANCH  35  36
ENDBRANCH  34  35
ENDBRANCH  31  34
ENDBRANCH  10  30
TORSDOF 8
ENDMDL
MODEL 3
REMARK VINA RESULT:      -9.3      4.330     10.049
REMARK  8 active torsions:
REMARK  status: ('A' for Active; 'I' for Inactive)
REMARK    1  A    between atoms: C_8  and  N_9 
REMARK    2  A    between atoms: N_9  and  C_10 
REMARK    3  A    between atoms: N_14  and  C_15 
REMARK    4  A    between atoms: C_15  and  C_16 
REMARK    5  A    between atoms: C_28  and  N_29 
REMARK       I    between atoms: N_29  and  C_30 
REMARK    6  A    between atoms: C_30  and  O_31 
REMARK    7  A    between atoms: O_31  and  C_32 
REMARK    8  A    between atoms: C_32  and  C_33 
ROOT
HETATM    1  C   UNL     1      41.417 -15.105   5.920  1.00  0.00     0.053 C 
HETATM    2  C   UNL     1      42.551 -16.067   5.836  1.00  0.00    -0.002 A 
HETATM    3  C   UNL     1      42.702 -17.119   4.932  1.00  0.00     0.106 A 
HETATM    4  N   UNL     1      43.885 -17.743   5.200  1.00  0.00    -0.238 N 
HETATM    5  N   UNL     1      44.367 -18.808   4.549  1.00  0.00    -0.161 NA
HETATM    6  C   UNL     1      43.607 -19.212   3.582  1.00  0.00     0.257 A 
HETATM    7  N   UNL     1      42.423 -18.655   3.185  1.00  0.00    -0.226 NA
HETATM    8  C   UNL     1      41.942 -17.619   3.810  1.00  0.00     0.138 A 
HETATM    9  C   UNL     1      44.526 -17.098   6.218  1.00  0.00     0.149 A 
HETATM   10  C   UNL     1      43.745 -16.046   6.630  1.00  0.00     0.062 A 
ENDROOT
BRANCH   8  11
HETATM   11  N   UNL     1      40.754 -17.036   3.395  1.00  0.00    -0.242 NA
HETATM   12  H   UNL     1      40.216 -16.635   4.149  1.00  0.00     0.135 HD
BRANCH  11  13
HETATM   13  C   UNL     1      40.727 -16.162   2.271  1.00  0.00     0.015 A 
HETATM   14  C   UNL     1      39.605 -15.376   1.961  1.00  0.00     0.039 A 
HETATM   15  C   UNL     1      39.580 -14.632   0.767  1.00  0.00     0.013 A 
HETATM   16  C   UNL     1      40.680 -14.669  -0.084  1.00  0.00     0.065 A 
HETATM   17  C   UNL     1      38.655 -13.785   0.123  1.00  0.00     0.152 A 
HETATM   18  N   UNL     1      40.299 -13.945  -1.192  1.00  0.00    -0.265 N 
HETATM   19  C   UNL     1      41.844 -15.378   0.231  1.00  0.00     0.034 A 
HETATM   20  N   UNL     1      39.086 -13.361  -1.068  1.00  0.00    -0.183 NA
HETATM   21  C   UNL     1      41.845 -16.111   1.424  1.00  0.00     0.026 A 
BRANCH  18  22
HETATM   22  C   UNL     1      41.012 -13.843  -2.463  1.00  0.00     0.190 C 
BRANCH  22  23
HETATM   23  C   UNL     1      41.648 -12.483  -2.667  1.00  0.00    -0.035 A 
HETATM   24  C   UNL     1      42.575 -11.961  -1.748  1.00  0.00     0.051 A 
HETATM   25  C   UNL     1      43.124 -10.698  -1.950  1.00  0.00     0.117 A 
HETATM   26  F   UNL     1      43.977 -10.196  -1.047  1.00  0.00    -0.206 F 
HETATM   27  C   UNL     1      42.794  -9.945  -3.069  1.00  0.00     0.042 A 
HETATM   28  C   UNL     1      41.904 -10.464  -4.007  1.00  0.00     0.004 A 
HETATM   29  C   UNL     1      41.336 -11.727  -3.809  1.00  0.00     0.009 A 
ENDBRANCH  22  23
ENDBRANCH  18  22
ENDBRANCH  11  13
ENDBRANCH   8  11
BRANCH  10  30
HETATM   30  N   UNL     1      44.058 -15.120   7.610  1.00  0.00    -0.301 N 
HETATM   31  C   UNL     1      44.786 -13.984   7.419  1.00  0.00     0.365 C 
HETATM   32  O   UNL     1      45.344 -13.597   6.401  1.00  0.00    -0.238 OA
HETATM   33  H   UNL     1      43.589 -15.197   8.502  1.00  0.00     0.171 HD
BRANCH  31  34
HETATM   34  O   UNL     1      44.776 -13.245   8.559  1.00  0.00    -0.302 OA
BRANCH  34  35
HETATM   35  C   UNL     1      43.970 -12.043   8.568  1.00  0.00     0.215 C 
BRANCH  35  36
HETATM   36  C   UNL     1      44.374 -10.985   9.624  1.00  0.00     0.233 C 
HETATM   37  N   UNL     1      43.164 -10.240  10.171  1.00  0.00    -0.065 N 
HETATM   38  H   UNL     1      43.456  -9.375  10.640  1.00  0.00     0.277 HD
HETATM   39  H   UNL     1      42.576  -9.933   9.365  1.00  0.00     0.277 HD
HETATM   40  C   UNL     1      42.279 -11.051  11.077  1.00  0.00     0.259 C 
HETATM   41  C   UNL     1      43.124 -11.748  12.144  1.00  0.00     0.195 C 
HETATM   42  O   UNL     1      44.195 -12.493  11.547  1.00  0.00    -0.387 OA
HETATM   43  C   UNL     1      45.089 -11.640  10.820  1.00  0.00     0.202 C 
ENDBRANCH  35  36
ENDBRANCH  34  35
ENDBRANCH  31  34
ENDBRANCH  10  30
TORSDOF 8
ENDMDL
MODEL 4
REMARK VINA RESULT:      -9.3      3.443      6.837
REMARK  8 active torsions:
REMARK  status: ('A' for Active; 'I' for Inactive)
REMARK    1  A    between atoms: C_8  and  N_9 
REMARK    2  A    between atoms: N_9  and  C_10 
REMARK    3  A    between atoms: N_14  and  C_15 
REMARK    4  A    between atoms: C_15  and  C_16 
REMARK    5  A    between atoms: C_28  and  N_29 
REMARK       I    between atoms: N_29  and  C_30 
REMARK    6  A    between atoms: C_30  and  O_31 
REMARK    7  A    between atoms: O_31  and  C_32 
REMARK    8  A    between atoms: C_32  and  C_33 
ROOT
HETATM    1  C   UNL     1      39.665 -12.899   6.215  1.00  0.00     0.053 C 
HETATM    2  C   UNL     1      40.095 -12.087   5.043  1.00  0.00    -0.002 A 
HETATM    3  C   UNL     1      40.350 -12.540   3.748  1.00  0.00     0.106 A 
HETATM    4  N   UNL     1      40.710 -11.466   2.986  1.00  0.00    -0.238 N 
HETATM    5  N   UNL     1      41.045 -11.510   1.691  1.00  0.00    -0.161 NA
HETATM    6  C   UNL     1      40.976 -12.696   1.178  1.00  0.00     0.257 A 
HETATM    7  N   UNL     1      40.594 -13.843   1.816  1.00  0.00    -0.226 NA
HETATM    8  C   UNL     1      40.267 -13.816   3.077  1.00  0.00     0.138 A 
HETATM    9  C   UNL     1      40.650 -10.328   3.736  1.00  0.00     0.149 A 
HETATM   10  C   UNL     1      40.257 -10.662   5.009  1.00  0.00     0.062 A 
ENDROOT
BRANCH   8  11
HETATM   11  N   UNL     1      39.854 -14.972   3.722  1.00  0.00    -0.242 NA
HETATM   12  H   UNL     1      39.112 -15.460   3.243  1.00  0.00     0.135 HD
BRANCH  11  13
HETATM   13  C   UNL     1      40.807 -15.912   4.210  1.00  0.00     0.015 A 
HETATM   14  C   UNL     1      40.957 -16.182   5.579  1.00  0.00     0.039 A 
HETATM   15  C   UNL     1      42.001 -17.018   6.017  1.00  0.00     0.013 A 
HETATM   16  C   UNL     1      42.861 -17.583   5.082  1.00  0.00     0.065 A 
HETATM   17  C   UNL     1      42.473 -17.478   7.264  1.00  0.00     0.152 A 
HETATM   18  N   UNL     1      43.820 -18.236   5.826  1.00  0.00    -0.265 N 
HETATM   19  C   UNL     1      42.694 -17.399   3.706  1.00  0.00     0.034 A 
HETATM   20  N   UNL     1      43.577 -18.221   7.156  1.00  0.00    -0.183 NA
HETATM   21  C   UNL     1      41.648 -16.563   3.294  1.00  0.00     0.026 A 
BRANCH  18  22
HETATM   22  C   UNL     1      45.063 -18.825   5.335  1.00  0.00     0.190 C 
BRANCH  22  23
HETATM   23  C   UNL     1      44.845 -20.159   4.651  1.00  0.00    -0.035 A 
HETATM   24  C   UNL     1      44.693 -20.253   3.256  1.00  0.00     0.051 A 
HETATM   25  C   UNL     1      44.470 -21.490   2.659  1.00  0.00     0.117 A 
HETATM   26  F   UNL     1      44.288 -21.561   1.334  1.00  0.00    -0.206 F 
HETATM   27  C   UNL     1      44.424 -22.653   3.418  1.00  0.00     0.042 A 
HETATM   28  C   UNL     1      44.609 -22.580   4.796  1.00  0.00     0.004 A 
HETATM   29  C   UNL     1      44.821 -21.341   5.410  1.00  0.00     0.009 A 
ENDBRANCH  22  23
ENDBRANCH  18  22
ENDBRANCH  11  13
ENDBRANCH   8  11
BRANCH  10  30
HETATM   30  N   UNL     1      40.033  -9.790   6.060  1.00  0.00    -0.301 N 
HETATM   31  C   UNL     1      38.888  -9.080   6.267  1.00  0.00     0.365 C 
HETATM   32  O   UNL     1      37.889  -9.020   5.561  1.00  0.00    -0.238 OA
HETATM   33  H   UNL     1      40.696  -9.787   6.823  1.00  0.00     0.171 HD
BRANCH  31  34
HETATM   34  O   UNL     1      38.964  -8.440   7.462  1.00  0.00    -0.302 OA
BRANCH  34  35
HETATM   35  C   UNL     1      39.596  -9.145   8.557  1.00  0.00     0.215 C 
BRANCH  35  36
HETATM   36  C   UNL     1      38.645 -10.010   9.421  1.00  0.00     0.233 C 
HETATM   37  N   UNL     1      39.297 -11.321   9.840  1.00  0.00    -0.065 N 
HETATM   38  H   UNL     1      38.586 -11.990  10.158  1.00  0.00     0.277 HD
HETATM   39  H   UNL     1      39.730 -11.756   8.996  1.00  0.00     0.277 HD
HETATM   40  C   UNL     1      40.384 -11.186  10.870  1.00  0.00     0.259 C 
HETATM   41  C   UNL     1      39.894 -10.326  12.037  1.00  0.00     0.195 C 
HETATM   42  O   UNL     1      39.368  -9.076  11.569  1.00  0.00    -0.387 OA
HETATM   43  C   UNL     1      38.238  -9.269  10.709  1.00  0.00     0.202 C 
ENDBRANCH  35  36
ENDBRANCH  34  35
ENDBRANCH  31  34
ENDBRANCH  10  30
TORSDOF 8
ENDMDL
MODEL 5
REMARK VINA RESULT:      -9.2      5.311      8.854
REMARK  8 active torsions:
REMARK  status: ('A' for Active; 'I' for Inactive)
REMARK    1  A    between atoms: C_8  and  N_9 
REMARK    2  A    between atoms: N_9  and  C_10 
REMARK    3  A    between atoms: N_14  and  C_15 
REMARK    4  A    between atoms: C_15  and  C_16 
REMARK    5  A    between atoms: C_28  and  N_29 
REMARK       I    between atoms: N_29  and  C_30 
REMARK    6  A    between atoms: C_30  and  O_31 
REMARK    7  A    between atoms: O_31  and  C_32 
REMARK    8  A    between atoms: C_32  and  C_33 
ROOT
HETATM    1  C   UNL     1      42.399 -10.766   8.911  1.00  0.00     0.053 C 
HETATM    2  C   UNL     1      41.166 -10.287   8.227  1.00  0.00    -0.002 A 
HETATM    3  C   UNL     1      40.637 -10.744   7.020  1.00  0.00     0.106 A 
HETATM    4  N   UNL     1      39.497 -10.041   6.762  1.00  0.00    -0.238 N 
HETATM    5  N   UNL     1      38.718 -10.190   5.684  1.00  0.00    -0.161 NA
HETATM    6  C   UNL     1      39.128 -11.112   4.872  1.00  0.00     0.257 A 
HETATM    7  N   UNL     1      40.225 -11.913   5.031  1.00  0.00    -0.226 NA
HETATM    8  C   UNL     1      40.992 -11.778   6.075  1.00  0.00     0.138 A 
HETATM    9  C   UNL     1      39.247  -9.176   7.787  1.00  0.00     0.149 A 
HETATM   10  C   UNL     1      40.244  -9.307   8.723  1.00  0.00     0.062 A 
ENDROOT
BRANCH   8  11
HETATM   11  N   UNL     1      42.091 -12.605   6.252  1.00  0.00    -0.242 NA
HETATM   12  H   UNL     1      42.294 -12.804   7.220  1.00  0.00     0.135 HD
BRANCH  11  13
HETATM   13  C   UNL     1      42.241 -13.791   5.478  1.00  0.00     0.015 A 
HETATM   14  C   UNL     1      41.571 -14.982   5.798  1.00  0.00     0.039 A 
HETATM   15  C   UNL     1      41.856 -16.159   5.081  1.00  0.00     0.013 A 
HETATM   16  C   UNL     1      42.787 -16.122   4.049  1.00  0.00     0.065 A 
HETATM   17  C   UNL     1      41.428 -17.502   5.131  1.00  0.00     0.152 A 
HETATM   18  N   UNL     1      42.919 -17.431   3.639  1.00  0.00    -0.265 N 
HETATM   19  C   UNL     1      43.415 -14.937   3.652  1.00  0.00     0.034 A 
HETATM   20  N   UNL     1      42.068 -18.281   4.256  1.00  0.00    -0.183 NA
HETATM   21  C   UNL     1      43.116 -13.778   4.380  1.00  0.00     0.026 A 
BRANCH  18  22
HETATM   22  C   UNL     1      43.918 -17.966   2.717  1.00  0.00     0.190 C 
BRANCH  22  23
HETATM   23  C   UNL     1      44.096 -19.464   2.858  1.00  0.00    -0.035 A 
HETATM   24  C   UNL     1      44.671 -20.030   4.010  1.00  0.00     0.051 A 
HETATM   25  C   UNL     1      44.843 -21.408   4.100  1.00  0.00     0.117 A 
HETATM   26  F   UNL     1      45.427 -21.931   5.186  1.00  0.00    -0.206 F 
HETATM   27  C   UNL     1      44.427 -22.250   3.077  1.00  0.00     0.042 A 
HETATM   28  C   UNL     1      43.824 -21.707   1.945  1.00  0.00     0.004 A 
HETATM   29  C   UNL     1      43.657 -20.322   1.837  1.00  0.00     0.009 A 
ENDBRANCH  22  23
ENDBRANCH  18  22
ENDBRANCH  11  13
ENDBRANCH   8  11
BRANCH  10  30
HETATM   30  N   UNL     1      40.335  -8.639   9.932  1.00  0.00    -0.301 N 
HETATM   31  C   UNL     1      39.428  -8.718  10.947  1.00  0.00     0.365 C 
HETATM   32  O   UNL     1      38.361  -9.317  10.973  1.00  0.00    -0.238 OA
HETATM   33  H   UNL     1      41.206  -8.179  10.156  1.00  0.00     0.171 HD
BRANCH  31  34
HETATM   34  O   UNL     1      39.905  -8.048  12.029  1.00  0.00    -0.302 OA
BRANCH  34  35
HETATM   35  C   UNL     1      40.189  -8.821  13.219  1.00  0.00     0.215 C 
BRANCH  35  36
HETATM   36  C   UNL     1      41.557  -8.530  13.884  1.00  0.00     0.233 C 
HETATM   37  N   UNL     1      42.206  -9.798  14.423  1.00  0.00    -0.065 N 
HETATM   38  H   UNL     1      42.949  -9.565  15.092  1.00  0.00     0.277 HD
HETATM   39  H   UNL     1      41.492 -10.323  14.973  1.00  0.00     0.277 HD
HETATM   40  C   UNL     1      42.727 -10.738  13.371  1.00  0.00     0.259 C 
HETATM   41  C   UNL     1      43.587  -9.970  12.365  1.00  0.00     0.195 C 
HETATM   42  O   UNL     1      42.879  -8.836  11.843  1.00  0.00    -0.387 OA
HETATM   43  C   UNL     1      42.541  -7.904  12.878  1.00  0.00     0.202 C 
ENDBRANCH  35  36
ENDBRANCH  34  35
ENDBRANCH  31  34
ENDBRANCH  10  30
TORSDOF 8
ENDMDL
MODEL 6
REMARK VINA RESULT:      -9.1      4.419      6.048
REMARK  8 active torsions:
REMARK  status: ('A' for Active; 'I' for Inactive)
REMARK    1  A    between atoms: C_8  and  N_9 
REMARK    2  A    between atoms: N_9  and  C_10 
REMARK    3  A    between atoms: N_14  and  C_15 
REMARK    4  A    between atoms: C_15  and  C_16 
REMARK    5  A    between atoms: C_28  and  N_29 
REMARK       I    between atoms: N_29  and  C_30 
REMARK    6  A    between atoms: C_30  and  O_31 
REMARK    7  A    between atoms: O_31  and  C_32 
REMARK    8  A    between atoms: C_32  and  C_33 
ROOT
HETATM    1  C   UNL     1      37.170 -14.108   0.670  1.00  0.00     0.053 C 
HETATM    2  C   UNL     1      37.943 -12.842   0.546  1.00  0.00    -0.002 A 
HETATM    3  C   UNL     1      39.306 -12.705   0.277  1.00  0.00     0.106 A 
HETATM    4  N   UNL     1      39.601 -11.374   0.241  1.00  0.00    -0.238 N 
HETATM    5  N   UNL     1      40.814 -10.852   0.024  1.00  0.00    -0.161 NA
HETATM    6  C   UNL     1      41.731 -11.741  -0.185  1.00  0.00     0.257 A 
HETATM    7  N   UNL     1      41.563 -13.098  -0.216  1.00  0.00    -0.226 NA
HETATM    8  C   UNL     1      40.388 -13.620  -0.005  1.00  0.00     0.138 A 
HETATM    9  C   UNL     1      38.463 -10.644   0.430  1.00  0.00     0.149 A 
HETATM   10  C   UNL     1      37.412 -11.511   0.605  1.00  0.00     0.062 A 
ENDROOT
BRANCH   8  11
HETATM   11  N   UNL     1      40.208 -14.994  -0.060  1.00  0.00    -0.242 NA
HETATM   12  H   UNL     1      40.278 -15.373  -0.992  1.00  0.00     0.135 HD
BRANCH  11  13
HETATM   13  C   UNL     1      40.880 -15.852   0.858  1.00  0.00     0.015 A 
HETATM   14  C   UNL     1      40.375 -16.115   2.141  1.00  0.00     0.039 A 
HETATM   15  C   UNL     1      41.142 -16.862   3.055  1.00  0.00     0.013 A 
HETATM   16  C   UNL     1      42.386 -17.348   2.665  1.00  0.00     0.065 A 
HETATM   17  C   UNL     1      40.993 -17.287   4.391  1.00  0.00     0.152 A 
HETATM   18  N   UNL     1      42.917 -17.922   3.800  1.00  0.00    -0.265 N 
HETATM   19  C   UNL     1      42.884 -17.173   1.370  1.00  0.00     0.034 A 
HETATM   20  N   UNL     1      42.067 -17.933   4.851  1.00  0.00    -0.183 NA
HETATM   21  C   UNL     1      42.103 -16.426   0.479  1.00  0.00     0.026 A 
BRANCH  18  22
HETATM   22  C   UNL     1      44.285 -18.401   3.984  1.00  0.00     0.190 C 
BRANCH  22  23
HETATM   23  C   UNL     1      44.408 -19.899   3.791  1.00  0.00    -0.035 A 
HETATM   24  C   UNL     1      44.793 -20.746   4.845  1.00  0.00     0.051 A 
HETATM   25  C   UNL     1      44.920 -22.115   4.630  1.00  0.00     0.117 A 
HETATM   26  F   UNL     1      45.325 -22.906   5.632  1.00  0.00    -0.206 F 
HETATM   27  C   UNL     1      44.642 -22.674   3.389  1.00  0.00     0.042 A 
HETATM   28  C   UNL     1      44.225 -21.852   2.345  1.00  0.00     0.004 A 
HETATM   29  C   UNL     1      44.105 -20.472   2.545  1.00  0.00     0.009 A 
ENDBRANCH  22  23
ENDBRANCH  18  22
ENDBRANCH  11  13
ENDBRANCH   8  11
BRANCH  10  30
HETATM   30  N   UNL     1      36.082 -11.170   0.782  1.00  0.00    -0.301 N 
HETATM   31  C   UNL     1      35.196 -10.904  -0.220  1.00  0.00     0.365 C 
HETATM   32  O   UNL     1      35.399 -10.849  -1.425  1.00  0.00    -0.238 OA
HETATM   33  H   UNL     1      35.684 -11.275   1.704  1.00  0.00     0.171 HD
BRANCH  31  34
HETATM   34  O   UNL     1      33.953 -10.747   0.308  1.00  0.00    -0.302 OA
BRANCH  34  35
HETATM   35  C   UNL     1      33.863 -10.453   1.722  1.00  0.00     0.215 C 
BRANCH  35  36
HETATM   36  C   UNL     1      32.514 -10.822   2.388  1.00  0.00     0.233 C 
HETATM   37  N   UNL     1      32.592 -10.740   3.908  1.00  0.00    -0.065 N 
HETATM   38  H   UNL     1      31.808 -11.246   4.335  1.00  0.00     0.277 HD
HETATM   39  H   UNL     1      33.451 -11.244   4.219  1.00  0.00     0.277 HD
HETATM   40  C   UNL     1      32.676  -9.345   4.462  1.00  0.00     0.259 C 
HETATM   41  C   UNL     1      31.588  -8.469   3.839  1.00  0.00     0.195 C 
HETATM   42  O   UNL     1      31.629  -8.537   2.407  1.00  0.00    -0.387 OA
HETATM   43  C   UNL     1      31.392  -9.869   1.935  1.00  0.00     0.202 C 
ENDBRANCH  35  36
ENDBRANCH  34  35
ENDBRANCH  31  34
ENDBRANCH  10  30
TORSDOF 8
ENDMDL
MODEL 7
REMARK VINA RESULT:      -9.0      2.684      5.602
REMARK  8 active torsions:
REMARK  status: ('A' for Active; 'I' for Inactive)
REMARK    1  A    between atoms: C_8  and  N_9 
REMARK    2  A    between atoms: N_9  and  C_10 
REMARK    3  A    between atoms: N_14  and  C_15 
REMARK    4  A    between atoms: C_15  and  C_16 
REMARK    5  A    between atoms: C_28  and  N_29 
REMARK       I    between atoms: N_29  and  C_30 
REMARK    6  A    between atoms: C_30  and  O_31 
REMARK    7  A    between atoms: O_31  and  C_32 
REMARK    8  A    between atoms: C_32  and  C_33 
ROOT
HETATM    1  C   UNL     1      40.305 -12.866   2.308  1.00  0.00     0.053 C 
HETATM    2  C   UNL     1      40.986 -12.304   1.109  1.00  0.00    -0.002 A 
HETATM    3  C   UNL     1      41.235 -12.951  -0.102  1.00  0.00     0.106 A 
HETATM    4  N   UNL     1      41.872 -12.073  -0.930  1.00  0.00    -0.238 N 
HETATM    5  N   UNL     1      42.285 -12.339  -2.175  1.00  0.00    -0.161 NA
HETATM    6  C   UNL     1      42.004 -13.539  -2.569  1.00  0.00     0.257 A 
HETATM    7  N   UNL     1      41.338 -14.499  -1.859  1.00  0.00    -0.226 NA
HETATM    8  C   UNL     1      40.931 -14.255  -0.646  1.00  0.00     0.138 A 
HETATM    9  C   UNL     1      42.000 -10.864  -0.309  1.00  0.00     0.149 A 
HETATM   10  C   UNL     1      41.450 -10.957   0.946  1.00  0.00     0.062 A 
ENDROOT
BRANCH   8  11
HETATM   11  N   UNL     1      40.233 -15.217   0.070  1.00  0.00    -0.242 NA
HETATM   12  H   UNL     1      39.616 -15.776  -0.500  1.00  0.00     0.135 HD
BRANCH  11  13
HETATM   13  C   UNL     1      40.904 -16.052   1.010  1.00  0.00     0.015 A 
HETATM   14  C   UNL     1      40.405 -16.270   2.304  1.00  0.00     0.039 A 
HETATM   15  C   UNL     1      41.172 -16.995   3.235  1.00  0.00     0.013 A 
HETATM   16  C   UNL     1      42.409 -17.502   2.854  1.00  0.00     0.065 A 
HETATM   17  C   UNL     1      41.028 -17.376   4.586  1.00  0.00     0.152 A 
HETATM   18  N   UNL     1      42.943 -18.045   4.003  1.00  0.00    -0.265 N 
HETATM   19  C   UNL     1      42.901 -17.372   1.551  1.00  0.00     0.034 A 
HETATM   20  N   UNL     1      42.099 -18.016   5.059  1.00  0.00    -0.183 NA
HETATM   21  C   UNL     1      42.121 -16.646   0.642  1.00  0.00     0.026 A 
BRANCH  18  22
HETATM   22  C   UNL     1      44.308 -18.529   4.194  1.00  0.00     0.190 C 
BRANCH  22  23
HETATM   23  C   UNL     1      44.441 -20.015   3.926  1.00  0.00    -0.035 A 
HETATM   24  C   UNL     1      44.289 -20.544   2.632  1.00  0.00     0.051 A 
HETATM   25  C   UNL     1      44.393 -21.915   2.421  1.00  0.00     0.117 A 
HETATM   26  F   UNL     1      44.207 -22.411   1.191  1.00  0.00    -0.206 F 
HETATM   27  C   UNL     1      44.678 -22.781   3.469  1.00  0.00     0.042 A 
HETATM   28  C   UNL     1      44.867 -22.267   4.750  1.00  0.00     0.004 A 
HETATM   29  C   UNL     1      44.752 -20.892   4.978  1.00  0.00     0.009 A 
ENDBRANCH  22  23
ENDBRANCH  18  22
ENDBRANCH  11  13
ENDBRANCH   8  11
BRANCH  10  30
HETATM   30  N   UNL     1      41.340  -9.938   1.876  1.00  0.00    -0.301 N 
HETATM   31  C   UNL     1      40.392  -8.958   1.865  1.00  0.00     0.365 C 
HETATM   32  O   UNL     1      39.521  -8.748   1.031  1.00  0.00    -0.238 OA
HETATM   33  H   UNL     1      41.897 -10.000   2.716  1.00  0.00     0.171 HD
BRANCH  31  34
HETATM   34  O   UNL     1      40.497  -8.217   2.998  1.00  0.00    -0.302 OA
BRANCH  34  35
HETATM   35  C   UNL     1      41.305  -8.752   4.073  1.00  0.00     0.215 C 
BRANCH  35  36
HETATM   36  C   UNL     1      40.609  -8.814   5.455  1.00  0.00     0.233 C 
HETATM   37  N   UNL     1      39.187  -9.350   5.348  1.00  0.00    -0.065 N 
HETATM   38  H   UNL     1      38.654  -9.124   6.196  1.00  0.00     0.277 HD
HETATM   39  H   UNL     1      38.703  -8.844   4.574  1.00  0.00     0.277 HD
HETATM   40  C   UNL     1      39.086 -10.819   5.044  1.00  0.00     0.259 C 
HETATM   41  C   UNL     1      39.987 -11.612   5.991  1.00  0.00     0.195 C 
HETATM   42  O   UNL     1      41.327 -11.099   5.977  1.00  0.00    -0.387 OA
HETATM   43  C   UNL     1      41.375  -9.737   6.422  1.00  0.00     0.202 C 
ENDBRANCH  35  36
ENDBRANCH  34  35
ENDBRANCH  31  34
ENDBRANCH  10  30
TORSDOF 8
ENDMDL
MODEL 8
REMARK VINA RESULT:      -8.7      4.076      7.653
REMARK  8 active torsions:
REMARK  status: ('A' for Active; 'I' for Inactive)
REMARK    1  A    between atoms: C_8  and  N_9 
REMARK    2  A    between atoms: N_9  and  C_10 
REMARK    3  A    between atoms: N_14  and  C_15 
REMARK    4  A    between atoms: C_15  and  C_16 
REMARK    5  A    between atoms: C_28  and  N_29 
REMARK       I    between atoms: N_29  and  C_30 
REMARK    6  A    between atoms: C_30  and  O_31 
REMARK    7  A    between atoms: O_31  and  C_32 
REMARK    8  A    between atoms: C_32  and  C_33 
ROOT
HETATM    1  C   UNL     1      39.483 -12.478   6.563  1.00  0.00     0.053 C 
HETATM    2  C   UNL     1      39.789 -11.358   5.630  1.00  0.00    -0.002 A 
HETATM    3  C   UNL     1      39.879 -11.416   4.239  1.00  0.00     0.106 A 
HETATM    4  N   UNL     1      40.169 -10.164   3.779  1.00  0.00    -0.238 N 
HETATM    5  N   UNL     1      40.347  -9.830   2.496  1.00  0.00    -0.161 NA
HETATM    6  C   UNL     1      40.192 -10.820   1.676  1.00  0.00     0.257 A 
HETATM    7  N   UNL     1      39.863 -12.107   2.000  1.00  0.00    -0.226 NA
HETATM    8  C   UNL     1      39.689 -12.447   3.245  1.00  0.00     0.138 A 
HETATM    9  C   UNL     1      40.222  -9.290   4.826  1.00  0.00     0.149 A 
HETATM   10  C   UNL     1      39.976  -9.981   5.987  1.00  0.00     0.062 A 
ENDROOT
BRANCH   8  11
HETATM   11  N   UNL     1      39.331 -13.745   3.577  1.00  0.00    -0.242 NA
HETATM   12  H   UNL     1      38.470 -14.049   3.147  1.00  0.00     0.135 HD
BRANCH  11  13
HETATM   13  C   UNL     1      40.288 -14.799   3.527  1.00  0.00     0.015 A 
HETATM   14  C   UNL     1      41.205 -15.025   4.566  1.00  0.00     0.039 A 
HETATM   15  C   UNL     1      42.215 -15.992   4.409  1.00  0.00     0.013 A 
HETATM   16  C   UNL     1      42.279 -16.728   3.231  1.00  0.00     0.065 A 
HETATM   17  C   UNL     1      43.295 -16.462   5.185  1.00  0.00     0.152 A 
HETATM   18  N   UNL     1      43.423 -17.487   3.345  1.00  0.00    -0.265 N 
HETATM   19  C   UNL     1      41.335 -16.584   2.208  1.00  0.00     0.034 A 
HETATM   20  N   UNL     1      44.033 -17.372   4.546  1.00  0.00    -0.183 NA
HETATM   21  C   UNL     1      40.340 -15.615   2.387  1.00  0.00     0.026 A 
BRANCH  18  22
HETATM   22  C   UNL     1      44.056 -18.285   2.298  1.00  0.00     0.190 C 
BRANCH  22  23
HETATM   23  C   UNL     1      44.196 -19.744   2.682  1.00  0.00    -0.035 A 
HETATM   24  C   UNL     1      44.624 -20.128   3.966  1.00  0.00     0.051 A 
HETATM   25  C   UNL     1      44.766 -21.476   4.281  1.00  0.00     0.117 A 
HETATM   26  F   UNL     1      45.211 -21.826   5.495  1.00  0.00    -0.206 F 
HETATM   27  C   UNL     1      44.461 -22.464   3.354  1.00  0.00     0.042 A 
HETATM   28  C   UNL     1      44.002 -22.100   2.090  1.00  0.00     0.004 A 
HETATM   29  C   UNL     1      43.868 -20.748   1.756  1.00  0.00     0.009 A 
ENDBRANCH  22  23
ENDBRANCH  18  22
ENDBRANCH  11  13
ENDBRANCH   8  11
BRANCH  10  30
HETATM   30  N   UNL     1      39.897  -9.450   7.263  1.00  0.00    -0.301 N 
HETATM   31  C   UNL     1      40.952  -9.259   8.104  1.00  0.00     0.365 C 
HETATM   32  O   UNL     1      42.126  -9.566   7.939  1.00  0.00    -0.238 OA
HETATM   33  H   UNL     1      39.026  -9.023   7.546  1.00  0.00     0.171 HD
BRANCH  31  34
HETATM   34  O   UNL     1      40.531  -8.592   9.210  1.00  0.00    -0.302 OA
BRANCH  34  35
HETATM   35  C   UNL     1      41.167  -8.919  10.469  1.00  0.00     0.215 C 
BRANCH  35  36
HETATM   36  C   UNL     1      40.765 -10.286  11.075  1.00  0.00     0.233 C 
HETATM   37  N   UNL     1      41.712 -11.398  10.640  1.00  0.00    -0.065 N 
HETATM   38  H   UNL     1      41.286 -12.317  10.808  1.00  0.00     0.277 HD
HETATM   39  H   UNL     1      41.839 -11.335   9.607  1.00  0.00     0.277 HD
HETATM   40  C   UNL     1      43.082 -11.337  11.256  1.00  0.00     0.259 C 
HETATM   41  C   UNL     1      42.967 -11.165  12.771  1.00  0.00     0.195 C 
HETATM   42  O   UNL     1      42.125 -10.052  13.101  1.00  0.00    -0.387 OA
HETATM   43  C   UNL     1      40.790 -10.239  12.615  1.00  0.00     0.202 C 
ENDBRANCH  35  36
ENDBRANCH  34  35
ENDBRANCH  31  34
ENDBRANCH  10  30
TORSDOF 8
ENDMDL
MODEL 9
REMARK VINA RESULT:      -8.7      1.939      2.834
REMARK  8 active torsions:
REMARK  status: ('A' for Active; 'I' for Inactive)
REMARK    1  A    between atoms: C_8  and  N_9 
REMARK    2  A    between atoms: N_9  and  C_10 
REMARK    3  A    between atoms: N_14  and  C_15 
REMARK    4  A    between atoms: C_15  and  C_16 
REMARK    5  A    between atoms: C_28  and  N_29 
REMARK       I    between atoms: N_29  and  C_30 
REMARK    6  A    between atoms: C_30  and  O_31 
REMARK    7  A    between atoms: O_31  and  C_32 
REMARK    8  A    between atoms: C_32  and  C_33 
ROOT
HETATM    1  C   UNL     1      40.490 -13.233   0.849  1.00  0.00     0.053 C 
HETATM    2  C   UNL     1      39.444 -12.398   1.502  1.00  0.00    -0.002 A 
HETATM    3  C   UNL     1      39.564 -11.661   2.680  1.00  0.00     0.106 A 
HETATM    4  N   UNL     1      38.373 -11.038   2.916  1.00  0.00    -0.238 N 
HETATM    5  N   UNL     1      38.101 -10.252   3.964  1.00  0.00    -0.161 NA
HETATM    6  C   UNL     1      39.103 -10.095   4.768  1.00  0.00     0.257 A 
HETATM    7  N   UNL     1      40.355 -10.626   4.628  1.00  0.00    -0.226 NA
HETATM    8  C   UNL     1      40.634 -11.394   3.614  1.00  0.00     0.138 A 
HETATM    9  C   UNL     1      37.502 -11.312   1.901  1.00  0.00     0.149 A 
HETATM   10  C   UNL     1      38.128 -12.135   0.997  1.00  0.00     0.062 A 
ENDROOT
BRANCH   8  11
HETATM   11  N   UNL     1      41.909 -11.915   3.455  1.00  0.00    -0.242 NA
HETATM   12  H   UNL     1      42.633 -11.342   3.862  1.00  0.00     0.135 HD
BRANCH  11  13
HETATM   13  C   UNL     1      42.173 -13.287   3.731  1.00  0.00     0.015 A 
HETATM   14  C   UNL     1      41.346 -14.054   4.566  1.00  0.00     0.039 A 
HETATM   15  C   UNL     1      41.724 -15.365   4.912  1.00  0.00     0.013 A 
HETATM   16  C   UNL     1      42.907 -15.892   4.403  1.00  0.00     0.065 A 
HETATM   17  C   UNL     1      41.193 -16.391   5.721  1.00  0.00     0.152 A 
HETATM   18  N   UNL     1      43.042 -17.121   5.012  1.00  0.00    -0.265 N 
HETATM   19  C   UNL     1      43.714 -15.185   3.506  1.00  0.00     0.034 A 
HETATM   20  N   UNL     1      41.987 -17.462   5.785  1.00  0.00    -0.183 NA
HETATM   21  C   UNL     1      43.318 -13.882   3.177  1.00  0.00     0.026 A 
BRANCH  18  22
HETATM   22  C   UNL     1      44.212 -17.994   4.976  1.00  0.00     0.190 C 
BRANCH  22  23
HETATM   23  C   UNL     1      44.079 -19.104   3.952  1.00  0.00    -0.035 A 
HETATM   24  C   UNL     1      44.547 -20.404   4.212  1.00  0.00     0.051 A 
HETATM   25  C   UNL     1      44.433 -21.395   3.243  1.00  0.00     0.117 A 
HETATM   26  F   UNL     1      44.918 -22.619   3.489  1.00  0.00    -0.206 F 
HETATM   27  C   UNL     1      43.830 -21.133   2.019  1.00  0.00     0.042 A 
HETATM   28  C   UNL     1      43.329 -19.860   1.760  1.00  0.00     0.004 A 
HETATM   29  C   UNL     1      43.450 -18.851   2.722  1.00  0.00     0.009 A 
ENDBRANCH  22  23
ENDBRANCH  18  22
ENDBRANCH  11  13
ENDBRANCH   8  11
BRANCH  10  30
HETATM   30  N   UNL     1      37.600 -12.605  -0.193  1.00  0.00    -0.301 N 
HETATM   31  C   UNL     1      37.947 -12.168  -1.437  1.00  0.00     0.365 C 
HETATM   32  O   UNL     1      38.714 -11.265  -1.743  1.00  0.00    -0.238 OA
HETATM   33  H   UNL     1      37.032 -13.440  -0.163  1.00  0.00     0.171 HD
BRANCH  31  34
HETATM   34  O   UNL     1      37.340 -12.945  -2.373  1.00  0.00    -0.302 OA
BRANCH  34  35
HETATM   35  C   UNL     1      37.878 -14.270  -2.590  1.00  0.00     0.215 C 
BRANCH  35  36
HETATM   36  C   UNL     1      38.747 -14.429  -3.863  1.00  0.00     0.233 C 
HETATM   37  N   UNL     1      39.984 -13.542  -3.817  1.00  0.00    -0.065 N 
HETATM   38  H   UNL     1      40.388 -13.442  -4.755  1.00  0.00     0.277 HD
HETATM   39  H   UNL     1      39.688 -12.581  -3.539  1.00  0.00     0.277 HD
HETATM   40  C   UNL     1      41.039 -13.978  -2.838  1.00  0.00     0.259 C 
HETATM   41  C   UNL     1      41.338 -15.467  -3.022  1.00  0.00     0.195 C 
HETATM   42  O   UNL     1      40.133 -16.244  -2.974  1.00  0.00    -0.387 OA
HETATM   43  C   UNL     1      39.230 -15.883  -4.026  1.00  0.00     0.202 C 
ENDBRANCH  35  36
ENDBRANCH  34  35
ENDBRANCH  31  34
ENDBRANCH  10  30
TORSDOF 8
ENDMDL
MODEL 10
REMARK VINA RESULT:      -8.7      1.807      2.386
REMARK  8 active torsions:
REMARK  status: ('A' for Active; 'I' for Inactive)
REMARK    1  A    between atoms: C_8  and  N_9 
REMARK    2  A    between atoms: N_9  and  C_10 
REMARK    3  A    between atoms: N_14  and  C_15 
REMARK    4  A    between atoms: C_15  and  C_16 
REMARK    5  A    between atoms: C_28  and  N_29 
REMARK       I    between atoms: N_29  and  C_30 
REMARK    6  A    between atoms: C_30  and  O_31 
REMARK    7  A    between atoms: O_31  and  C_32 
REMARK    8  A    between atoms: C_32  and  C_33 
ROOT
HETATM    1  C   UNL     1      41.055 -12.707   1.353  1.00  0.00     0.053 C 
HETATM    2  C   UNL     1      39.907 -11.929   1.897  1.00  0.00    -0.002 A 
HETATM    3  C   UNL     1      39.787 -11.380   3.174  1.00  0.00     0.106 A 
HETATM    4  N   UNL     1      38.583 -10.743   3.251  1.00  0.00    -0.238 N 
HETATM    5  N   UNL     1      38.107 -10.107   4.328  1.00  0.00    -0.161 NA
HETATM    6  C   UNL     1      38.919 -10.117   5.336  1.00  0.00     0.257 A 
HETATM    7  N   UNL     1      40.164 -10.681   5.378  1.00  0.00    -0.226 NA
HETATM    8  C   UNL     1      40.639 -11.304   4.338  1.00  0.00     0.138 A 
HETATM    9  C   UNL     1      37.942 -10.823   2.048  1.00  0.00     0.149 A 
HETATM   10  C   UNL     1      38.732 -11.532   1.178  1.00  0.00     0.062 A 
ENDROOT
BRANCH   8  11
HETATM   11  N   UNL     1      41.911 -11.856   4.368  1.00  0.00    -0.242 NA
HETATM   12  H   UNL     1      42.622 -11.215   4.688  1.00  0.00     0.135 HD
BRANCH  11  13
HETATM   13  C   UNL     1      42.133 -13.141   4.940  1.00  0.00     0.015 A 
HETATM   14  C   UNL     1      43.291 -13.443   5.674  1.00  0.00     0.039 A 
HETATM   15  C   UNL     1      43.522 -14.763   6.104  1.00  0.00     0.013 A 
HETATM   16  C   UNL     1      42.587 -15.750   5.812  1.00  0.00     0.065 A 
HETATM   17  C   UNL     1      44.545 -15.433   6.807  1.00  0.00     0.152 A 
HETATM   18  N   UNL     1      43.155 -16.924   6.259  1.00  0.00    -0.265 N 
HETATM   19  C   UNL     1      41.386 -15.470   5.152  1.00  0.00     0.034 A 
HETATM   20  N   UNL     1      44.328 -16.747   6.907  1.00  0.00    -0.183 NA
HETATM   21  C   UNL     1      41.178 -14.149   4.733  1.00  0.00     0.026 A 
BRANCH  18  22
HETATM   22  C   UNL     1      42.673 -18.281   6.015  1.00  0.00     0.190 C 
BRANCH  22  23
HETATM   23  C   UNL     1      43.413 -18.966   4.883  1.00  0.00    -0.035 A 
HETATM   24  C   UNL     1      43.189 -18.614   3.540  1.00  0.00     0.051 A 
HETATM   25  C   UNL     1      43.866 -19.279   2.522  1.00  0.00     0.117 A 
HETATM   26  F   UNL     1      43.615 -18.961   1.245  1.00  0.00    -0.206 F 
HETATM   27  C   UNL     1      44.793 -20.273   2.808  1.00  0.00     0.042 A 
HETATM   28  C   UNL     1      45.051 -20.607   4.135  1.00  0.00     0.004 A 
HETATM   29  C   UNL     1      44.368 -19.956   5.168  1.00  0.00     0.009 A 
ENDBRANCH  22  23
ENDBRANCH  18  22
ENDBRANCH  11  13
ENDBRANCH   8  11
BRANCH  10  30
HETATM   30  N   UNL     1      38.461 -11.797  -0.154  1.00  0.00    -0.301 N 
HETATM   31  C   UNL     1      39.061 -11.190  -1.217  1.00  0.00     0.365 C 
HETATM   32  O   UNL     1      39.878 -10.280  -1.215  1.00  0.00    -0.238 OA
HETATM   33  H   UNL     1      37.895 -12.606  -0.371  1.00  0.00     0.171 HD
BRANCH  31  34
HETATM   34  O   UNL     1      38.657 -11.793  -2.366  1.00  0.00    -0.302 OA
BRANCH  34  35
HETATM   35  C   UNL     1      39.513 -12.821  -2.916  1.00  0.00     0.215 C 
BRANCH  35  36
HETATM   36  C   UNL     1      39.425 -14.199  -2.214  1.00  0.00     0.233 C 
HETATM   37  N   UNL     1      38.032 -14.805  -2.329  1.00  0.00    -0.065 N 
HETATM   38  H   UNL     1      37.910 -15.555  -1.640  1.00  0.00     0.277 HD
HETATM   39  H   UNL     1      37.335 -14.074  -2.070  1.00  0.00     0.277 HD
HETATM   40  C   UNL     1      37.668 -15.294  -3.703  1.00  0.00     0.259 C 
HETATM   41  C   UNL     1      38.786 -16.178  -4.257  1.00  0.00     0.195 C 
HETATM   42  O   UNL     1      40.053 -15.509  -4.188  1.00  0.00    -0.387 OA
HETATM   43  C   UNL     1      40.415 -15.203  -2.835  1.00  0.00     0.202 C 
ENDBRANCH  35  36
ENDBRANCH  34  35
ENDBRANCH  31  34
ENDBRANCH  10  30
TORSDOF 8
ENDMDL
