MODEL 1
REMARK VINA RESULT:      -9.0      0.000      0.000
REMARK  5 active torsions:
REMARK  status: ('A' for Active; 'I' for Inactive)
REMARK    1  A    between atoms: C_7  and  C_8 
REMARK    2  A    between atoms: C_10  and  N_11 
REMARK       I    between atoms: N_11  and  C_12 
REMARK    3  A    between atoms: C_12  and  C_13 
REMARK    4  A    between atoms: C_15  and  O_16 
REMARK    5  A    between atoms: C_19  and  O_20 
ROOT
HETATM    1  C   UNL     1      44.661 -11.623   9.675  1.00  0.00     0.019 A 
HETATM    2  C   UNL     1      44.340 -12.718   8.855  1.00  0.00     0.045 A 
HETATM    3  C   UNL     1      45.224 -13.190   7.879  1.00  0.00     0.035 A 
HETATM    4  C   UNL     1      46.456 -12.549   7.724  1.00  0.00     0.029 A 
HETATM    5  C   UNL     1      46.788 -11.448   8.521  1.00  0.00     0.003 A 
HETATM    6  C   UNL     1      45.896 -10.990   9.492  1.00  0.00     0.016 A 
ENDROOT
BRANCH   3   7
HETATM    7  N   UNL     1      44.959 -14.326   7.077  1.00  0.00    -0.323 N 
HETATM    8  C   UNL     1      43.861 -14.497   6.246  1.00  0.00     0.256 C 
HETATM    9  O   UNL     1      43.091 -13.599   5.916  1.00  0.00    -0.267 OA
HETATM   10  H   UNL     1      45.656 -15.052   7.119  1.00  0.00     0.169 HD
BRANCH   8  11
HETATM   11  C   UNL     1      43.590 -15.872   5.709  1.00  0.00     0.037 A 
HETATM   12  C   UNL     1      42.647 -15.962   4.667  1.00  0.00     0.054 A 
HETATM   13  C   UNL     1      42.278 -17.195   4.137  1.00  0.00     0.071 A 
HETATM   14  C   UNL     1      42.866 -18.350   4.648  1.00  0.00     0.073 A 
HETATM   15  C   UNL     1      43.812 -18.286   5.675  1.00  0.00     0.071 A 
HETATM   16  C   UNL     1      44.171 -17.046   6.210  1.00  0.00     0.054 A 
BRANCH  13  17
HETATM   17  O   UNL     1      41.362 -17.399   3.143  1.00  0.00    -0.356 OA
HETATM   18  C   UNL     1      40.693 -16.249   2.636  1.00  0.00     0.210 C 
ENDBRANCH  13  17
BRANCH  15  19
HETATM   19  O   UNL     1      44.295 -19.503   6.069  1.00  0.00    -0.356 OA
HETATM   20  C   UNL     1      44.649 -20.432   5.052  1.00  0.00     0.210 C 
ENDBRANCH  15  19
ENDBRANCH   8  11
ENDBRANCH   3   7
BRANCH   1  21
HETATM   21  C   UNL     1      43.747 -11.175  10.724  1.00  0.00     0.181 A 
HETATM   22  N   UNL     1      42.428 -11.255  10.784  1.00  0.00    -0.221 NA
HETATM   23  C   UNL     1      42.118 -10.620  11.963  1.00  0.00     0.093 A 
HETATM   24  C   UNL     1      43.276 -10.188  12.583  1.00  0.00     0.107 A 
HETATM   25  C   UNL     1      40.889 -10.352  12.579  1.00  0.00     0.035 A 
HETATM   26  C   UNL     1      43.331  -9.502  13.790  1.00  0.00     0.046 A 
HETATM   27  O   UNL     1      44.326 -10.544  11.797  1.00  0.00    -0.289 OA
HETATM   28  C   UNL     1      42.097  -9.241  14.408  1.00  0.00    -0.059 A 
HETATM   29  C   UNL     1      42.066  -8.461  15.692  1.00  0.00     0.048 C 
HETATM   30  C   UNL     1      40.897  -9.654  13.800  1.00  0.00     0.009 A 
ENDBRANCH   1  21
TORSDOF 5
ENDMDL
MODEL 2
REMARK VINA RESULT:      -9.0      0.248      2.218
REMARK  5 active torsions:
REMARK  status: ('A' for Active; 'I' for Inactive)
REMARK    1  A    between atoms: C_7  and  C_8 
REMARK    2  A    between atoms: C_10  and  N_11 
REMARK       I    between atoms: N_11  and  C_12 
REMARK    3  A    between atoms: C_12  and  C_13 
REMARK    4  A    between atoms: C_15  and  O_16 
REMARK    5  A    between atoms: C_19  and  O_20 
ROOT
HETATM    1  C   UNL     1      44.680 -11.619   9.704  1.00  0.00     0.019 A 
HETATM    2  C   UNL     1      44.350 -12.694   8.862  1.00  0.00     0.045 A 
HETATM    3  C   UNL     1      45.228 -13.148   7.872  1.00  0.00     0.035 A 
HETATM    4  C   UNL     1      46.462 -12.509   7.725  1.00  0.00     0.029 A 
HETATM    5  C   UNL     1      46.802 -11.427   8.544  1.00  0.00     0.003 A 
HETATM    6  C   UNL     1      45.916 -10.987   9.529  1.00  0.00     0.016 A 
ENDROOT
BRANCH   3   7
HETATM    7  N   UNL     1      44.954 -14.265   7.047  1.00  0.00    -0.323 N 
HETATM    8  C   UNL     1      43.867 -14.401   6.196  1.00  0.00     0.256 C 
HETATM    9  O   UNL     1      43.118 -13.484   5.870  1.00  0.00    -0.267 OA
HETATM   10  H   UNL     1      45.637 -15.005   7.086  1.00  0.00     0.169 HD
BRANCH   8  11
HETATM   11  C   UNL     1      43.579 -15.762   5.631  1.00  0.00     0.037 A 
HETATM   12  C   UNL     1      44.251 -16.844   6.232  1.00  0.00     0.054 A 
HETATM   13  C   UNL     1      44.102 -18.140   5.748  1.00  0.00     0.071 A 
HETATM   14  C   UNL     1      43.263 -18.359   4.657  1.00  0.00     0.073 A 
HETATM   15  C   UNL     1      42.578 -17.303   4.050  1.00  0.00     0.071 A 
HETATM   16  C   UNL     1      42.739 -16.002   4.534  1.00  0.00     0.054 A 
BRANCH  13  17
HETATM   17  O   UNL     1      44.719 -19.256   6.240  1.00  0.00    -0.356 OA
HETATM   18  C   UNL     1      44.417 -20.493   5.604  1.00  0.00     0.210 C 
ENDBRANCH  13  17
BRANCH  15  19
HETATM   19  O   UNL     1      41.796 -17.677   2.991  1.00  0.00    -0.356 OA
HETATM   20  C   UNL     1      40.890 -16.714   2.469  1.00  0.00     0.210 C 
ENDBRANCH  15  19
ENDBRANCH   8  11
ENDBRANCH   3   7
BRANCH   1  21
HETATM   21  C   UNL     1      43.772 -11.190  10.767  1.00  0.00     0.181 A 
HETATM   22  N   UNL     1      42.460 -11.329  10.863  1.00  0.00    -0.221 NA
HETATM   23  C   UNL     1      42.151 -10.683  12.036  1.00  0.00     0.093 A 
HETATM   24  C   UNL     1      43.303 -10.184  12.616  1.00  0.00     0.107 A 
HETATM   25  C   UNL     1      40.926 -10.458  12.677  1.00  0.00     0.035 A 
HETATM   26  C   UNL     1      43.355  -9.470  13.807  1.00  0.00     0.046 A 
HETATM   27  O   UNL     1      44.348 -10.509  11.811  1.00  0.00    -0.289 OA
HETATM   28  C   UNL     1      42.127  -9.253  14.451  1.00  0.00    -0.059 A 
HETATM   29  C   UNL     1      42.091  -8.447  15.719  1.00  0.00     0.048 C 
HETATM   30  C   UNL     1      40.932  -9.733  13.883  1.00  0.00     0.009 A 
ENDBRANCH   1  21
TORSDOF 5
ENDMDL
MODEL 3
REMARK VINA RESULT:      -8.5      2.617     10.494
REMARK  5 active torsions:
REMARK  status: ('A' for Active; 'I' for Inactive)
REMARK    1  A    between atoms: C_7  and  C_8 
REMARK    2  A    between atoms: C_10  and  N_11 
REMARK       I    between atoms: N_11  and  C_12 
REMARK    3  A    between atoms: C_12  and  C_13 
REMARK    4  A    between atoms: C_15  and  O_16 
REMARK    5  A    between atoms: C_19  and  O_20 
ROOT
HETATM    1  C   UNL     1      41.465 -15.754   4.183  1.00  0.00     0.019 A 
HETATM    2  C   UNL     1      41.527 -14.900   5.298  1.00  0.00     0.045 A 
HETATM    3  C   UNL     1      40.725 -13.758   5.393  1.00  0.00     0.035 A 
HETATM    4  C   UNL     1      39.844 -13.467   4.348  1.00  0.00     0.029 A 
HETATM    5  C   UNL     1      39.779 -14.297   3.224  1.00  0.00     0.003 A 
HETATM    6  C   UNL     1      40.585 -15.434   3.144  1.00  0.00     0.016 A 
ENDROOT
BRANCH   3   7
HETATM    7  N   UNL     1      40.717 -12.910   6.527  1.00  0.00    -0.323 N 
HETATM    8  C   UNL     1      41.211 -11.614   6.577  1.00  0.00     0.256 C 
HETATM    9  O   UNL     1      41.513 -10.945   5.592  1.00  0.00    -0.267 OA
HETATM   10  H   UNL     1      40.291 -13.301   7.352  1.00  0.00     0.169 HD
BRANCH   8  11
HETATM   11  C   UNL     1      41.392 -10.980   7.925  1.00  0.00     0.037 A 
HETATM   12  C   UNL     1      42.705 -10.955   8.434  1.00  0.00     0.054 A 
HETATM   13  C   UNL     1      42.974 -10.444   9.700  1.00  0.00     0.071 A 
HETATM   14  C   UNL     1      41.921  -9.942  10.462  1.00  0.00     0.073 A 
HETATM   15  C   UNL     1      40.611  -9.947   9.975  1.00  0.00     0.071 A 
HETATM   16  C   UNL     1      40.344 -10.470   8.706  1.00  0.00     0.054 A 
BRANCH  13  17
HETATM   17  O   UNL     1      44.202 -10.389  10.299  1.00  0.00    -0.356 OA
HETATM   18  C   UNL     1      45.245 -11.152   9.701  1.00  0.00     0.210 C 
ENDBRANCH  13  17
BRANCH  15  19
HETATM   19  O   UNL     1      39.689  -9.424  10.840  1.00  0.00    -0.356 OA
HETATM   20  C   UNL     1      39.578 -10.022  12.125  1.00  0.00     0.210 C 
ENDBRANCH  15  19
ENDBRANCH   8  11
ENDBRANCH   3   7
BRANCH   1  21
HETATM   21  C   UNL     1      42.273 -16.971   4.122  1.00  0.00     0.181 A 
HETATM   22  N   UNL     1      43.172 -17.431   4.977  1.00  0.00    -0.221 NA
HETATM   23  C   UNL     1      43.644 -18.570   4.369  1.00  0.00     0.093 A 
HETATM   24  C   UNL     1      42.995 -18.763   3.164  1.00  0.00     0.107 A 
HETATM   25  C   UNL     1      44.626 -19.490   4.756  1.00  0.00     0.035 A 
HETATM   26  C   UNL     1      43.231 -19.815   2.287  1.00  0.00     0.046 A 
HETATM   27  O   UNL     1      42.110 -17.745   2.999  1.00  0.00    -0.289 OA
HETATM   28  C   UNL     1      44.211 -20.739   2.681  1.00  0.00    -0.059 A 
HETATM   29  C   UNL     1      44.561 -21.879   1.766  1.00  0.00     0.048 C 
HETATM   30  C   UNL     1      44.903 -20.567   3.895  1.00  0.00     0.009 A 
ENDBRANCH   1  21
TORSDOF 5
ENDMDL
MODEL 4
REMARK VINA RESULT:      -8.5      8.029     11.750
REMARK  5 active torsions:
REMARK  status: ('A' for Active; 'I' for Inactive)
REMARK    1  A    between atoms: C_7  and  C_8 
REMARK    2  A    between atoms: C_10  and  N_11 
REMARK       I    between atoms: N_11  and  C_12 
REMARK    3  A    between atoms: C_12  and  C_13 
REMARK    4  A    between atoms: C_15  and  O_16 
REMARK    5  A    between atoms: C_19  and  O_20 
ROOT
HETATM    1  C   UNL     1      42.513 -16.580   1.961  1.00  0.00     0.019 A 
HETATM    2  C   UNL     1      41.470 -16.349   1.048  1.00  0.00     0.045 A 
HETATM    3  C   UNL     1      40.992 -15.060   0.790  1.00  0.00     0.035 A 
HETATM    4  C   UNL     1      41.574 -13.982   1.461  1.00  0.00     0.029 A 
HETATM    5  C   UNL     1      42.603 -14.193   2.385  1.00  0.00     0.003 A 
HETATM    6  C   UNL     1      43.070 -15.486   2.631  1.00  0.00     0.016 A 
ENDROOT
BRANCH   3   7
HETATM    7  N   UNL     1      39.985 -14.785  -0.167  1.00  0.00    -0.323 N 
HETATM    8  C   UNL     1      40.184 -14.605  -1.528  1.00  0.00     0.256 C 
HETATM    9  O   UNL     1      41.221 -14.884  -2.124  1.00  0.00    -0.267 OA
HETATM   10  H   UNL     1      39.048 -14.740   0.199  1.00  0.00     0.169 HD
BRANCH   8  11
HETATM   11  C   UNL     1      39.057 -14.029  -2.335  1.00  0.00     0.037 A 
HETATM   12  C   UNL     1      38.762 -12.669  -2.115  1.00  0.00     0.054 A 
HETATM   13  C   UNL     1      37.698 -12.051  -2.767  1.00  0.00     0.071 A 
HETATM   14  C   UNL     1      36.929 -12.798  -3.657  1.00  0.00     0.073 A 
HETATM   15  C   UNL     1      37.208 -14.146  -3.899  1.00  0.00     0.071 A 
HETATM   16  C   UNL     1      38.271 -14.764  -3.234  1.00  0.00     0.054 A 
BRANCH  13  17
HETATM   17  O   UNL     1      37.312 -10.749  -2.614  1.00  0.00    -0.356 OA
HETATM   18  C   UNL     1      37.787 -10.066  -1.459  1.00  0.00     0.210 C 
ENDBRANCH  13  17
BRANCH  15  19
HETATM   19  O   UNL     1      36.363 -14.741  -4.794  1.00  0.00    -0.356 OA
HETATM   20  C   UNL     1      35.108 -14.116  -5.032  1.00  0.00     0.210 C 
ENDBRANCH  15  19
ENDBRANCH   8  11
ENDBRANCH   3   7
BRANCH   1  21
HETATM   21  C   UNL     1      43.035 -17.929   2.182  1.00  0.00     0.181 A 
HETATM   22  N   UNL     1      43.050 -18.971   1.368  1.00  0.00    -0.221 NA
HETATM   23  C   UNL     1      43.602 -19.971   2.133  1.00  0.00     0.093 A 
HETATM   24  C   UNL     1      43.915 -19.484   3.389  1.00  0.00     0.107 A 
HETATM   25  C   UNL     1      43.863 -21.318   1.852  1.00  0.00     0.035 A 
HETATM   26  C   UNL     1      44.482 -20.227   4.417  1.00  0.00     0.046 A 
HETATM   27  O   UNL     1      43.558 -18.173   3.428  1.00  0.00    -0.289 OA
HETATM   28  C   UNL     1      44.749 -21.575   4.130  1.00  0.00    -0.059 A 
HETATM   29  C   UNL     1      45.317 -22.460   5.204  1.00  0.00     0.048 C 
HETATM   30  C   UNL     1      44.431 -22.109   2.866  1.00  0.00     0.009 A 
ENDBRANCH   1  21
TORSDOF 5
ENDMDL
MODEL 5
REMARK VINA RESULT:      -8.5      7.427     11.699
REMARK  5 active torsions:
REMARK  status: ('A' for Active; 'I' for Inactive)
REMARK    1  A    between atoms: C_7  and  C_8 
REMARK    2  A    between atoms: C_10  and  N_11 
REMARK       I    between atoms: N_11  and  C_12 
REMARK    3  A    between atoms: C_12  and  C_13 
REMARK    4  A    between atoms: C_15  and  O_16 
REMARK    5  A    between atoms: C_19  and  O_20 
ROOT
HETATM    1  C   UNL     1      40.975 -15.891   2.948  1.00  0.00     0.019 A 
HETATM    2  C   UNL     1      40.242 -15.765   1.756  1.00  0.00     0.045 A 
HETATM    3  C   UNL     1      39.430 -14.652   1.507  1.00  0.00     0.035 A 
HETATM    4  C   UNL     1      39.354 -13.648   2.475  1.00  0.00     0.029 A 
HETATM    5  C   UNL     1      40.065 -13.763   3.675  1.00  0.00     0.003 A 
HETATM    6  C   UNL     1      40.872 -14.878   3.907  1.00  0.00     0.016 A 
ENDROOT
BRANCH   3   7
HETATM    7  N   UNL     1      38.726 -14.464   0.294  1.00  0.00    -0.323 N 
HETATM    8  C   UNL     1      39.268 -14.011  -0.900  1.00  0.00     0.256 C 
HETATM    9  O   UNL     1      40.471 -13.929  -1.132  1.00  0.00    -0.267 OA
HETATM   10  H   UNL     1      37.748 -14.707   0.324  1.00  0.00     0.169 HD
BRANCH   8  11
HETATM   11  C   UNL     1      38.325 -13.588  -1.988  1.00  0.00     0.037 A 
HETATM   12  C   UNL     1      37.850 -12.264  -1.926  1.00  0.00     0.054 A 
HETATM   13  C   UNL     1      36.925 -11.788  -2.850  1.00  0.00     0.071 A 
HETATM   14  C   UNL     1      36.478 -12.643  -3.856  1.00  0.00     0.073 A 
HETATM   15  C   UNL     1      36.941 -13.959  -3.944  1.00  0.00     0.071 A 
HETATM   16  C   UNL     1      37.863 -14.434  -3.007  1.00  0.00     0.054 A 
BRANCH  13  17
HETATM   17  O   UNL     1      36.385 -10.533  -2.872  1.00  0.00    -0.356 OA
HETATM   18  C   UNL     1      34.985 -10.429  -2.636  1.00  0.00     0.210 C 
ENDBRANCH  13  17
BRANCH  15  19
HETATM   19  O   UNL     1      36.408 -14.672  -4.982  1.00  0.00    -0.356 OA
HETATM   20  C   UNL     1      35.377 -14.057  -5.743  1.00  0.00     0.210 C 
ENDBRANCH  15  19
ENDBRANCH   8  11
ENDBRANCH   3   7
BRANCH   1  21
HETATM   21  C   UNL     1      41.858 -17.035   3.170  1.00  0.00     0.181 A 
HETATM   22  N   UNL     1      42.685 -17.280   4.173  1.00  0.00    -0.221 NA
HETATM   23  C   UNL     1      43.290 -18.461   3.813  1.00  0.00     0.093 A 
HETATM   24  C   UNL     1      42.790 -18.895   2.599  1.00  0.00     0.107 A 
HETATM   25  C   UNL     1      44.278 -19.227   4.443  1.00  0.00     0.035 A 
HETATM   26  C   UNL     1      43.185 -20.051   1.937  1.00  0.00     0.046 A 
HETATM   27  O   UNL     1      41.867 -17.988   2.182  1.00  0.00    -0.289 OA
HETATM   28  C   UNL     1      44.171 -20.820   2.575  1.00  0.00    -0.059 A 
HETATM   29  C   UNL     1      44.689 -22.060   1.901  1.00  0.00     0.048 C 
HETATM   30  C   UNL     1      44.713 -20.403   3.805  1.00  0.00     0.009 A 
ENDBRANCH   1  21
TORSDOF 5
ENDMDL
MODEL 6
REMARK VINA RESULT:      -8.4      2.743     10.483
REMARK  5 active torsions:
REMARK  status: ('A' for Active; 'I' for Inactive)
REMARK    1  A    between atoms: C_7  and  C_8 
REMARK    2  A    between atoms: C_10  and  N_11 
REMARK       I    between atoms: N_11  and  C_12 
REMARK    3  A    between atoms: C_12  and  C_13 
REMARK    4  A    between atoms: C_15  and  O_16 
REMARK    5  A    between atoms: C_19  and  O_20 
ROOT
HETATM    1  C   UNL     1      41.463 -15.709   4.111  1.00  0.00     0.019 A 
HETATM    2  C   UNL     1      41.566 -14.853   5.220  1.00  0.00     0.045 A 
HETATM    3  C   UNL     1      40.776 -13.704   5.337  1.00  0.00     0.035 A 
HETATM    4  C   UNL     1      39.864 -13.411   4.320  1.00  0.00     0.029 A 
HETATM    5  C   UNL     1      39.758 -14.243   3.201  1.00  0.00     0.003 A 
HETATM    6  C   UNL     1      40.552 -15.387   3.099  1.00  0.00     0.016 A 
ENDROOT
BRANCH   3   7
HETATM    7  N   UNL     1      40.810 -12.852   6.468  1.00  0.00    -0.323 N 
HETATM    8  C   UNL     1      41.295 -11.553   6.493  1.00  0.00     0.256 C 
HETATM    9  O   UNL     1      41.550 -10.885   5.494  1.00  0.00    -0.267 OA
HETATM   10  H   UNL     1      40.423 -13.244   7.311  1.00  0.00     0.169 HD
BRANCH   8  11
HETATM   11  C   UNL     1      41.528 -10.913   7.830  1.00  0.00     0.037 A 
HETATM   12  C   UNL     1      40.459 -10.166   8.361  1.00  0.00     0.054 A 
HETATM   13  C   UNL     1      40.589  -9.482   9.566  1.00  0.00     0.071 A 
HETATM   14  C   UNL     1      41.799  -9.555  10.254  1.00  0.00     0.073 A 
HETATM   15  C   UNL     1      42.871 -10.298   9.753  1.00  0.00     0.071 A 
HETATM   16  C   UNL     1      42.738 -10.974   8.537  1.00  0.00     0.054 A 
BRANCH  13  17
HETATM   17  O   UNL     1      39.627  -8.715  10.161  1.00  0.00    -0.356 OA
HETATM   18  C   UNL     1      39.041  -9.226  11.354  1.00  0.00     0.210 C 
ENDBRANCH  13  17
BRANCH  15  19
HETATM   19  O   UNL     1      43.990 -10.269  10.540  1.00  0.00    -0.356 OA
HETATM   20  C   UNL     1      43.802 -10.196  11.948  1.00  0.00     0.210 C 
ENDBRANCH  15  19
ENDBRANCH   8  11
ENDBRANCH   3   7
BRANCH   1  21
HETATM   21  C   UNL     1      42.261 -16.932   4.029  1.00  0.00     0.181 A 
HETATM   22  N   UNL     1      43.186 -17.394   4.854  1.00  0.00    -0.221 NA
HETATM   23  C   UNL     1      43.629 -18.539   4.236  1.00  0.00     0.093 A 
HETATM   24  C   UNL     1      42.937 -18.734   3.055  1.00  0.00     0.107 A 
HETATM   25  C   UNL     1      44.617 -19.464   4.595  1.00  0.00     0.035 A 
HETATM   26  C   UNL     1      43.136 -19.791   2.176  1.00  0.00     0.046 A 
HETATM   27  O   UNL     1      42.054 -17.710   2.916  1.00  0.00    -0.289 OA
HETATM   28  C   UNL     1      44.123 -20.721   2.541  1.00  0.00    -0.059 A 
HETATM   29  C   UNL     1      44.433 -21.867   1.621  1.00  0.00     0.048 C 
HETATM   30  C   UNL     1      44.857 -20.547   3.730  1.00  0.00     0.009 A 
ENDBRANCH   1  21
TORSDOF 5
ENDMDL
MODEL 7
REMARK VINA RESULT:      -8.4      6.025     10.640
REMARK  5 active torsions:
REMARK  status: ('A' for Active; 'I' for Inactive)
REMARK    1  A    between atoms: C_7  and  C_8 
REMARK    2  A    between atoms: C_10  and  N_11 
REMARK       I    between atoms: N_11  and  C_12 
REMARK    3  A    between atoms: C_12  and  C_13 
REMARK    4  A    between atoms: C_15  and  O_16 
REMARK    5  A    between atoms: C_19  and  O_20 
ROOT
HETATM    1  C   UNL     1      42.774 -15.390   4.205  1.00  0.00     0.019 A 
HETATM    2  C   UNL     1      42.798 -14.542   3.085  1.00  0.00     0.045 A 
HETATM    3  C   UNL     1      42.418 -13.198   3.173  1.00  0.00     0.035 A 
HETATM    4  C   UNL     1      42.007 -12.696   4.410  1.00  0.00     0.029 A 
HETATM    5  C   UNL     1      41.964 -13.528   5.534  1.00  0.00     0.003 A 
HETATM    6  C   UNL     1      42.347 -14.867   5.431  1.00  0.00     0.016 A 
ENDROOT
BRANCH   3   7
HETATM    7  N   UNL     1      42.487 -12.301   2.079  1.00  0.00    -0.323 N 
HETATM    8  C   UNL     1      41.777 -12.410   0.892  1.00  0.00     0.256 C 
HETATM    9  O   UNL     1      40.826 -13.167   0.715  1.00  0.00    -0.267 OA
HETATM   10  H   UNL     1      43.099 -11.512   2.210  1.00  0.00     0.169 HD
BRANCH   8  11
HETATM   11  C   UNL     1      42.195 -11.546  -0.262  1.00  0.00     0.037 A 
HETATM   12  C   UNL     1      42.032 -12.097  -1.548  1.00  0.00     0.054 A 
HETATM   13  C   UNL     1      42.443 -11.404  -2.683  1.00  0.00     0.071 A 
HETATM   14  C   UNL     1      43.014 -10.142  -2.531  1.00  0.00     0.073 A 
HETATM   15  C   UNL     1      43.178  -9.570  -1.267  1.00  0.00     0.071 A 
HETATM   16  C   UNL     1      42.772 -10.274  -0.129  1.00  0.00     0.054 A 
BRANCH  13  17
HETATM   17  O   UNL     1      42.351 -11.850  -3.972  1.00  0.00    -0.356 OA
HETATM   18  C   UNL     1      42.315 -10.860  -4.995  1.00  0.00     0.210 C 
ENDBRANCH  13  17
BRANCH  15  19
HETATM   19  O   UNL     1      43.754  -8.330  -1.283  1.00  0.00    -0.356 OA
HETATM   20  C   UNL     1      43.857  -7.635  -0.046  1.00  0.00     0.210 C 
ENDBRANCH  15  19
ENDBRANCH   8  11
ENDBRANCH   3   7
BRANCH   1  21
HETATM   21  C   UNL     1      43.222 -16.778   4.108  1.00  0.00     0.181 A 
HETATM   22  N   UNL     1      43.901 -17.509   4.977  1.00  0.00    -0.221 NA
HETATM   23  C   UNL     1      44.086 -18.703   4.321  1.00  0.00     0.093 A 
HETATM   24  C   UNL     1      43.493 -18.651   3.073  1.00  0.00     0.107 A 
HETATM   25  C   UNL     1      44.751 -19.876   4.699  1.00  0.00     0.035 A 
HETATM   26  C   UNL     1      43.495 -19.683   2.143  1.00  0.00     0.046 A 
HETATM   27  O   UNL     1      42.933 -17.421   2.929  1.00  0.00    -0.289 OA
HETATM   28  C   UNL     1      44.156 -20.860   2.528  1.00  0.00    -0.059 A 
HETATM   29  C   UNL     1      44.245 -22.006   1.560  1.00  0.00     0.048 C 
HETATM   30  C   UNL     1      44.783 -20.944   3.785  1.00  0.00     0.009 A 
ENDBRANCH   1  21
TORSDOF 5
ENDMDL
MODEL 8
REMARK VINA RESULT:      -8.4      6.042      9.782
REMARK  5 active torsions:
REMARK  status: ('A' for Active; 'I' for Inactive)
REMARK    1  A    between atoms: C_7  and  C_8 
REMARK    2  A    between atoms: C_10  and  N_11 
REMARK       I    between atoms: N_11  and  C_12 
REMARK    3  A    between atoms: C_12  and  C_13 
REMARK    4  A    between atoms: C_15  and  O_16 
REMARK    5  A    between atoms: C_19  and  O_20 
ROOT
HETATM    1  C   UNL     1      43.075 -15.808   4.578  1.00  0.00     0.019 A 
HETATM    2  C   UNL     1      42.770 -15.550   3.230  1.00  0.00     0.045 A 
HETATM    3  C   UNL     1      42.608 -14.246   2.751  1.00  0.00     0.035 A 
HETATM    4  C   UNL     1      42.755 -13.180   3.642  1.00  0.00     0.029 A 
HETATM    5  C   UNL     1      43.044 -13.418   4.990  1.00  0.00     0.003 A 
HETATM    6  C   UNL     1      43.205 -14.725   5.454  1.00  0.00     0.016 A 
ENDROOT
BRANCH   3   7
HETATM    7  N   UNL     1      42.360 -13.947   1.389  1.00  0.00    -0.323 N 
HETATM    8  C   UNL     1      41.254 -14.351   0.656  1.00  0.00     0.256 C 
HETATM    9  O   UNL     1      40.232 -14.827   1.142  1.00  0.00    -0.267 OA
HETATM   10  H   UNL     1      43.056 -13.371   0.944  1.00  0.00     0.169 HD
BRANCH   8  11
HETATM   11  C   UNL     1      41.303 -14.199  -0.836  1.00  0.00     0.037 A 
HETATM   12  C   UNL     1      41.984 -13.068  -1.328  1.00  0.00     0.054 A 
HETATM   13  C   UNL     1      42.038 -12.799  -2.692  1.00  0.00     0.071 A 
HETATM   14  C   UNL     1      41.415 -13.677  -3.576  1.00  0.00     0.073 A 
HETATM   15  C   UNL     1      40.742 -14.812  -3.114  1.00  0.00     0.071 A 
HETATM   16  C   UNL     1      40.682 -15.071  -1.742  1.00  0.00     0.054 A 
BRANCH  13  17
HETATM   17  O   UNL     1      42.651 -11.725  -3.274  1.00  0.00    -0.356 OA
HETATM   18  C   UNL     1      41.891 -10.525  -3.375  1.00  0.00     0.210 C 
ENDBRANCH  13  17
BRANCH  15  19
HETATM   19  O   UNL     1      40.181 -15.573  -4.103  1.00  0.00    -0.356 OA
HETATM   20  C   UNL     1      38.806 -15.908  -3.975  1.00  0.00     0.210 C 
ENDBRANCH  15  19
ENDBRANCH   8  11
ENDBRANCH   3   7
BRANCH   1  21
HETATM   21  C   UNL     1      43.292 -17.175   5.052  1.00  0.00     0.181 A 
HETATM   22  N   UNL     1      42.995 -17.720   6.220  1.00  0.00    -0.221 NA
HETATM   23  C   UNL     1      43.484 -19.000   6.114  1.00  0.00     0.093 A 
HETATM   24  C   UNL     1      44.053 -19.184   4.867  1.00  0.00     0.107 A 
HETATM   25  C   UNL     1      43.503 -20.064   7.023  1.00  0.00     0.035 A 
HETATM   26  C   UNL     1      44.650 -20.359   4.425  1.00  0.00     0.046 A 
HETATM   27  O   UNL     1      43.930 -18.019   4.177  1.00  0.00    -0.289 OA
HETATM   28  C   UNL     1      44.661 -21.426   5.337  1.00  0.00    -0.059 A 
HETATM   29  C   UNL     1      45.331 -22.716   4.954  1.00  0.00     0.048 C 
HETATM   30  C   UNL     1      44.104 -21.271   6.620  1.00  0.00     0.009 A 
ENDBRANCH   1  21
TORSDOF 5
ENDMDL
MODEL 9
REMARK VINA RESULT:      -8.3      6.122     10.755
REMARK  5 active torsions:
REMARK  status: ('A' for Active; 'I' for Inactive)
REMARK    1  A    between atoms: C_7  and  C_8 
REMARK    2  A    between atoms: C_10  and  N_11 
REMARK       I    between atoms: N_11  and  C_12 
REMARK    3  A    between atoms: C_12  and  C_13 
REMARK    4  A    between atoms: C_15  and  O_16 
REMARK    5  A    between atoms: C_19  and  O_20 
ROOT
HETATM    1  C   UNL     1      42.802 -15.372   4.057  1.00  0.00     0.019 A 
HETATM    2  C   UNL     1      42.815 -14.587   2.892  1.00  0.00     0.045 A 
HETATM    3  C   UNL     1      42.436 -13.241   2.909  1.00  0.00     0.035 A 
HETATM    4  C   UNL     1      42.035 -12.672   4.120  1.00  0.00     0.029 A 
HETATM    5  C   UNL     1      42.000 -13.441   5.288  1.00  0.00     0.003 A 
HETATM    6  C   UNL     1      42.384 -14.783   5.256  1.00  0.00     0.016 A 
ENDROOT
BRANCH   3   7
HETATM    7  N   UNL     1      42.494 -12.405   1.767  1.00  0.00    -0.323 N 
HETATM    8  C   UNL     1      41.811 -12.606   0.576  1.00  0.00     0.256 C 
HETATM    9  O   UNL     1      40.889 -13.403   0.427  1.00  0.00    -0.267 OA
HETATM   10  H   UNL     1      43.077 -11.589   1.863  1.00  0.00     0.169 HD
BRANCH   8  11
HETATM   11  C   UNL     1      42.222 -11.794  -0.617  1.00  0.00     0.037 A 
HETATM   12  C   UNL     1      42.733 -10.508  -0.354  1.00  0.00     0.054 A 
HETATM   13  C   UNL     1      43.088  -9.650  -1.391  1.00  0.00     0.071 A 
HETATM   14  C   UNL     1      42.940 -10.087  -2.706  1.00  0.00     0.073 A 
HETATM   15  C   UNL     1      42.444 -11.361  -2.993  1.00  0.00     0.071 A 
HETATM   16  C   UNL     1      42.080 -12.215  -1.948  1.00  0.00     0.054 A 
BRANCH  13  17
HETATM   17  O   UNL     1      43.574  -8.381  -1.251  1.00  0.00    -0.356 OA
HETATM   18  C   UNL     1      42.670  -7.395  -0.761  1.00  0.00     0.210 C 
ENDBRANCH  13  17
BRANCH  15  19
HETATM   19  O   UNL     1      42.356 -11.641  -4.329  1.00  0.00    -0.356 OA
HETATM   20  C   UNL     1      42.244 -10.543  -5.225  1.00  0.00     0.210 C 
ENDBRANCH  15  19
ENDBRANCH   8  11
ENDBRANCH   3   7
BRANCH   1  21
HETATM   21  C   UNL     1      43.250 -16.764   4.032  1.00  0.00     0.181 A 
HETATM   22  N   UNL     1      43.862 -17.470   4.969  1.00  0.00    -0.221 NA
HETATM   23  C   UNL     1      44.089 -18.683   4.363  1.00  0.00     0.093 A 
HETATM   24  C   UNL     1      43.588 -18.667   3.074  1.00  0.00     0.107 A 
HETATM   25  C   UNL     1      44.720 -19.846   4.822  1.00  0.00     0.035 A 
HETATM   26  C   UNL     1      43.652 -19.725   2.177  1.00  0.00     0.046 A 
HETATM   27  O   UNL     1      43.044 -17.440   2.855  1.00  0.00    -0.289 OA
HETATM   28  C   UNL     1      44.280 -20.892   2.642  1.00  0.00    -0.059 A 
HETATM   29  C   UNL     1      44.434 -22.066   1.717  1.00  0.00     0.048 C 
HETATM   30  C   UNL     1      44.814 -20.941   3.944  1.00  0.00     0.009 A 
ENDBRANCH   1  21
TORSDOF 5
ENDMDL
MODEL 10
REMARK VINA RESULT:      -8.3      7.427     11.734
REMARK  5 active torsions:
REMARK  status: ('A' for Active; 'I' for Inactive)
REMARK    1  A    between atoms: C_7  and  C_8 
REMARK    2  A    between atoms: C_10  and  N_11 
REMARK       I    between atoms: N_11  and  C_12 
REMARK    3  A    between atoms: C_12  and  C_13 
REMARK    4  A    between atoms: C_15  and  O_16 
REMARK    5  A    between atoms: C_19  and  O_20 
ROOT
HETATM    1  C   UNL     1      41.051 -16.081   3.020  1.00  0.00     0.019 A 
HETATM    2  C   UNL     1      40.404 -15.845   1.795  1.00  0.00     0.045 A 
HETATM    3  C   UNL     1      39.601 -14.718   1.593  1.00  0.00     0.035 A 
HETATM    4  C   UNL     1      39.443 -13.810   2.644  1.00  0.00     0.029 A 
HETATM    5  C   UNL     1      40.066 -14.035   3.875  1.00  0.00     0.003 A 
HETATM    6  C   UNL     1      40.867 -15.164   4.061  1.00  0.00     0.016 A 
ENDROOT
BRANCH   3   7
HETATM    7  N   UNL     1      38.984 -14.418   0.355  1.00  0.00    -0.323 N 
HETATM    8  C   UNL     1      39.583 -13.770  -0.716  1.00  0.00     0.256 C 
HETATM    9  O   UNL     1      40.790 -13.572  -0.825  1.00  0.00    -0.267 OA
HETATM   10  H   UNL     1      38.031 -14.732   0.263  1.00  0.00     0.169 HD
BRANCH   8  11
HETATM   11  C   UNL     1      38.699 -13.273  -1.823  1.00  0.00     0.037 A 
HETATM   12  C   UNL     1      38.020 -14.256  -2.571  1.00  0.00     0.054 A 
HETATM   13  C   UNL     1      37.223 -13.907  -3.656  1.00  0.00     0.071 A 
HETATM   14  C   UNL     1      37.093 -12.561  -3.992  1.00  0.00     0.073 A 
HETATM   15  C   UNL     1      37.749 -11.568  -3.261  1.00  0.00     0.071 A 
HETATM   16  C   UNL     1      38.557 -11.924  -2.177  1.00  0.00     0.054 A 
BRANCH  13  17
HETATM   17  O   UNL     1      36.538 -14.776  -4.460  1.00  0.00    -0.356 OA
HETATM   18  C   UNL     1      35.310 -14.311  -5.012  1.00  0.00     0.210 C 
ENDBRANCH  13  17
BRANCH  15  19
HETATM   19  O   UNL     1      37.525 -10.297  -3.715  1.00  0.00    -0.356 OA
HETATM   20  C   UNL     1      37.285 -10.127  -5.106  1.00  0.00     0.210 C 
ENDBRANCH  15  19
ENDBRANCH   8  11
ENDBRANCH   3   7
BRANCH   1  21
HETATM   21  C   UNL     1      41.928 -17.238   3.197  1.00  0.00     0.181 A 
HETATM   22  N   UNL     1      42.759 -17.522   4.187  1.00  0.00    -0.221 NA
HETATM   23  C   UNL     1      43.355 -18.693   3.782  1.00  0.00     0.093 A 
HETATM   24  C   UNL     1      42.845 -19.081   2.557  1.00  0.00     0.107 A 
HETATM   25  C   UNL     1      44.342 -19.486   4.379  1.00  0.00     0.035 A 
HETATM   26  C   UNL     1      43.230 -20.216   1.853  1.00  0.00     0.046 A 
HETATM   27  O   UNL     1      41.926 -18.156   2.177  1.00  0.00    -0.289 OA
HETATM   28  C   UNL     1      44.215 -21.013   2.458  1.00  0.00    -0.059 A 
HETATM   29  C   UNL     1      44.721 -22.232   1.739  1.00  0.00     0.048 C 
HETATM   30  C   UNL     1      44.767 -20.642   3.698  1.00  0.00     0.009 A 
ENDBRANCH   1  21
TORSDOF 5
ENDMDL
