MODEL 1
REMARK VINA RESULT:      -7.4      0.000      0.000
REMARK  11 active torsions:
REMARK  status: ('A' for Active; 'I' for Inactive)
REMARK    1  A    between atoms: C_2  and  N_3 
REMARK    2  A    between atoms: N_3  and  C_5 
REMARK    3  A    between atoms: N_3  and  C_34 
REMARK    4  A    between atoms: C_5  and  C_6 
REMARK    5  A    between atoms: C_6  and  C_7 
REMARK    6  A    between atoms: C_7  and  N_8 
REMARK       I    between atoms: N_8  and  C_9 
REMARK    7  A    between atoms: C_9  and  C_10 
REMARK    8  A    between atoms: C_10  and  O_11 
REMARK    9  A    between atoms: N_12  and  C_13 
REMARK   10  A    between atoms: C_14  and  O_15 
REMARK   11  A    between atoms: C_18  and  O_19 
ROOT
HETATM    1  C   UNL     1      41.752 -15.033   4.056  1.00  0.00     0.256 C 
HETATM    2  N   UNL     1      41.688 -16.100   5.061  1.00  0.00    -0.251 N 
HETATM    3  C   UNL     1      40.574 -16.245   5.870  1.00  0.00     0.330 C 
HETATM    4  O   UNL     1      40.280 -17.254   6.509  1.00  0.00    -0.246 OA
HETATM    5  N   UNL     1      39.758 -15.154   5.995  1.00  0.00    -0.308 N 
HETATM    6  C   UNL     1      40.013 -13.903   5.443  1.00  0.00     0.048 A 
HETATM    7  C   UNL     1      41.031 -13.778   4.505  1.00  0.00     0.035 A 
HETATM    8  C   UNL     1      39.257 -12.799   5.839  1.00  0.00     0.031 A 
HETATM    9  C   UNL     1      39.528 -11.544   5.292  1.00  0.00     0.021 A 
HETATM   10  C   UNL     1      40.544 -11.406   4.348  1.00  0.00     0.011 A 
HETATM   11 BR   UNL     1      40.901  -9.712   3.593  1.00  0.00    -0.051 Br
HETATM   12  C   UNL     1      41.290 -12.513   3.948  1.00  0.00     0.034 A 
HETATM   13  H   UNL     1      39.033 -15.257   6.694  1.00  0.00     0.170 HD
ENDROOT
BRANCH   1  14
HETATM   14  C   UNL     1      41.100 -15.499   2.677  1.00  0.00     0.279 C 
HETATM   15  N   UNL     1      41.863 -15.335   1.527  1.00  0.00    -0.356 N 
HETATM   16  H   UNL     1      42.459 -14.509   1.541  1.00  0.00     0.162 HD
HETATM   17  O   UNL     1      40.011 -16.081   2.642  1.00  0.00    -0.268 OA
BRANCH  15  18
HETATM   18  C   UNL     1      41.347 -15.764   0.245  1.00  0.00     0.124 C 
BRANCH  18  19
HETATM   19  C   UNL     1      41.306 -14.609  -0.755  1.00  0.00     0.047 C 
BRANCH  19  20
HETATM   20  C   UNL     1      40.169 -13.655  -0.401  1.00  0.00     0.236 C 
BRANCH  20  21
HETATM   21  N   UNL     1      38.787 -14.276  -0.546  1.00  0.00    -0.072 N 
HETATM   22  H   UNL     1      38.948 -15.293  -0.540  1.00  0.00     0.279 HD
BRANCH  21  23
HETATM   23  C   UNL     1      38.091 -13.996  -1.871  1.00  0.00     0.230 C 
HETATM   24  C   UNL     1      38.615 -12.728  -2.519  1.00  0.00     0.034 C 
ENDBRANCH  21  23
BRANCH  21  25
HETATM   25  C   UNL     1      37.837 -14.021   0.613  1.00  0.00     0.230 C 
HETATM   26  C   UNL     1      38.431 -13.052   1.619  1.00  0.00     0.034 C 
ENDBRANCH  21  25
ENDBRANCH  20  21
ENDBRANCH  19  20
ENDBRANCH  18  19
ENDBRANCH  15  18
ENDBRANCH   1  14
BRANCH   1  27
HETATM   27  O   UNL     1      43.111 -14.649   3.840  1.00  0.00    -0.359 OA
HETATM   28  H   UNL     1      43.337 -14.043   4.567  1.00  0.00     0.213 HD
ENDBRANCH   1  27
BRANCH   2  29
HETATM   29  C   UNL     1      42.653 -17.148   5.002  1.00  0.00     0.076 A 
HETATM   30  C   UNL     1      43.728 -17.244   5.902  1.00  0.00     0.098 A 
HETATM   31  C   UNL     1      44.662 -18.285   5.771  1.00  0.00     0.075 A 
HETATM   32  C   UNL     1      44.556 -19.200   4.721  1.00  0.00     0.070 A 
HETATM   33  C   UNL     1      43.495 -19.094   3.822  1.00  0.00     0.039 A 
HETATM   34  C   UNL     1      42.551 -18.077   3.960  1.00  0.00     0.035 A 
BRANCH  30  35
HETATM   35  O   UNL     1      43.766 -16.362   6.959  1.00  0.00    -0.354 OA
HETATM   36  C   UNL     1      43.415 -16.974   8.202  1.00  0.00     0.210 C 
ENDBRANCH  30  35
BRANCH  32  37
HETATM   37  O   UNL     1      45.401 -20.246   4.473  1.00  0.00    -0.356 OA
HETATM   38  C   UNL     1      44.987 -21.535   4.906  1.00  0.00     0.210 C 
ENDBRANCH  32  37
ENDBRANCH   2  29
TORSDOF 11
ENDMDL
MODEL 2
REMARK VINA RESULT:      -7.3      1.190      1.913
REMARK  11 active torsions:
REMARK  status: ('A' for Active; 'I' for Inactive)
REMARK    1  A    between atoms: C_2  and  N_3 
REMARK    2  A    between atoms: N_3  and  C_5 
REMARK    3  A    between atoms: N_3  and  C_34 
REMARK    4  A    between atoms: C_5  and  C_6 
REMARK    5  A    between atoms: C_6  and  C_7 
REMARK    6  A    between atoms: C_7  and  N_8 
REMARK       I    between atoms: N_8  and  C_9 
REMARK    7  A    between atoms: C_9  and  C_10 
REMARK    8  A    between atoms: C_10  and  O_11 
REMARK    9  A    between atoms: N_12  and  C_13 
REMARK   10  A    between atoms: C_14  and  O_15 
REMARK   11  A    between atoms: C_18  and  O_19 
ROOT
HETATM    1  C   UNL     1      41.842 -14.660   4.363  1.00  0.00     0.256 C 
HETATM    2  N   UNL     1      41.731 -15.821   5.253  1.00  0.00    -0.251 N 
HETATM    3  C   UNL     1      40.641 -15.966   6.095  1.00  0.00     0.330 C 
HETATM    4  O   UNL     1      40.292 -17.013   6.638  1.00  0.00    -0.246 OA
HETATM    5  N   UNL     1      39.923 -14.835   6.374  1.00  0.00    -0.308 N 
HETATM    6  C   UNL     1      40.259 -13.555   5.945  1.00  0.00     0.048 A 
HETATM    7  C   UNL     1      41.245 -13.409   4.976  1.00  0.00     0.035 A 
HETATM    8  C   UNL     1      39.612 -12.446   6.491  1.00  0.00     0.031 A 
HETATM    9  C   UNL     1      39.963 -11.164   6.066  1.00  0.00     0.021 A 
HETATM   10  C   UNL     1      40.949 -11.003   5.093  1.00  0.00     0.011 A 
HETATM   11 BR   UNL     1      41.414  -9.269   4.505  1.00  0.00    -0.051 Br
HETATM   12  C   UNL     1      41.585 -12.115   4.543  1.00  0.00     0.034 A 
HETATM   13  H   UNL     1      39.221 -14.957   7.092  1.00  0.00     0.170 HD
ENDROOT
BRANCH   1  14
HETATM   14  C   UNL     1      41.099 -14.921   2.976  1.00  0.00     0.279 C 
HETATM   15  N   UNL     1      39.710 -14.976   3.002  1.00  0.00    -0.356 N 
HETATM   16  H   UNL     1      39.329 -15.380   3.855  1.00  0.00     0.162 HD
HETATM   17  O   UNL     1      41.719 -14.964   1.910  1.00  0.00    -0.268 OA
BRANCH  15  18
HETATM   18  C   UNL     1      38.968 -15.179   1.776  1.00  0.00     0.124 C 
BRANCH  18  19
HETATM   19  C   UNL     1      38.373 -13.869   1.260  1.00  0.00     0.047 C 
BRANCH  19  20
HETATM   20  C   UNL     1      38.809 -13.634  -0.183  1.00  0.00     0.236 C 
BRANCH  20  21
HETATM   21  N   UNL     1      40.295 -13.336  -0.329  1.00  0.00    -0.072 N 
HETATM   22  H   UNL     1      40.745 -13.825   0.459  1.00  0.00     0.279 HD
BRANCH  21  23
HETATM   23  C   UNL     1      40.679 -11.873  -0.155  1.00  0.00     0.230 C 
HETATM   24  C   UNL     1      41.809 -11.710   0.846  1.00  0.00     0.034 C 
ENDBRANCH  21  23
BRANCH  21  25
HETATM   25  C   UNL     1      40.953 -13.910  -1.573  1.00  0.00     0.230 C 
HETATM   26  C   UNL     1      41.024 -15.425  -1.519  1.00  0.00     0.034 C 
ENDBRANCH  21  25
ENDBRANCH  20  21
ENDBRANCH  19  20
ENDBRANCH  18  19
ENDBRANCH  15  18
ENDBRANCH   1  14
BRANCH   1  27
HETATM   27  O   UNL     1      43.219 -14.361   4.123  1.00  0.00    -0.359 OA
HETATM   28  H   UNL     1      43.236 -13.796   3.332  1.00  0.00     0.213 HD
ENDBRANCH   1  27
BRANCH   2  29
HETATM   29  C   UNL     1      42.603 -16.928   5.037  1.00  0.00     0.076 A 
HETATM   30  C   UNL     1      43.720 -17.186   5.850  1.00  0.00     0.098 A 
HETATM   31  C   UNL     1      44.558 -18.277   5.566  1.00  0.00     0.075 A 
HETATM   32  C   UNL     1      44.314 -19.082   4.450  1.00  0.00     0.070 A 
HETATM   33  C   UNL     1      43.213 -18.815   3.638  1.00  0.00     0.039 A 
HETATM   34  C   UNL     1      42.363 -17.747   3.928  1.00  0.00     0.035 A 
BRANCH  30  35
HETATM   35  O   UNL     1      43.894 -16.410   6.975  1.00  0.00    -0.354 OA
HETATM   36  C   UNL     1      43.483 -17.073   8.172  1.00  0.00     0.210 C 
ENDBRANCH  30  35
BRANCH  32  37
HETATM   37  O   UNL     1      45.056 -20.160   4.055  1.00  0.00    -0.356 OA
HETATM   38  C   UNL     1      44.753 -20.729   2.788  1.00  0.00     0.210 C 
ENDBRANCH  32  37
ENDBRANCH   2  29
TORSDOF 11
ENDMDL
MODEL 3
REMARK VINA RESULT:      -7.0      2.927      7.522
REMARK  11 active torsions:
REMARK  status: ('A' for Active; 'I' for Inactive)
REMARK    1  A    between atoms: C_2  and  N_3 
REMARK    2  A    between atoms: N_3  and  C_5 
REMARK    3  A    between atoms: N_3  and  C_34 
REMARK    4  A    between atoms: C_5  and  C_6 
REMARK    5  A    between atoms: C_6  and  C_7 
REMARK    6  A    between atoms: C_7  and  N_8 
REMARK       I    between atoms: N_8  and  C_9 
REMARK    7  A    between atoms: C_9  and  C_10 
REMARK    8  A    between atoms: C_10  and  O_11 
REMARK    9  A    between atoms: N_12  and  C_13 
REMARK   10  A    between atoms: C_14  and  O_15 
REMARK   11  A    between atoms: C_18  and  O_19 
ROOT
HETATM    1  C   UNL     1      40.948 -14.852   3.298  1.00  0.00     0.256 C 
HETATM    2  N   UNL     1      40.939 -13.563   2.598  1.00  0.00    -0.251 N 
HETATM    3  C   UNL     1      42.114 -12.858   2.398  1.00  0.00     0.330 C 
HETATM    4  O   UNL     1      42.275 -11.953   1.580  1.00  0.00    -0.246 OA
HETATM    5  N   UNL     1      43.168 -13.173   3.211  1.00  0.00    -0.308 N 
HETATM    6  C   UNL     1      43.114 -14.079   4.266  1.00  0.00     0.048 A 
HETATM    7  C   UNL     1      42.005 -14.908   4.383  1.00  0.00     0.035 A 
HETATM    8  C   UNL     1      44.161 -14.138   5.187  1.00  0.00     0.031 A 
HETATM    9  C   UNL     1      44.094 -15.040   6.250  1.00  0.00     0.021 A 
HETATM   10  C   UNL     1      42.988 -15.879   6.377  1.00  0.00     0.011 A 
HETATM   11 BR   UNL     1      42.904 -17.111   7.807  1.00  0.00    -0.051 Br
HETATM   12  C   UNL     1      41.950 -15.823   5.449  1.00  0.00     0.034 A 
HETATM   13  H   UNL     1      43.960 -12.549   3.124  1.00  0.00     0.170 HD
ENDROOT
BRANCH   1  14
HETATM   14  C   UNL     1      41.226 -16.056   2.288  1.00  0.00     0.279 C 
HETATM   15  N   UNL     1      42.432 -16.037   1.597  1.00  0.00    -0.356 N 
HETATM   16  H   UNL     1      42.755 -15.101   1.357  1.00  0.00     0.162 HD
HETATM   17  O   UNL     1      40.457 -17.018   2.205  1.00  0.00    -0.268 OA
BRANCH  15  18
HETATM   18  C   UNL     1      42.764 -17.113   0.688  1.00  0.00     0.124 C 
BRANCH  18  19
HETATM   19  C   UNL     1      43.822 -18.040   1.284  1.00  0.00     0.047 C 
BRANCH  19  20
HETATM   20  C   UNL     1      43.164 -19.317   1.799  1.00  0.00     0.236 C 
BRANCH  20  21
HETATM   21  N   UNL     1      43.635 -19.726   3.188  1.00  0.00    -0.072 N 
HETATM   22  H   UNL     1      42.800 -20.111   3.652  1.00  0.00     0.279 HD
BRANCH  21  23
HETATM   23  C   UNL     1      44.086 -18.577   4.079  1.00  0.00     0.230 C 
HETATM   24  C   UNL     1      44.902 -19.075   5.258  1.00  0.00     0.034 C 
ENDBRANCH  21  23
BRANCH  21  25
HETATM   25  C   UNL     1      44.656 -20.852   3.221  1.00  0.00     0.230 C 
HETATM   26  C   UNL     1      44.439 -21.835   2.085  1.00  0.00     0.034 C 
ENDBRANCH  21  25
ENDBRANCH  20  21
ENDBRANCH  19  20
ENDBRANCH  18  19
ENDBRANCH  15  18
ENDBRANCH   1  14
BRANCH   1  27
HETATM   27  O   UNL     1      39.697 -15.055   3.958  1.00  0.00    -0.359 OA
HETATM   28  H   UNL     1      39.182 -14.243   3.812  1.00  0.00     0.213 HD
ENDBRANCH   1  27
BRANCH   2  29
HETATM   29  C   UNL     1      39.765 -13.185   1.883  1.00  0.00     0.076 A 
HETATM   30  C   UNL     1      39.523 -13.576   0.555  1.00  0.00     0.098 A 
HETATM   31  C   UNL     1      38.360 -13.144  -0.103  1.00  0.00     0.075 A 
HETATM   32  C   UNL     1      37.462 -12.289   0.540  1.00  0.00     0.070 A 
HETATM   33  C   UNL     1      37.711 -11.892   1.853  1.00  0.00     0.039 A 
HETATM   34  C   UNL     1      38.853 -12.335   2.521  1.00  0.00     0.035 A 
BRANCH  30  35
HETATM   35  O   UNL     1      40.398 -14.467  -0.025  1.00  0.00    -0.354 OA
HETATM   36  C   UNL     1      40.864 -14.030  -1.304  1.00  0.00     0.210 C 
ENDBRANCH  30  35
BRANCH  32  37
HETATM   37  O   UNL     1      36.305 -11.786   0.011  1.00  0.00    -0.356 OA
HETATM   38  C   UNL     1      36.379 -11.210  -1.286  1.00  0.00     0.210 C 
ENDBRANCH  32  37
ENDBRANCH   2  29
TORSDOF 11
ENDMDL
MODEL 4
REMARK VINA RESULT:      -6.7      3.467      7.925
REMARK  11 active torsions:
REMARK  status: ('A' for Active; 'I' for Inactive)
REMARK    1  A    between atoms: C_2  and  N_3 
REMARK    2  A    between atoms: N_3  and  C_5 
REMARK    3  A    between atoms: N_3  and  C_34 
REMARK    4  A    between atoms: C_5  and  C_6 
REMARK    5  A    between atoms: C_6  and  C_7 
REMARK    6  A    between atoms: C_7  and  N_8 
REMARK       I    between atoms: N_8  and  C_9 
REMARK    7  A    between atoms: C_9  and  C_10 
REMARK    8  A    between atoms: C_10  and  O_11 
REMARK    9  A    between atoms: N_12  and  C_13 
REMARK   10  A    between atoms: C_14  and  O_15 
REMARK   11  A    between atoms: C_18  and  O_19 
ROOT
HETATM    1  C   UNL     1      42.351 -13.773   4.597  1.00  0.00     0.256 C 
HETATM    2  N   UNL     1      41.137 -13.054   5.000  1.00  0.00    -0.251 N 
HETATM    3  C   UNL     1      39.955 -13.736   5.235  1.00  0.00     0.330 C 
HETATM    4  O   UNL     1      38.990 -13.300   5.860  1.00  0.00    -0.246 OA
HETATM    5  N   UNL     1      39.845 -14.985   4.688  1.00  0.00    -0.308 N 
HETATM    6  C   UNL     1      40.790 -15.572   3.852  1.00  0.00     0.048 A 
HETATM    7  C   UNL     1      42.042 -14.980   3.733  1.00  0.00     0.035 A 
HETATM    8  C   UNL     1      40.471 -16.733   3.146  1.00  0.00     0.031 A 
HETATM    9  C   UNL     1      41.419 -17.308   2.299  1.00  0.00     0.021 A 
HETATM   10  C   UNL     1      42.678 -16.726   2.173  1.00  0.00     0.011 A 
HETATM   11 BR   UNL     1      43.968 -17.513   1.040  1.00  0.00    -0.051 Br
HETATM   12  C   UNL     1      42.997 -15.573   2.888  1.00  0.00     0.034 A 
HETATM   13  H   UNL     1      38.923 -15.393   4.769  1.00  0.00     0.170 HD
ENDROOT
BRANCH   1  14
HETATM   14  C   UNL     1      43.169 -14.283   5.868  1.00  0.00     0.279 C 
HETATM   15  N   UNL     1      42.841 -15.537   6.371  1.00  0.00    -0.356 N 
HETATM   16  H   UNL     1      41.853 -15.769   6.289  1.00  0.00     0.162 HD
HETATM   17  O   UNL     1      44.125 -13.645   6.318  1.00  0.00    -0.268 OA
BRANCH  15  18
HETATM   18  C   UNL     1      43.563 -16.077   7.503  1.00  0.00     0.124 C 
BRANCH  18  19
HETATM   19  C   UNL     1      44.582 -17.128   7.065  1.00  0.00     0.047 C 
BRANCH  19  20
HETATM   20  C   UNL     1      44.161 -17.735   5.730  1.00  0.00     0.236 C 
BRANCH  20  21
HETATM   21  N   UNL     1      43.837 -19.221   5.812  1.00  0.00    -0.072 N 
HETATM   22  H   UNL     1      42.913 -19.319   5.366  1.00  0.00     0.279 HD
BRANCH  21  23
HETATM   23  C   UNL     1      43.652 -19.762   7.223  1.00  0.00     0.230 C 
HETATM   24  C   UNL     1      43.648 -21.280   7.241  1.00  0.00     0.034 C 
ENDBRANCH  21  23
BRANCH  21  25
HETATM   25  C   UNL     1      44.757 -20.130   5.014  1.00  0.00     0.230 C 
HETATM   26  C   UNL     1      44.396 -20.135   3.540  1.00  0.00     0.034 C 
ENDBRANCH  21  25
ENDBRANCH  20  21
ENDBRANCH  19  20
ENDBRANCH  18  19
ENDBRANCH  15  18
ENDBRANCH   1  14
BRANCH   1  27
HETATM   27  O   UNL     1      43.178 -12.922   3.801  1.00  0.00    -0.359 OA
HETATM   28  H   UNL     1      43.881 -12.601   4.393  1.00  0.00     0.213 HD
ENDBRANCH   1  27
BRANCH   2  29
HETATM   29  C   UNL     1      41.258 -11.697   5.420  1.00  0.00     0.076 A 
HETATM   30  C   UNL     1      41.215 -10.617   4.522  1.00  0.00     0.098 A 
HETATM   31  C   UNL     1      41.372  -9.303   4.996  1.00  0.00     0.075 A 
HETATM   32  C   UNL     1      41.618  -9.068   6.352  1.00  0.00     0.070 A 
HETATM   33  C   UNL     1      41.674 -10.143   7.237  1.00  0.00     0.039 A 
HETATM   34  C   UNL     1      41.496 -11.448   6.777  1.00  0.00     0.035 A 
BRANCH  30  35
HETATM   35  O   UNL     1      40.910 -10.882   3.206  1.00  0.00    -0.354 OA
HETATM   36  C   UNL     1      40.373  -9.747   2.524  1.00  0.00     0.210 C 
ENDBRANCH  30  35
BRANCH  32  37
HETATM   37  O   UNL     1      41.802  -7.846   6.938  1.00  0.00    -0.356 OA
HETATM   38  C   UNL     1      40.961  -7.517   8.035  1.00  0.00     0.210 C 
ENDBRANCH  32  37
ENDBRANCH   2  29
TORSDOF 11
ENDMDL
MODEL 5
REMARK VINA RESULT:      -6.5      2.913      7.465
REMARK  11 active torsions:
REMARK  status: ('A' for Active; 'I' for Inactive)
REMARK    1  A    between atoms: C_2  and  N_3 
REMARK    2  A    between atoms: N_3  and  C_5 
REMARK    3  A    between atoms: N_3  and  C_34 
REMARK    4  A    between atoms: C_5  and  C_6 
REMARK    5  A    between atoms: C_6  and  C_7 
REMARK    6  A    between atoms: C_7  and  N_8 
REMARK       I    between atoms: N_8  and  C_9 
REMARK    7  A    between atoms: C_9  and  C_10 
REMARK    8  A    between atoms: C_10  and  O_11 
REMARK    9  A    between atoms: N_12  and  C_13 
REMARK   10  A    between atoms: C_14  and  O_15 
REMARK   11  A    between atoms: C_18  and  O_19 
ROOT
HETATM    1  C   UNL     1      41.081 -15.011   3.641  1.00  0.00     0.256 C 
HETATM    2  N   UNL     1      41.104 -13.745   2.900  1.00  0.00    -0.251 N 
HETATM    3  C   UNL     1      42.302 -13.110   2.620  1.00  0.00     0.330 C 
HETATM    4  O   UNL     1      42.468 -12.240   1.766  1.00  0.00    -0.246 OA
HETATM    5  N   UNL     1      43.377 -13.456   3.392  1.00  0.00    -0.308 N 
HETATM    6  C   UNL     1      43.330 -14.324   4.477  1.00  0.00     0.048 A 
HETATM    7  C   UNL     1      42.186 -15.089   4.675  1.00  0.00     0.035 A 
HETATM    8  C   UNL     1      44.417 -14.411   5.348  1.00  0.00     0.031 A 
HETATM    9  C   UNL     1      44.357 -15.275   6.443  1.00  0.00     0.021 A 
HETATM   10  C   UNL     1      43.217 -16.050   6.651  1.00  0.00     0.011 A 
HETATM   11 BR   UNL     1      43.141 -17.231   8.123  1.00  0.00    -0.051 Br
HETATM   12  C   UNL     1      42.138 -15.967   5.773  1.00  0.00     0.034 A 
HETATM   13  H   UNL     1      44.195 -12.878   3.245  1.00  0.00     0.170 HD
ENDROOT
BRANCH   1  14
HETATM   14  C   UNL     1      41.245 -16.258   2.660  1.00  0.00     0.279 C 
HETATM   15  N   UNL     1      42.536 -16.578   2.254  1.00  0.00    -0.356 N 
HETATM   16  H   UNL     1      43.145 -15.770   2.138  1.00  0.00     0.162 HD
HETATM   17  O   UNL     1      40.286 -16.975   2.362  1.00  0.00    -0.268 OA
BRANCH  15  18
HETATM   18  C   UNL     1      42.763 -17.716   1.389  1.00  0.00     0.124 C 
BRANCH  18  19
HETATM   19  C   UNL     1      42.770 -19.024   2.178  1.00  0.00     0.047 C 
BRANCH  19  20
HETATM   20  C   UNL     1      43.724 -18.912   3.364  1.00  0.00     0.236 C 
BRANCH  20  21
HETATM   21  N   UNL     1      44.760 -20.025   3.418  1.00  0.00    -0.072 N 
HETATM   22  H   UNL     1      45.652 -19.574   3.168  1.00  0.00     0.279 HD
BRANCH  21  23
HETATM   23  C   UNL     1      44.575 -21.128   2.385  1.00  0.00     0.230 C 
HETATM   24  C   UNL     1      44.492 -22.496   3.039  1.00  0.00     0.034 C 
ENDBRANCH  21  23
BRANCH  21  25
HETATM   25  C   UNL     1      44.996 -20.626   4.794  1.00  0.00     0.230 C 
HETATM   26  C   UNL     1      44.172 -19.924   5.858  1.00  0.00     0.034 C 
ENDBRANCH  21  25
ENDBRANCH  20  21
ENDBRANCH  19  20
ENDBRANCH  18  19
ENDBRANCH  15  18
ENDBRANCH   1  14
BRANCH   1  27
HETATM   27  O   UNL     1      39.856 -15.127   4.367  1.00  0.00    -0.359 OA
HETATM   28  H   UNL     1      39.841 -16.031   4.725  1.00  0.00     0.213 HD
ENDBRANCH   1  27
BRANCH   2  29
HETATM   29  C   UNL     1      39.916 -13.328   2.231  1.00  0.00     0.076 A 
HETATM   30  C   UNL     1      39.078 -12.315   2.729  1.00  0.00     0.098 A 
HETATM   31  C   UNL     1      37.905 -11.971   2.037  1.00  0.00     0.075 A 
HETATM   32  C   UNL     1      37.541 -12.663   0.879  1.00  0.00     0.070 A 
HETATM   33  C   UNL     1      38.367 -13.676   0.396  1.00  0.00     0.039 A 
HETATM   34  C   UNL     1      39.546 -14.007   1.064  1.00  0.00     0.035 A 
BRANCH  30  35
HETATM   35  O   UNL     1      39.500 -11.614   3.837  1.00  0.00    -0.354 OA
HETATM   36  C   UNL     1      38.573 -10.602   4.236  1.00  0.00     0.210 C 
ENDBRANCH  30  35
BRANCH  32  37
HETATM   37  O   UNL     1      36.424 -12.439   0.123  1.00  0.00    -0.356 OA
HETATM   38  C   UNL     1      35.627 -11.311   0.457  1.00  0.00     0.210 C 
ENDBRANCH  32  37
ENDBRANCH   2  29
TORSDOF 11
ENDMDL
MODEL 6
REMARK VINA RESULT:      -6.5      2.039      3.087
REMARK  11 active torsions:
REMARK  status: ('A' for Active; 'I' for Inactive)
REMARK    1  A    between atoms: C_2  and  N_3 
REMARK    2  A    between atoms: N_3  and  C_5 
REMARK    3  A    between atoms: N_3  and  C_34 
REMARK    4  A    between atoms: C_5  and  C_6 
REMARK    5  A    between atoms: C_6  and  C_7 
REMARK    6  A    between atoms: C_7  and  N_8 
REMARK       I    between atoms: N_8  and  C_9 
REMARK    7  A    between atoms: C_9  and  C_10 
REMARK    8  A    between atoms: C_10  and  O_11 
REMARK    9  A    between atoms: N_12  and  C_13 
REMARK   10  A    between atoms: C_14  and  O_15 
REMARK   11  A    between atoms: C_18  and  O_19 
ROOT
HETATM    1  C   UNL     1      41.704 -14.182   4.244  1.00  0.00     0.256 C 
HETATM    2  N   UNL     1      41.577 -15.445   4.979  1.00  0.00    -0.251 N 
HETATM    3  C   UNL     1      40.532 -15.648   5.864  1.00  0.00     0.330 C 
HETATM    4  O   UNL     1      40.155 -16.740   6.287  1.00  0.00    -0.246 OA
HETATM    5  N   UNL     1      39.898 -14.531   6.335  1.00  0.00    -0.308 N 
HETATM    6  C   UNL     1      40.281 -13.223   6.056  1.00  0.00     0.048 A 
HETATM    7  C   UNL     1      41.217 -12.996   5.053  1.00  0.00     0.035 A 
HETATM    8  C   UNL     1      39.732 -12.166   6.784  1.00  0.00     0.031 A 
HETATM    9  C   UNL     1      40.132 -10.857   6.508  1.00  0.00     0.021 A 
HETATM   10  C   UNL     1      41.067 -10.617   5.503  1.00  0.00     0.011 A 
HETATM   11 BR   UNL     1      41.596  -8.845   5.117  1.00  0.00    -0.051 Br
HETATM   12  C   UNL     1      41.605 -11.674   4.772  1.00  0.00     0.034 A 
HETATM   13  H   UNL     1      39.233 -14.713   7.075  1.00  0.00     0.170 HD
ENDROOT
BRANCH   1  14
HETATM   14  C   UNL     1      40.867 -14.218   2.886  1.00  0.00     0.279 C 
HETATM   15  N   UNL     1      41.586 -14.182   1.697  1.00  0.00    -0.356 N 
HETATM   16  H   UNL     1      42.434 -13.620   1.745  1.00  0.00     0.162 HD
HETATM   17  O   UNL     1      39.643 -14.381   2.887  1.00  0.00    -0.268 OA
BRANCH  15  18
HETATM   18  C   UNL     1      40.895 -14.243   0.427  1.00  0.00     0.124 C 
BRANCH  18  19
HETATM   19  C   UNL     1      40.858 -12.875  -0.254  1.00  0.00     0.047 C 
BRANCH  19  20
HETATM   20  C   UNL     1      42.187 -12.155  -0.047  1.00  0.00     0.236 C 
BRANCH  20  21
HETATM   21  N   UNL     1      42.953 -11.909  -1.340  1.00  0.00    -0.072 N 
HETATM   22  H   UNL     1      43.932 -12.144  -1.121  1.00  0.00     0.279 HD
BRANCH  21  23
HETATM   23  C   UNL     1      42.990 -10.459  -1.800  1.00  0.00     0.230 C 
HETATM   24  C   UNL     1      43.572  -9.550  -0.732  1.00  0.00     0.034 C 
ENDBRANCH  21  23
BRANCH  21  25
HETATM   25  C   UNL     1      42.581 -12.821  -2.498  1.00  0.00     0.230 C 
HETATM   26  C   UNL     1      42.205 -12.026  -3.735  1.00  0.00     0.034 C 
ENDBRANCH  21  25
ENDBRANCH  20  21
ENDBRANCH  19  20
ENDBRANCH  18  19
ENDBRANCH  15  18
ENDBRANCH   1  14
BRANCH   1  27
HETATM   27  O   UNL     1      43.079 -13.922   3.956  1.00  0.00    -0.359 OA
HETATM   28  H   UNL     1      43.453 -13.531   4.764  1.00  0.00     0.213 HD
ENDBRANCH   1  27
BRANCH   2  29
HETATM   29  C   UNL     1      42.370 -16.555   4.564  1.00  0.00     0.076 A 
HETATM   30  C   UNL     1      41.989 -17.414   3.519  1.00  0.00     0.098 A 
HETATM   31  C   UNL     1      42.800 -18.509   3.179  1.00  0.00     0.075 A 
HETATM   32  C   UNL     1      43.964 -18.777   3.905  1.00  0.00     0.070 A 
HETATM   33  C   UNL     1      44.331 -17.931   4.950  1.00  0.00     0.039 A 
HETATM   34  C   UNL     1      43.543 -16.828   5.278  1.00  0.00     0.035 A 
BRANCH  30  35
HETATM   35  O   UNL     1      40.870 -17.084   2.787  1.00  0.00    -0.354 OA
HETATM   36  C   UNL     1      40.859 -17.689   1.492  1.00  0.00     0.210 C 
ENDBRANCH  30  35
BRANCH  32  37
HETATM   37  O   UNL     1      44.830 -19.812   3.688  1.00  0.00    -0.356 OA
HETATM   38  C   UNL     1      44.495 -20.737   2.663  1.00  0.00     0.210 C 
ENDBRANCH  32  37
ENDBRANCH   2  29
TORSDOF 11
ENDMDL
MODEL 7
REMARK VINA RESULT:      -6.4      2.829      6.002
REMARK  11 active torsions:
REMARK  status: ('A' for Active; 'I' for Inactive)
REMARK    1  A    between atoms: C_2  and  N_3 
REMARK    2  A    between atoms: N_3  and  C_5 
REMARK    3  A    between atoms: N_3  and  C_34 
REMARK    4  A    between atoms: C_5  and  C_6 
REMARK    5  A    between atoms: C_6  and  C_7 
REMARK    6  A    between atoms: C_7  and  N_8 
REMARK       I    between atoms: N_8  and  C_9 
REMARK    7  A    between atoms: C_9  and  C_10 
REMARK    8  A    between atoms: C_10  and  O_11 
REMARK    9  A    between atoms: N_12  and  C_13 
REMARK   10  A    between atoms: C_14  and  O_15 
REMARK   11  A    between atoms: C_18  and  O_19 
ROOT
HETATM    1  C   UNL     1      40.912 -14.719   3.547  1.00  0.00     0.256 C 
HETATM    2  N   UNL     1      42.372 -14.862   3.551  1.00  0.00    -0.251 N 
HETATM    3  C   UNL     1      43.191 -13.766   3.341  1.00  0.00     0.330 C 
HETATM    4  O   UNL     1      44.387 -13.702   3.624  1.00  0.00    -0.246 OA
HETATM    5  N   UNL     1      42.624 -12.681   2.731  1.00  0.00    -0.308 N 
HETATM    6  C   UNL     1      41.325 -12.636   2.236  1.00  0.00     0.048 A 
HETATM    7  C   UNL     1      40.442 -13.656   2.574  1.00  0.00     0.035 A 
HETATM    8  C   UNL     1      40.929 -11.583   1.410  1.00  0.00     0.031 A 
HETATM    9  C   UNL     1      39.628 -11.552   0.906  1.00  0.00     0.021 A 
HETATM   10  C   UNL     1      38.733 -12.567   1.240  1.00  0.00     0.011 A 
HETATM   11 BR   UNL     1      36.967 -12.518   0.573  1.00  0.00    -0.051 Br
HETATM   12  C   UNL     1      39.129 -13.611   2.074  1.00  0.00     0.034 A 
HETATM   13  H   UNL     1      43.284 -11.957   2.477  1.00  0.00     0.170 HD
ENDROOT
BRANCH   1  14
HETATM   14  C   UNL     1      40.366 -14.327   4.994  1.00  0.00     0.279 C 
HETATM   15  N   UNL     1      40.136 -12.978   5.240  1.00  0.00    -0.356 N 
HETATM   16  H   UNL     1      40.789 -12.356   4.769  1.00  0.00     0.162 HD
HETATM   17  O   UNL     1      40.057 -15.189   5.822  1.00  0.00    -0.268 OA
BRANCH  15  18
HETATM   18  C   UNL     1      39.612 -12.553   6.520  1.00  0.00     0.124 C 
BRANCH  18  19
HETATM   19  C   UNL     1      39.876 -11.069   6.766  1.00  0.00     0.047 C 
BRANCH  19  20
HETATM   20  C   UNL     1      40.857 -10.900   7.923  1.00  0.00     0.236 C 
BRANCH  20  21
HETATM   21  N   UNL     1      40.205 -11.015   9.294  1.00  0.00    -0.072 N 
HETATM   22  H   UNL     1      39.880 -11.990   9.356  1.00  0.00     0.279 HD
BRANCH  21  23
HETATM   23  C   UNL     1      38.952 -10.171   9.484  1.00  0.00     0.230 C 
HETATM   24  C   UNL     1      38.903  -9.551  10.869  1.00  0.00     0.034 C 
ENDBRANCH  21  23
BRANCH  21  25
HETATM   25  C   UNL     1      41.144 -10.838  10.476  1.00  0.00     0.230 C 
HETATM   26  C   UNL     1      42.520 -10.376  10.032  1.00  0.00     0.034 C 
ENDBRANCH  21  25
ENDBRANCH  20  21
ENDBRANCH  19  20
ENDBRANCH  18  19
ENDBRANCH  15  18
ENDBRANCH   1  14
BRANCH   1  27
HETATM   27  O   UNL     1      40.305 -15.939   3.117  1.00  0.00    -0.359 OA
HETATM   28  H   UNL     1      40.576 -16.062   2.191  1.00  0.00     0.213 HD
ENDBRANCH   1  27
BRANCH   2  29
HETATM   29  C   UNL     1      42.935 -16.073   4.050  1.00  0.00     0.076 A 
HETATM   30  C   UNL     1      43.080 -17.226   3.260  1.00  0.00     0.098 A 
HETATM   31  C   UNL     1      43.614 -18.399   3.821  1.00  0.00     0.075 A 
HETATM   32  C   UNL     1      43.961 -18.438   5.174  1.00  0.00     0.070 A 
HETATM   33  C   UNL     1      43.803 -17.296   5.957  1.00  0.00     0.039 A 
HETATM   34  C   UNL     1      43.294 -16.122   5.402  1.00  0.00     0.035 A 
BRANCH  30  35
HETATM   35  O   UNL     1      42.786 -17.132   1.918  1.00  0.00    -0.354 OA
HETATM   36  C   UNL     1      43.864 -17.563   1.085  1.00  0.00     0.210 C 
ENDBRANCH  30  35
BRANCH  32  37
HETATM   37  O   UNL     1      44.475 -19.513   5.844  1.00  0.00    -0.356 OA
HETATM   38  C   UNL     1      44.713 -20.696   5.093  1.00  0.00     0.210 C 
ENDBRANCH  32  37
ENDBRANCH   2  29
TORSDOF 11
ENDMDL
MODEL 8
REMARK VINA RESULT:      -6.4      3.155      6.108
REMARK  11 active torsions:
REMARK  status: ('A' for Active; 'I' for Inactive)
REMARK    1  A    between atoms: C_2  and  N_3 
REMARK    2  A    between atoms: N_3  and  C_5 
REMARK    3  A    between atoms: N_3  and  C_34 
REMARK    4  A    between atoms: C_5  and  C_6 
REMARK    5  A    between atoms: C_6  and  C_7 
REMARK    6  A    between atoms: C_7  and  N_8 
REMARK       I    between atoms: N_8  and  C_9 
REMARK    7  A    between atoms: C_9  and  C_10 
REMARK    8  A    between atoms: C_10  and  O_11 
REMARK    9  A    between atoms: N_12  and  C_13 
REMARK   10  A    between atoms: C_14  and  O_15 
REMARK   11  A    between atoms: C_18  and  O_19 
ROOT
HETATM    1  C   UNL     1      40.613 -14.217   3.580  1.00  0.00     0.256 C 
HETATM    2  N   UNL     1      42.039 -14.555   3.505  1.00  0.00    -0.251 N 
HETATM    3  C   UNL     1      42.968 -13.615   3.094  1.00  0.00     0.330 C 
HETATM    4  O   UNL     1      44.182 -13.679   3.284  1.00  0.00    -0.246 OA
HETATM    5  N   UNL     1      42.492 -12.549   2.381  1.00  0.00    -0.308 N 
HETATM    6  C   UNL     1      41.172 -12.392   1.973  1.00  0.00     0.048 A 
HETATM    7  C   UNL     1      40.200 -13.231   2.506  1.00  0.00     0.035 A 
HETATM    8  C   UNL     1      40.843 -11.408   1.040  1.00  0.00     0.031 A 
HETATM    9  C   UNL     1      39.518 -11.265   0.625  1.00  0.00     0.021 A 
HETATM   10  C   UNL     1      38.534 -12.098   1.154  1.00  0.00     0.011 A 
HETATM   11 BR   UNL     1      36.737 -11.895   0.607  1.00  0.00    -0.051 Br
HETATM   12  C   UNL     1      38.865 -13.073   2.094  1.00  0.00     0.034 A 
HETATM   13  H   UNL     1      43.214 -11.959   1.987  1.00  0.00     0.170 HD
ENDROOT
BRANCH   1  14
HETATM   14  C   UNL     1      40.245 -13.575   4.994  1.00  0.00     0.279 C 
HETATM   15  N   UNL     1      40.883 -12.388   5.336  1.00  0.00    -0.356 N 
HETATM   16  H   UNL     1      41.838 -12.319   4.991  1.00  0.00     0.162 HD
HETATM   17  O   UNL     1      39.355 -14.050   5.706  1.00  0.00    -0.268 OA
BRANCH  15  18
HETATM   18  C   UNL     1      40.575 -11.733   6.589  1.00  0.00     0.124 C 
BRANCH  18  19
HETATM   19  C   UNL     1      41.837 -11.201   7.265  1.00  0.00     0.047 C 
BRANCH  19  20
HETATM   20  C   UNL     1      41.460 -10.343   8.469  1.00  0.00     0.236 C 
BRANCH  20  21
HETATM   21  N   UNL     1      42.498 -10.368   9.583  1.00  0.00    -0.072 N 
HETATM   22  H   UNL     1      42.846  -9.400   9.646  1.00  0.00     0.279 HD
BRANCH  21  23
HETATM   23  C   UNL     1      43.732 -11.211   9.295  1.00  0.00     0.230 C 
HETATM   24  C   UNL     1      44.844 -10.929  10.289  1.00  0.00     0.034 C 
ENDBRANCH  21  23
BRANCH  21  25
HETATM   25  C   UNL     1      41.956 -10.681  10.968  1.00  0.00     0.230 C 
HETATM   26  C   UNL     1      40.517 -11.161  10.909  1.00  0.00     0.034 C 
ENDBRANCH  21  25
ENDBRANCH  20  21
ENDBRANCH  19  20
ENDBRANCH  18  19
ENDBRANCH  15  18
ENDBRANCH   1  14
BRANCH   1  27
HETATM   27  O   UNL     1      39.824 -15.388   3.363  1.00  0.00    -0.359 OA
HETATM   28  H   UNL     1      40.179 -15.806   2.559  1.00  0.00     0.213 HD
ENDBRANCH   1  27
BRANCH   2  29
HETATM   29  C   UNL     1      42.486 -15.758   4.125  1.00  0.00     0.076 A 
HETATM   30  C   UNL     1      43.000 -15.795   5.433  1.00  0.00     0.098 A 
HETATM   31  C   UNL     1      43.453 -17.009   5.976  1.00  0.00     0.075 A 
HETATM   32  C   UNL     1      43.438 -18.175   5.205  1.00  0.00     0.070 A 
HETATM   33  C   UNL     1      42.939 -18.132   3.904  1.00  0.00     0.039 A 
HETATM   34  C   UNL     1      42.467 -16.935   3.367  1.00  0.00     0.035 A 
BRANCH  30  35
HETATM   35  O   UNL     1      42.943 -14.641   6.182  1.00  0.00    -0.354 OA
HETATM   36  C   UNL     1      44.189 -14.327   6.808  1.00  0.00     0.210 C 
ENDBRANCH  30  35
BRANCH  32  37
HETATM   37  O   UNL     1      43.860 -19.412   5.605  1.00  0.00    -0.356 OA
HETATM   38  C   UNL     1      44.750 -20.107   4.742  1.00  0.00     0.210 C 
ENDBRANCH  32  37
ENDBRANCH   2  29
TORSDOF 11
ENDMDL
MODEL 9
REMARK VINA RESULT:      -6.4      1.457      2.257
REMARK  11 active torsions:
REMARK  status: ('A' for Active; 'I' for Inactive)
REMARK    1  A    between atoms: C_2  and  N_3 
REMARK    2  A    between atoms: N_3  and  C_5 
REMARK    3  A    between atoms: N_3  and  C_34 
REMARK    4  A    between atoms: C_5  and  C_6 
REMARK    5  A    between atoms: C_6  and  C_7 
REMARK    6  A    between atoms: C_7  and  N_8 
REMARK       I    between atoms: N_8  and  C_9 
REMARK    7  A    between atoms: C_9  and  C_10 
REMARK    8  A    between atoms: C_10  and  O_11 
REMARK    9  A    between atoms: N_12  and  C_13 
REMARK   10  A    between atoms: C_14  and  O_15 
REMARK   11  A    between atoms: C_18  and  O_19 
ROOT
HETATM    1  C   UNL     1      41.726 -14.222   4.262  1.00  0.00     0.256 C 
HETATM    2  N   UNL     1      41.583 -15.490   4.985  1.00  0.00    -0.251 N 
HETATM    3  C   UNL     1      40.515 -15.700   5.841  1.00  0.00     0.330 C 
HETATM    4  O   UNL     1      40.128 -16.796   6.246  1.00  0.00    -0.246 OA
HETATM    5  N   UNL     1      39.867 -14.587   6.303  1.00  0.00    -0.308 N 
HETATM    6  C   UNL     1      40.256 -13.277   6.044  1.00  0.00     0.048 A 
HETATM    7  C   UNL     1      41.217 -13.043   5.067  1.00  0.00     0.035 A 
HETATM    8  C   UNL     1      39.687 -12.226   6.764  1.00  0.00     0.031 A 
HETATM    9  C   UNL     1      40.092 -10.915   6.508  1.00  0.00     0.021 A 
HETATM   10  C   UNL     1      41.052 -10.666   5.529  1.00  0.00     0.011 A 
HETATM   11 BR   UNL     1      41.589  -8.891   5.169  1.00  0.00    -0.051 Br
HETATM   12  C   UNL     1      41.610 -11.718   4.805  1.00  0.00     0.034 A 
HETATM   13  H   UNL     1      39.184 -14.775   7.025  1.00  0.00     0.170 HD
ENDROOT
BRANCH   1  14
HETATM   14  C   UNL     1      40.925 -14.249   2.882  1.00  0.00     0.279 C 
HETATM   15  N   UNL     1      41.675 -14.191   1.713  1.00  0.00    -0.356 N 
HETATM   16  H   UNL     1      42.515 -13.620   1.790  1.00  0.00     0.162 HD
HETATM   17  O   UNL     1      39.704 -14.426   2.850  1.00  0.00    -0.268 OA
BRANCH  15  18
HETATM   18  C   UNL     1      41.016 -14.242   0.426  1.00  0.00     0.124 C 
BRANCH  18  19
HETATM   19  C   UNL     1      41.525 -13.142  -0.505  1.00  0.00     0.047 C 
BRANCH  19  20
HETATM   20  C   UNL     1      40.454 -12.800  -1.538  1.00  0.00     0.236 C 
BRANCH  20  21
HETATM   21  N   UNL     1      39.522 -13.961  -1.855  1.00  0.00    -0.072 N 
HETATM   22  H   UNL     1      39.742 -14.681  -1.152  1.00  0.00     0.279 HD
BRANCH  21  23
HETATM   23  C   UNL     1      39.768 -14.635  -3.198  1.00  0.00     0.230 C 
HETATM   24  C   UNL     1      40.597 -15.897  -3.044  1.00  0.00     0.034 C 
ENDBRANCH  21  23
BRANCH  21  25
HETATM   25  C   UNL     1      38.041 -13.672  -1.673  1.00  0.00     0.230 C 
HETATM   26  C   UNL     1      37.813 -12.485  -0.754  1.00  0.00     0.034 C 
ENDBRANCH  21  25
ENDBRANCH  20  21
ENDBRANCH  19  20
ENDBRANCH  18  19
ENDBRANCH  15  18
ENDBRANCH   1  14
BRANCH   1  27
HETATM   27  O   UNL     1      43.108 -13.959   4.012  1.00  0.00    -0.359 OA
HETATM   28  H   UNL     1      43.588 -14.758   4.289  1.00  0.00     0.213 HD
ENDBRANCH   1  27
BRANCH   2  29
HETATM   29  C   UNL     1      42.387 -16.596   4.583  1.00  0.00     0.076 A 
HETATM   30  C   UNL     1      42.040 -17.442   3.516  1.00  0.00     0.098 A 
HETATM   31  C   UNL     1      42.861 -18.535   3.190  1.00  0.00     0.075 A 
HETATM   32  C   UNL     1      43.999 -18.813   3.951  1.00  0.00     0.070 A 
HETATM   33  C   UNL     1      44.333 -17.979   5.017  1.00  0.00     0.039 A 
HETATM   34  C   UNL     1      43.535 -16.880   5.332  1.00  0.00     0.035 A 
BRANCH  30  35
HETATM   35  O   UNL     1      40.946 -17.102   2.752  1.00  0.00    -0.354 OA
HETATM   36  C   UNL     1      40.961 -17.718   1.462  1.00  0.00     0.210 C 
ENDBRANCH  30  35
BRANCH  32  37
HETATM   37  O   UNL     1      44.871 -19.846   3.750  1.00  0.00    -0.356 OA
HETATM   38  C   UNL     1      44.475 -20.865   2.841  1.00  0.00     0.210 C 
ENDBRANCH  32  37
ENDBRANCH   2  29
TORSDOF 11
ENDMDL
MODEL 10
REMARK VINA RESULT:      -6.3      2.757      7.048
REMARK  11 active torsions:
REMARK  status: ('A' for Active; 'I' for Inactive)
REMARK    1  A    between atoms: C_2  and  N_3 
REMARK    2  A    between atoms: N_3  and  C_5 
REMARK    3  A    between atoms: N_3  and  C_34 
REMARK    4  A    between atoms: C_5  and  C_6 
REMARK    5  A    between atoms: C_6  and  C_7 
REMARK    6  A    between atoms: C_7  and  N_8 
REMARK       I    between atoms: N_8  and  C_9 
REMARK    7  A    between atoms: C_9  and  C_10 
REMARK    8  A    between atoms: C_10  and  O_11 
REMARK    9  A    between atoms: N_12  and  C_13 
REMARK   10  A    between atoms: C_14  and  O_15 
REMARK   11  A    between atoms: C_18  and  O_19 
ROOT
HETATM    1  C   UNL     1      40.825 -13.161   0.915  1.00  0.00     0.256 C 
HETATM    2  N   UNL     1      39.590 -13.501   1.631  1.00  0.00    -0.251 N 
HETATM    3  C   UNL     1      38.658 -14.356   1.069  1.00  0.00     0.330 C 
HETATM    4  O   UNL     1      37.767 -14.944   1.680  1.00  0.00    -0.246 OA
HETATM    5  N   UNL     1      38.715 -14.524  -0.288  1.00  0.00    -0.308 N 
HETATM    6  C   UNL     1      39.577 -13.838  -1.137  1.00  0.00     0.048 A 
HETATM    7  C   UNL     1      40.619 -13.103  -0.586  1.00  0.00     0.035 A 
HETATM    8  C   UNL     1      39.383 -13.892  -2.518  1.00  0.00     0.031 A 
HETATM    9  C   UNL     1      40.243 -13.190  -3.364  1.00  0.00     0.021 A 
HETATM   10  C   UNL     1      41.294 -12.451  -2.824  1.00  0.00     0.011 A 
HETATM   11 BR   UNL     1      42.469 -11.514  -3.968  1.00  0.00    -0.051 Br
HETATM   12  C   UNL     1      41.490 -12.409  -1.444  1.00  0.00     0.034 A 
HETATM   13  H   UNL     1      37.940 -15.048  -0.673  1.00  0.00     0.170 HD
ENDROOT
BRANCH   1  14
HETATM   14  C   UNL     1      41.974 -14.230   1.205  1.00  0.00     0.279 C 
HETATM   15  N   UNL     1      41.788 -15.513   0.702  1.00  0.00    -0.356 N 
HETATM   16  H   UNL     1      40.816 -15.816   0.695  1.00  0.00     0.162 HD
HETATM   17  O   UNL     1      43.031 -13.907   1.755  1.00  0.00    -0.268 OA
BRANCH  15  18
HETATM   18  C   UNL     1      42.803 -16.525   0.900  1.00  0.00     0.124 C 
BRANCH  18  19
HETATM   19  C   UNL     1      42.243 -17.739   1.639  1.00  0.00     0.047 C 
BRANCH  19  20
HETATM   20  C   UNL     1      43.225 -18.904   1.544  1.00  0.00     0.236 C 
BRANCH  20  21
HETATM   21  N   UNL     1      43.550 -19.536   2.891  1.00  0.00    -0.072 N 
HETATM   22  H   UNL     1      42.655 -19.919   3.230  1.00  0.00     0.279 HD
BRANCH  21  23
HETATM   23  C   UNL     1      43.993 -18.559   3.971  1.00  0.00     0.230 C 
HETATM   24  C   UNL     1      43.315 -18.850   5.297  1.00  0.00     0.034 C 
ENDBRANCH  21  23
BRANCH  21  25
HETATM   25  C   UNL     1      44.492 -20.727   2.837  1.00  0.00     0.230 C 
HETATM   26  C   UNL     1      44.015 -21.773   1.846  1.00  0.00     0.034 C 
ENDBRANCH  21  25
ENDBRANCH  20  21
ENDBRANCH  19  20
ENDBRANCH  18  19
ENDBRANCH  15  18
ENDBRANCH   1  14
BRANCH   1  27
HETATM   27  O   UNL     1      41.269 -11.860   1.302  1.00  0.00    -0.359 OA
HETATM   28  H   UNL     1      42.008 -12.001   1.919  1.00  0.00     0.213 HD
ENDBRANCH   1  27
BRANCH   2  29
HETATM   29  C   UNL     1      39.495 -13.172   3.015  1.00  0.00     0.076 A 
HETATM   30  C   UNL     1      39.867 -14.063   4.036  1.00  0.00     0.098 A 
HETATM   31  C   UNL     1      39.720 -13.688   5.383  1.00  0.00     0.075 A 
HETATM   32  C   UNL     1      39.161 -12.451   5.713  1.00  0.00     0.070 A 
HETATM   33  C   UNL     1      38.781 -11.576   4.697  1.00  0.00     0.039 A 
HETATM   34  C   UNL     1      38.946 -11.931   3.359  1.00  0.00     0.035 A 
BRANCH  30  35
HETATM   35  O   UNL     1      40.469 -15.247   3.674  1.00  0.00    -0.354 OA
HETATM   36  C   UNL     1      41.459 -15.673   4.613  1.00  0.00     0.210 C 
ENDBRANCH  30  35
BRANCH  32  37
HETATM   37  O   UNL     1      38.950 -11.972   6.976  1.00  0.00    -0.356 OA
HETATM   38  C   UNL     1      39.924 -11.083   7.506  1.00  0.00     0.210 C 
ENDBRANCH  32  37
ENDBRANCH   2  29
TORSDOF 11
ENDMDL
