MODEL 1
REMARK VINA RESULT:      -8.4      0.000      0.000
REMARK  6 active torsions:
REMARK  status: ('A' for Active; 'I' for Inactive)
REMARK    1  A    between atoms: C_4  and  O_5 
REMARK    2  A    between atoms: O_5  and  C_6 
REMARK    3  A    between atoms: C_7  and  N_8 
REMARK       I    between atoms: N_8  and  C_9 
REMARK       I    between atoms: C_9  and  N_10 
REMARK    4  A    between atoms: N_10  and  C_11 
REMARK    5  A    between atoms: C_11  and  C_12 
REMARK    6  A    between atoms: C_12  and  C_13 
ROOT
HETATM    1  C   UNL     1      43.697 -18.058   3.029  1.00  0.00     0.106 C 
HETATM    2  C   UNL     1      42.439 -17.678   3.510  1.00  0.00     0.109 C 
HETATM    3  C   UNL     1      41.508 -17.179   2.593  1.00  0.00     0.145 C 
HETATM    4  F   UNL     1      40.267 -16.872   3.005  1.00  0.00    -0.204 F 
HETATM    5  C   UNL     1      41.848 -16.947   1.262  1.00  0.00     0.045 C 
HETATM    6  C   UNL     1      43.137 -17.234   0.819  1.00  0.00     0.006 C 
HETATM    7  C   UNL     1      44.062 -17.792   1.702  1.00  0.00     0.040 C 
ENDROOT
BRANCH   2   8
HETATM    8  N   UNL     1      42.028 -17.814   4.853  1.00  0.00    -0.304 N 
HETATM    9  C   UNL     1      42.540 -17.199   5.962  1.00  0.00     0.320 C 
HETATM   10  N   UNL     1      43.583 -16.342   5.782  1.00  0.00    -0.342 N 
HETATM   11  O   UNL     1      41.949 -17.312   7.035  1.00  0.00    -0.247 OA
HETATM   12  H   UNL     1      44.273 -16.594   5.085  1.00  0.00     0.164 HD
HETATM   13  H   UNL     1      41.045 -18.014   5.001  1.00  0.00     0.171 HD
BRANCH  10  14
HETATM   14  C   UNL     1      44.051 -15.465   6.842  1.00  0.00     0.132 C 
BRANCH  14  15
HETATM   15  C   UNL     1      43.998 -13.985   6.471  1.00  0.00     0.102 C 
BRANCH  15  16
HETATM   16  C   UNL     1      43.320 -13.754   5.166  1.00  0.00     0.148 A 
HETATM   17  N   UNL     1      43.987 -13.681   4.006  1.00  0.00    -0.158 NA
HETATM   18  N   UNL     1      42.993 -13.457   3.133  1.00  0.00    -0.270 N 
HETATM   19  H   UNL     1      43.209 -13.358   2.148  1.00  0.00     0.190 HD
HETATM   20  C   UNL     1      41.791 -13.396   3.763  1.00  0.00     0.227 A 
HETATM   21  N   UNL     1      41.962 -13.581   5.050  1.00  0.00    -0.226 NA
ENDBRANCH  15  16
ENDBRANCH  14  15
ENDBRANCH  10  14
ENDBRANCH   2   8
BRANCH   1  22
HETATM   22  O   UNL     1      44.575 -18.707   3.869  1.00  0.00    -0.309 OA
BRANCH  22  23
HETATM   23  C   UNL     1      44.587 -20.089   3.851  1.00  0.00     0.076 A 
HETATM   24  C   UNL     1      44.750 -20.709   5.092  1.00  0.00     0.037 A 
HETATM   25  C   UNL     1      44.786 -22.101   5.188  1.00  0.00     0.003 A 
HETATM   26  C   UNL     1      44.648 -22.882   4.041  1.00  0.00     0.000 A 
HETATM   27  C   UNL     1      44.454 -22.271   2.804  1.00  0.00     0.003 A 
HETATM   28  C   UNL     1      44.412 -20.877   2.709  1.00  0.00     0.037 A 
ENDBRANCH  22  23
ENDBRANCH   1  22
TORSDOF 6
ENDMDL
MODEL 2
REMARK VINA RESULT:      -8.4      1.562      2.886
REMARK  6 active torsions:
REMARK  status: ('A' for Active; 'I' for Inactive)
REMARK    1  A    between atoms: C_4  and  O_5 
REMARK    2  A    between atoms: O_5  and  C_6 
REMARK    3  A    between atoms: C_7  and  N_8 
REMARK       I    between atoms: N_8  and  C_9 
REMARK       I    between atoms: C_9  and  N_10 
REMARK    4  A    between atoms: N_10  and  C_11 
REMARK    5  A    between atoms: C_11  and  C_12 
REMARK    6  A    between atoms: C_12  and  C_13 
ROOT
HETATM    1  C   UNL     1      42.758 -17.511   2.405  1.00  0.00     0.106 C 
HETATM    2  C   UNL     1      41.469 -17.117   2.780  1.00  0.00     0.109 C 
HETATM    3  C   UNL     1      40.625 -16.600   1.792  1.00  0.00     0.145 C 
HETATM    4  F   UNL     1      39.358 -16.279   2.100  1.00  0.00    -0.204 F 
HETATM    5  C   UNL     1      41.079 -16.364   0.496  1.00  0.00     0.045 C 
HETATM    6  C   UNL     1      42.397 -16.666   0.161  1.00  0.00     0.006 C 
HETATM    7  C   UNL     1      43.237 -17.242   1.114  1.00  0.00     0.040 C 
ENDROOT
BRANCH   2   8
HETATM    8  N   UNL     1      40.944 -17.255   4.083  1.00  0.00    -0.304 N 
HETATM    9  C   UNL     1      41.325 -16.603   5.223  1.00  0.00     0.320 C 
HETATM   10  N   UNL     1      42.340 -15.700   5.124  1.00  0.00    -0.342 N 
HETATM   11  O   UNL     1      40.645 -16.730   6.241  1.00  0.00    -0.247 OA
HETATM   12  H   UNL     1      43.101 -15.928   4.496  1.00  0.00     0.164 HD
HETATM   13  H   UNL     1      39.962 -17.499   4.145  1.00  0.00     0.171 HD
BRANCH  10  14
HETATM   14  C   UNL     1      42.669 -14.789   6.207  1.00  0.00     0.132 C 
BRANCH  14  15
HETATM   15  C   UNL     1      43.972 -15.143   6.920  1.00  0.00     0.102 C 
BRANCH  15  16
HETATM   16  C   UNL     1      43.987 -16.551   7.403  1.00  0.00     0.148 A 
HETATM   17  N   UNL     1      43.516 -16.908   8.606  1.00  0.00    -0.158 NA
HETATM   18  N   UNL     1      43.745 -18.230   8.606  1.00  0.00    -0.270 N 
HETATM   19  H   UNL     1      43.480 -18.781   9.414  1.00  0.00     0.190 HD
HETATM   20  C   UNL     1      44.332 -18.627   7.448  1.00  0.00     0.227 A 
HETATM   21  N   UNL     1      44.499 -17.589   6.663  1.00  0.00    -0.226 NA
ENDBRANCH  15  16
ENDBRANCH  14  15
ENDBRANCH  10  14
ENDBRANCH   2   8
BRANCH   1  22
HETATM   22  O   UNL     1      43.554 -18.176   3.311  1.00  0.00    -0.309 OA
BRANCH  22  23
HETATM   23  C   UNL     1      43.813 -19.515   3.085  1.00  0.00     0.076 A 
HETATM   24  C   UNL     1      44.521 -20.173   4.093  1.00  0.00     0.037 A 
HETATM   25  C   UNL     1      44.844 -21.525   3.964  1.00  0.00     0.003 A 
HETATM   26  C   UNL     1      44.450 -22.229   2.827  1.00  0.00     0.000 A 
HETATM   27  C   UNL     1      43.715 -21.588   1.832  1.00  0.00     0.003 A 
HETATM   28  C   UNL     1      43.386 -20.236   1.965  1.00  0.00     0.037 A 
ENDBRANCH  22  23
ENDBRANCH   1  22
TORSDOF 6
ENDMDL
MODEL 3
REMARK VINA RESULT:      -8.1      1.821      3.454
REMARK  6 active torsions:
REMARK  status: ('A' for Active; 'I' for Inactive)
REMARK    1  A    between atoms: C_4  and  O_5 
REMARK    2  A    between atoms: O_5  and  C_6 
REMARK    3  A    between atoms: C_7  and  N_8 
REMARK       I    between atoms: N_8  and  C_9 
REMARK       I    between atoms: C_9  and  N_10 
REMARK    4  A    between atoms: N_10  and  C_11 
REMARK    5  A    between atoms: C_11  and  C_12 
REMARK    6  A    between atoms: C_12  and  C_13 
ROOT
HETATM    1  C   UNL     1      43.821 -18.126   5.260  1.00  0.00     0.106 C 
HETATM    2  C   UNL     1      42.470 -17.784   5.388  1.00  0.00     0.109 C 
HETATM    3  C   UNL     1      42.011 -17.374   6.644  1.00  0.00     0.145 C 
HETATM    4  F   UNL     1      40.739 -16.970   6.789  1.00  0.00    -0.204 F 
HETATM    5  C   UNL     1      42.831 -17.417   7.769  1.00  0.00     0.045 C 
HETATM    6  C   UNL     1      44.148 -17.857   7.648  1.00  0.00     0.006 C 
HETATM    7  C   UNL     1      44.644 -18.210   6.392  1.00  0.00     0.040 C 
ENDROOT
BRANCH   2   8
HETATM    8  N   UNL     1      41.548 -17.775   4.319  1.00  0.00    -0.304 N 
HETATM    9  C   UNL     1      41.247 -16.747   3.470  1.00  0.00     0.320 C 
HETATM   10  N   UNL     1      41.900 -15.565   3.653  1.00  0.00    -0.342 N 
HETATM   11  O   UNL     1      40.537 -16.969   2.490  1.00  0.00    -0.247 OA
HETATM   12  H   UNL     1      42.081 -15.282   4.608  1.00  0.00     0.164 HD
HETATM   13  H   UNL     1      41.409 -18.659   3.843  1.00  0.00     0.171 HD
BRANCH  10  14
HETATM   14  C   UNL     1      41.833 -14.489   2.679  1.00  0.00     0.132 C 
BRANCH  14  15
HETATM   15  C   UNL     1      42.367 -13.160   3.208  1.00  0.00     0.102 C 
BRANCH  15  16
HETATM   16  C   UNL     1      42.813 -13.255   4.625  1.00  0.00     0.148 A 
HETATM   17  N   UNL     1      42.069 -12.814   5.649  1.00  0.00    -0.158 NA
HETATM   18  N   UNL     1      42.860 -13.088   6.698  1.00  0.00    -0.270 N 
HETATM   19  H   UNL     1      42.544 -12.858   7.633  1.00  0.00     0.190 HD
HETATM   20  C   UNL     1      44.023 -13.664   6.299  1.00  0.00     0.227 A 
HETATM   21  N   UNL     1      44.026 -13.786   4.993  1.00  0.00    -0.226 NA
ENDBRANCH  15  16
ENDBRANCH  14  15
ENDBRANCH  10  14
ENDBRANCH   2   8
BRANCH   1  22
HETATM   22  O   UNL     1      44.342 -18.370   4.009  1.00  0.00    -0.309 OA
BRANCH  22  23
HETATM   23  C   UNL     1      44.320 -19.670   3.540  1.00  0.00     0.076 A 
HETATM   24  C   UNL     1      43.771 -19.847   2.269  1.00  0.00     0.037 A 
HETATM   25  C   UNL     1      43.691 -21.120   1.703  1.00  0.00     0.003 A 
HETATM   26  C   UNL     1      44.172 -22.225   2.404  1.00  0.00     0.000 A 
HETATM   27  C   UNL     1      44.751 -22.053   3.660  1.00  0.00     0.003 A 
HETATM   28  C   UNL     1      44.836 -20.776   4.224  1.00  0.00     0.037 A 
ENDBRANCH  22  23
ENDBRANCH   1  22
TORSDOF 6
ENDMDL
MODEL 4
REMARK VINA RESULT:      -8.0      2.170      4.450
REMARK  6 active torsions:
REMARK  status: ('A' for Active; 'I' for Inactive)
REMARK    1  A    between atoms: C_4  and  O_5 
REMARK    2  A    between atoms: O_5  and  C_6 
REMARK    3  A    between atoms: C_7  and  N_8 
REMARK       I    between atoms: N_8  and  C_9 
REMARK       I    between atoms: C_9  and  N_10 
REMARK    4  A    between atoms: N_10  and  C_11 
REMARK    5  A    between atoms: C_11  and  C_12 
REMARK    6  A    between atoms: C_12  and  C_13 
ROOT
HETATM    1  C   UNL     1      44.121 -19.478   2.956  1.00  0.00     0.106 C 
HETATM    2  C   UNL     1      44.749 -20.075   4.055  1.00  0.00     0.109 C 
HETATM    3  C   UNL     1      44.889 -21.466   4.057  1.00  0.00     0.145 C 
HETATM    4  F   UNL     1      45.549 -22.067   5.059  1.00  0.00    -0.204 F 
HETATM    5  C   UNL     1      44.317 -22.257   3.064  1.00  0.00     0.045 C 
HETATM    6  C   UNL     1      43.604 -21.657   2.027  1.00  0.00     0.006 C 
HETATM    7  C   UNL     1      43.509 -20.266   1.971  1.00  0.00     0.040 C 
ENDROOT
BRANCH   2   8
HETATM    8  N   UNL     1      45.300 -19.359   5.139  1.00  0.00    -0.304 N 
HETATM    9  C   UNL     1      44.654 -18.565   6.046  1.00  0.00     0.320 C 
HETATM   10  N   UNL     1      43.306 -18.424   5.912  1.00  0.00    -0.342 N 
HETATM   11  O   UNL     1      45.272 -18.151   7.026  1.00  0.00    -0.247 OA
HETATM   12  H   UNL     1      42.939 -18.370   4.969  1.00  0.00     0.164 HD
HETATM   13  H   UNL     1      46.122 -19.767   5.572  1.00  0.00     0.171 HD
BRANCH  10  14
HETATM   14  C   UNL     1      42.490 -17.802   6.942  1.00  0.00     0.132 C 
BRANCH  14  15
HETATM   15  C   UNL     1      41.687 -16.606   6.436  1.00  0.00     0.102 C 
BRANCH  15  16
HETATM   16  C   UNL     1      42.559 -15.467   6.038  1.00  0.00     0.148 A 
HETATM   17  N   UNL     1      43.705 -15.179   6.669  1.00  0.00    -0.158 NA
HETATM   18  N   UNL     1      44.124 -14.098   5.992  1.00  0.00    -0.270 N 
HETATM   19  H   UNL     1      44.995 -13.653   6.256  1.00  0.00     0.190 HD
HETATM   20  C   UNL     1      43.251 -13.768   5.006  1.00  0.00     0.227 A 
HETATM   21  N   UNL     1      42.249 -14.615   5.006  1.00  0.00    -0.226 NA
ENDBRANCH  15  16
ENDBRANCH  14  15
ENDBRANCH  10  14
ENDBRANCH   2   8
BRANCH   1  22
HETATM   22  O   UNL     1      44.117 -18.105   2.841  1.00  0.00    -0.309 OA
BRANCH  22  23
HETATM   23  C   UNL     1      42.982 -17.500   2.338  1.00  0.00     0.076 A 
HETATM   24  C   UNL     1      43.127 -16.875   1.098  1.00  0.00     0.037 A 
HETATM   25  C   UNL     1      42.045 -16.225   0.502  1.00  0.00     0.003 A 
HETATM   26  C   UNL     1      40.806 -16.205   1.141  1.00  0.00     0.000 A 
HETATM   27  C   UNL     1      40.645 -16.854   2.363  1.00  0.00     0.003 A 
HETATM   28  C   UNL     1      41.727 -17.510   2.957  1.00  0.00     0.037 A 
ENDBRANCH  22  23
ENDBRANCH   1  22
TORSDOF 6
ENDMDL
MODEL 5
REMARK VINA RESULT:      -8.0      1.845      2.354
REMARK  6 active torsions:
REMARK  status: ('A' for Active; 'I' for Inactive)
REMARK    1  A    between atoms: C_4  and  O_5 
REMARK    2  A    between atoms: O_5  and  C_6 
REMARK    3  A    between atoms: C_7  and  N_8 
REMARK       I    between atoms: N_8  and  C_9 
REMARK       I    between atoms: C_9  and  N_10 
REMARK    4  A    between atoms: N_10  and  C_11 
REMARK    5  A    between atoms: C_11  and  C_12 
REMARK    6  A    between atoms: C_12  and  C_13 
ROOT
HETATM    1  C   UNL     1      43.687 -18.015   3.063  1.00  0.00     0.106 C 
HETATM    2  C   UNL     1      42.437 -17.604   3.540  1.00  0.00     0.109 C 
HETATM    3  C   UNL     1      41.524 -17.075   2.622  1.00  0.00     0.145 C 
HETATM    4  F   UNL     1      40.290 -16.738   3.029  1.00  0.00    -0.204 F 
HETATM    5  C   UNL     1      41.877 -16.844   1.294  1.00  0.00     0.045 C 
HETATM    6  C   UNL     1      43.161 -17.162   0.855  1.00  0.00     0.006 C 
HETATM    7  C   UNL     1      44.066 -17.751   1.739  1.00  0.00     0.040 C 
ENDROOT
BRANCH   2   8
HETATM    8  N   UNL     1      42.016 -17.738   4.880  1.00  0.00    -0.304 N 
HETATM    9  C   UNL     1      42.565 -17.178   6.000  1.00  0.00     0.320 C 
HETATM   10  N   UNL     1      43.662 -16.387   5.837  1.00  0.00    -0.342 N 
HETATM   11  O   UNL     1      41.966 -17.272   7.071  1.00  0.00    -0.247 OA
HETATM   12  H   UNL     1      44.335 -16.671   5.135  1.00  0.00     0.164 HD
HETATM   13  H   UNL     1      41.022 -17.876   5.024  1.00  0.00     0.171 HD
BRANCH  10  14
HETATM   14  C   UNL     1      44.184 -15.562   6.913  1.00  0.00     0.132 C 
BRANCH  14  15
HETATM   15  C   UNL     1      44.670 -14.193   6.444  1.00  0.00     0.102 C 
BRANCH  15  16
HETATM   16  C   UNL     1      45.156 -13.350   7.571  1.00  0.00     0.148 A 
HETATM   17  N   UNL     1      46.314 -12.678   7.525  1.00  0.00    -0.158 NA
HETATM   18  N   UNL     1      46.337 -12.091   8.732  1.00  0.00    -0.270 N 
HETATM   19  H   UNL     1      47.120 -11.500   8.983  1.00  0.00     0.190 HD
HETATM   20  C   UNL     1      45.234 -12.414   9.455  1.00  0.00     0.227 A 
HETATM   21  N   UNL     1      44.465 -13.209   8.750  1.00  0.00    -0.226 NA
ENDBRANCH  15  16
ENDBRANCH  14  15
ENDBRANCH  10  14
ENDBRANCH   2   8
BRANCH   1  22
HETATM   22  O   UNL     1      44.543 -18.692   3.903  1.00  0.00    -0.309 OA
BRANCH  22  23
HETATM   23  C   UNL     1      44.567 -20.072   3.828  1.00  0.00     0.076 A 
HETATM   24  C   UNL     1      44.786 -20.740   5.034  1.00  0.00     0.037 A 
HETATM   25  C   UNL     1      44.839 -22.135   5.072  1.00  0.00     0.003 A 
HETATM   26  C   UNL     1      44.661 -22.869   3.901  1.00  0.00     0.000 A 
HETATM   27  C   UNL     1      44.411 -22.211   2.699  1.00  0.00     0.003 A 
HETATM   28  C   UNL     1      44.352 -20.815   2.662  1.00  0.00     0.037 A 
ENDBRANCH  22  23
ENDBRANCH   1  22
TORSDOF 6
ENDMDL
MODEL 6
REMARK VINA RESULT:      -7.9      2.497      4.459
REMARK  6 active torsions:
REMARK  status: ('A' for Active; 'I' for Inactive)
REMARK    1  A    between atoms: C_4  and  O_5 
REMARK    2  A    between atoms: O_5  and  C_6 
REMARK    3  A    between atoms: C_7  and  N_8 
REMARK       I    between atoms: N_8  and  C_9 
REMARK       I    between atoms: C_9  and  N_10 
REMARK    4  A    between atoms: N_10  and  C_11 
REMARK    5  A    between atoms: C_11  and  C_12 
REMARK    6  A    between atoms: C_12  and  C_13 
ROOT
HETATM    1  C   UNL     1      42.831 -17.197   5.015  1.00  0.00     0.106 C 
HETATM    2  C   UNL     1      43.362 -15.913   5.186  1.00  0.00     0.109 C 
HETATM    3  C   UNL     1      43.685 -15.503   6.483  1.00  0.00     0.145 C 
HETATM    4  F   UNL     1      44.263 -14.307   6.678  1.00  0.00    -0.204 F 
HETATM    5  C   UNL     1      43.381 -16.288   7.593  1.00  0.00     0.045 C 
HETATM    6  C   UNL     1      42.757 -17.522   7.416  1.00  0.00     0.006 C 
HETATM    7  C   UNL     1      42.485 -17.979   6.126  1.00  0.00     0.040 C 
ENDROOT
BRANCH   2   8
HETATM    8  N   UNL     1      43.642 -15.023   4.128  1.00  0.00    -0.304 N 
HETATM    9  C   UNL     1      42.766 -14.254   3.413  1.00  0.00     0.320 C 
HETATM   10  N   UNL     1      41.445 -14.337   3.736  1.00  0.00    -0.342 N 
HETATM   11  O   UNL     1      43.208 -13.411   2.633  1.00  0.00    -0.247 OA
HETATM   12  H   UNL     1      41.090 -15.250   3.995  1.00  0.00     0.164 HD
HETATM   13  H   UNL     1      44.547 -14.566   4.157  1.00  0.00     0.171 HD
BRANCH  10  14
HETATM   14  C   UNL     1      40.463 -13.405   3.209  1.00  0.00     0.132 C 
BRANCH  14  15
HETATM   15  C   UNL     1      39.565 -14.015   2.136  1.00  0.00     0.102 C 
BRANCH  15  16
HETATM   16  C   UNL     1      40.153 -15.246   1.541  1.00  0.00     0.148 A 
HETATM   17  N   UNL     1      39.874 -16.475   1.998  1.00  0.00    -0.158 NA
HETATM   18  N   UNL     1      40.621 -17.242   1.189  1.00  0.00    -0.270 N 
HETATM   19  H   UNL     1      40.606 -18.249   1.304  1.00  0.00     0.190 HD
HETATM   20  C   UNL     1      41.313 -16.488   0.297  1.00  0.00     0.227 A 
HETATM   21  N   UNL     1      41.039 -15.219   0.492  1.00  0.00    -0.226 NA
ENDBRANCH  15  16
ENDBRANCH  14  15
ENDBRANCH  10  14
ENDBRANCH   2   8
BRANCH   1  22
HETATM   22  O   UNL     1      42.659 -17.695   3.742  1.00  0.00    -0.309 OA
BRANCH  22  23
HETATM   23  C   UNL     1      43.335 -18.851   3.401  1.00  0.00     0.076 A 
HETATM   24  C   UNL     1      42.925 -19.466   2.217  1.00  0.00     0.037 A 
HETATM   25  C   UNL     1      43.535 -20.645   1.783  1.00  0.00     0.003 A 
HETATM   26  C   UNL     1      44.568 -21.209   2.530  1.00  0.00     0.000 A 
HETATM   27  C   UNL     1      45.004 -20.585   3.696  1.00  0.00     0.003 A 
HETATM   28  C   UNL     1      44.398 -19.401   4.127  1.00  0.00     0.037 A 
ENDBRANCH  22  23
ENDBRANCH   1  22
TORSDOF 6
ENDMDL
MODEL 7
REMARK VINA RESULT:      -7.8      1.366      1.713
REMARK  6 active torsions:
REMARK  status: ('A' for Active; 'I' for Inactive)
REMARK    1  A    between atoms: C_4  and  O_5 
REMARK    2  A    between atoms: O_5  and  C_6 
REMARK    3  A    between atoms: C_7  and  N_8 
REMARK       I    between atoms: N_8  and  C_9 
REMARK       I    between atoms: C_9  and  N_10 
REMARK    4  A    between atoms: N_10  and  C_11 
REMARK    5  A    between atoms: C_11  and  C_12 
REMARK    6  A    between atoms: C_12  and  C_13 
ROOT
HETATM    1  C   UNL     1      43.503 -17.990   2.964  1.00  0.00     0.106 C 
HETATM    2  C   UNL     1      42.163 -17.673   3.217  1.00  0.00     0.109 C 
HETATM    3  C   UNL     1      41.373 -17.249   2.145  1.00  0.00     0.145 C 
HETATM    4  F   UNL     1      40.066 -17.006   2.335  1.00  0.00    -0.204 F 
HETATM    5  C   UNL     1      41.917 -17.026   0.882  1.00  0.00     0.045 C 
HETATM    6  C   UNL     1      43.276 -17.247   0.667  1.00  0.00     0.006 C 
HETATM    7  C   UNL     1      44.069 -17.732   1.707  1.00  0.00     0.040 C 
ENDROOT
BRANCH   2   8
HETATM    8  N   UNL     1      41.541 -17.804   4.477  1.00  0.00    -0.304 N 
HETATM    9  C   UNL     1      41.218 -16.819   5.369  1.00  0.00     0.320 C 
HETATM   10  N   UNL     1      41.525 -15.536   5.030  1.00  0.00    -0.342 N 
HETATM   11  O   UNL     1      40.529 -17.101   6.349  1.00  0.00    -0.247 OA
HETATM   12  H   UNL     1      42.396 -15.386   4.534  1.00  0.00     0.164 HD
HETATM   13  H   UNL     1      40.890 -18.576   4.576  1.00  0.00     0.171 HD
BRANCH  10  14
HETATM   14  C   UNL     1      41.026 -14.399   5.785  1.00  0.00     0.132 C 
BRANCH  14  15
HETATM   15  C   UNL     1      41.189 -13.069   5.053  1.00  0.00     0.102 C 
BRANCH  15  16
HETATM   16  C   UNL     1      41.300 -13.245   3.579  1.00  0.00     0.148 A 
HETATM   17  N   UNL     1      40.255 -13.579   2.809  1.00  0.00    -0.158 NA
HETATM   18  N   UNL     1      40.820 -13.636   1.593  1.00  0.00    -0.270 N 
HETATM   19  H   UNL     1      40.249 -13.871   0.790  1.00  0.00     0.190 HD
HETATM   20  C   UNL     1      42.146 -13.350   1.654  1.00  0.00     0.227 A 
HETATM   21  N   UNL     1      42.483 -13.097   2.896  1.00  0.00    -0.226 NA
ENDBRANCH  15  16
ENDBRANCH  14  15
ENDBRANCH  10  14
ENDBRANCH   2   8
BRANCH   1  22
HETATM   22  O   UNL     1      44.261 -18.568   3.957  1.00  0.00    -0.309 OA
BRANCH  22  23
HETATM   23  C   UNL     1      44.396 -19.944   3.951  1.00  0.00     0.076 A 
HETATM   24  C   UNL     1      44.603 -20.537   5.198  1.00  0.00     0.037 A 
HETATM   25  C   UNL     1      44.761 -21.920   5.307  1.00  0.00     0.003 A 
HETATM   26  C   UNL     1      44.701 -22.719   4.166  1.00  0.00     0.000 A 
HETATM   27  C   UNL     1      44.464 -22.137   2.922  1.00  0.00     0.003 A 
HETATM   28  C   UNL     1      44.299 -20.754   2.815  1.00  0.00     0.037 A 
ENDBRANCH  22  23
ENDBRANCH   1  22
TORSDOF 6
ENDMDL
MODEL 8
REMARK VINA RESULT:      -7.6      2.655      4.099
REMARK  6 active torsions:
REMARK  status: ('A' for Active; 'I' for Inactive)
REMARK    1  A    between atoms: C_4  and  O_5 
REMARK    2  A    between atoms: O_5  and  C_6 
REMARK    3  A    between atoms: C_7  and  N_8 
REMARK       I    between atoms: N_8  and  C_9 
REMARK       I    between atoms: C_9  and  N_10 
REMARK    4  A    between atoms: N_10  and  C_11 
REMARK    5  A    between atoms: C_11  and  C_12 
REMARK    6  A    between atoms: C_12  and  C_13 
ROOT
HETATM    1  C   UNL     1      43.704 -17.851   5.120  1.00  0.00     0.106 C 
HETATM    2  C   UNL     1      42.329 -17.637   5.278  1.00  0.00     0.109 C 
HETATM    3  C   UNL     1      41.865 -17.244   6.536  1.00  0.00     0.145 C 
HETATM    4  F   UNL     1      40.564 -16.960   6.707  1.00  0.00    -0.204 F 
HETATM    5  C   UNL     1      42.713 -17.184   7.640  1.00  0.00     0.045 C 
HETATM    6  C   UNL     1      44.062 -17.499   7.492  1.00  0.00     0.006 C 
HETATM    7  C   UNL     1      44.559 -17.830   6.231  1.00  0.00     0.040 C 
ENDROOT
BRANCH   2   8
HETATM    8  N   UNL     1      41.386 -17.740   4.234  1.00  0.00    -0.304 N 
HETATM    9  C   UNL     1      40.941 -16.756   3.394  1.00  0.00     0.320 C 
HETATM   10  N   UNL     1      41.452 -15.504   3.562  1.00  0.00    -0.342 N 
HETATM   11  O   UNL     1      40.236 -17.063   2.433  1.00  0.00    -0.247 OA
HETATM   12  H   UNL     1      41.624 -15.200   4.513  1.00  0.00     0.164 HD
HETATM   13  H   UNL     1      41.340 -18.635   3.759  1.00  0.00     0.171 HD
BRANCH  10  14
HETATM   14  C   UNL     1      41.231 -14.445   2.592  1.00  0.00     0.132 C 
BRANCH  14  15
HETATM   15  C   UNL     1      42.109 -14.571   1.349  1.00  0.00     0.102 C 
BRANCH  15  16
HETATM   16  C   UNL     1      41.307 -14.736   0.106  1.00  0.00     0.148 A 
HETATM   17  N   UNL     1      41.330 -15.859  -0.626  1.00  0.00    -0.158 NA
HETATM   18  N   UNL     1      40.490 -15.549  -1.626  1.00  0.00    -0.270 N 
HETATM   19  H   UNL     1      40.307 -16.233  -2.351  1.00  0.00     0.190 HD
HETATM   20  C   UNL     1      40.001 -14.291  -1.484  1.00  0.00     0.227 A 
HETATM   21  N   UNL     1      40.497 -13.748  -0.397  1.00  0.00    -0.226 NA
ENDBRANCH  15  16
ENDBRANCH  14  15
ENDBRANCH  10  14
ENDBRANCH   2   8
BRANCH   1  22
HETATM   22  O   UNL     1      44.215 -18.072   3.861  1.00  0.00    -0.309 OA
BRANCH  22  23
HETATM   23  C   UNL     1      44.189 -19.363   3.368  1.00  0.00     0.076 A 
HETATM   24  C   UNL     1      44.757 -20.337   4.192  1.00  0.00     0.037 A 
HETATM   25  C   UNL     1      44.792 -21.673   3.789  1.00  0.00     0.003 A 
HETATM   26  C   UNL     1      44.248 -22.044   2.560  1.00  0.00     0.000 A 
HETATM   27  C   UNL     1      43.651 -21.083   1.746  1.00  0.00     0.003 A 
HETATM   28  C   UNL     1      43.610 -19.746   2.154  1.00  0.00     0.037 A 
ENDBRANCH  22  23
ENDBRANCH   1  22
TORSDOF 6
ENDMDL
MODEL 9
REMARK VINA RESULT:      -7.4      2.160      4.436
REMARK  6 active torsions:
REMARK  status: ('A' for Active; 'I' for Inactive)
REMARK    1  A    between atoms: C_4  and  O_5 
REMARK    2  A    between atoms: O_5  and  C_6 
REMARK    3  A    between atoms: C_7  and  N_8 
REMARK       I    between atoms: N_8  and  C_9 
REMARK       I    between atoms: C_9  and  N_10 
REMARK    4  A    between atoms: N_10  and  C_11 
REMARK    5  A    between atoms: C_11  and  C_12 
REMARK    6  A    between atoms: C_12  and  C_13 
ROOT
HETATM    1  C   UNL     1      42.664 -18.584   3.487  1.00  0.00     0.106 C 
HETATM    2  C   UNL     1      43.417 -19.171   4.511  1.00  0.00     0.109 C 
HETATM    3  C   UNL     1      44.513 -19.962   4.152  1.00  0.00     0.145 C 
HETATM    4  F   UNL     1      45.300 -20.482   5.106  1.00  0.00    -0.204 F 
HETATM    5  C   UNL     1      44.786 -20.266   2.820  1.00  0.00     0.045 C 
HETATM    6  C   UNL     1      43.967 -19.759   1.813  1.00  0.00     0.006 C 
HETATM    7  C   UNL     1      42.907 -18.915   2.146  1.00  0.00     0.040 C 
ENDROOT
BRANCH   2   8
HETATM    8  N   UNL     1      43.175 -18.974   5.887  1.00  0.00    -0.304 N 
HETATM    9  C   UNL     1      43.343 -17.833   6.622  1.00  0.00     0.320 C 
HETATM   10  N   UNL     1      43.806 -16.728   5.974  1.00  0.00    -0.342 N 
HETATM   11  O   UNL     1      42.924 -17.799   7.779  1.00  0.00    -0.247 OA
HETATM   12  H   UNL     1      44.506 -16.874   5.256  1.00  0.00     0.164 HD
HETATM   13  H   UNL     1      42.431 -19.531   6.294  1.00  0.00     0.171 HD
BRANCH  10  14
HETATM   14  C   UNL     1      43.803 -15.414   6.593  1.00  0.00     0.132 C 
BRANCH  14  15
HETATM   15  C   UNL     1      43.231 -14.322   5.693  1.00  0.00     0.102 C 
BRANCH  15  16
HETATM   16  C   UNL     1      41.748 -14.399   5.584  1.00  0.00     0.148 A 
HETATM   17  N   UNL     1      41.026 -15.346   6.198  1.00  0.00    -0.158 NA
HETATM   18  N   UNL     1      39.780 -15.032   5.811  1.00  0.00    -0.270 N 
HETATM   19  H   UNL     1      39.001 -15.594   6.135  1.00  0.00     0.190 HD
HETATM   20  C   UNL     1      39.777 -13.944   4.998  1.00  0.00     0.227 A 
HETATM   21  N   UNL     1      41.007 -13.517   4.835  1.00  0.00    -0.226 NA
ENDBRANCH  15  16
ENDBRANCH  14  15
ENDBRANCH  10  14
ENDBRANCH   2   8
BRANCH   1  22
HETATM   22  O   UNL     1      41.686 -17.668   3.806  1.00  0.00    -0.309 OA
BRANCH  22  23
HETATM   23  C   UNL     1      41.405 -16.675   2.887  1.00  0.00     0.076 A 
HETATM   24  C   UNL     1      42.478 -15.854   2.535  1.00  0.00     0.037 A 
HETATM   25  C   UNL     1      42.302 -14.813   1.621  1.00  0.00     0.003 A 
HETATM   26  C   UNL     1      41.051 -14.595   1.046  1.00  0.00     0.000 A 
HETATM   27  C   UNL     1      39.984 -15.429   1.369  1.00  0.00     0.003 A 
HETATM   28  C   UNL     1      40.161 -16.476   2.279  1.00  0.00     0.037 A 
ENDBRANCH  22  23
ENDBRANCH   1  22
TORSDOF 6
ENDMDL
MODEL 10
REMARK VINA RESULT:      -7.3      2.196      3.471
REMARK  6 active torsions:
REMARK  status: ('A' for Active; 'I' for Inactive)
REMARK    1  A    between atoms: C_4  and  O_5 
REMARK    2  A    between atoms: O_5  and  C_6 
REMARK    3  A    between atoms: C_7  and  N_8 
REMARK       I    between atoms: N_8  and  C_9 
REMARK       I    between atoms: C_9  and  N_10 
REMARK    4  A    between atoms: N_10  and  C_11 
REMARK    5  A    between atoms: C_11  and  C_12 
REMARK    6  A    between atoms: C_12  and  C_13 
ROOT
HETATM    1  C   UNL     1      43.484 -17.793   4.948  1.00  0.00     0.106 C 
HETATM    2  C   UNL     1      42.130 -17.498   5.142  1.00  0.00     0.109 C 
HETATM    3  C   UNL     1      41.716 -17.117   6.422  1.00  0.00     0.145 C 
HETATM    4  F   UNL     1      40.439 -16.757   6.630  1.00  0.00    -0.204 F 
HETATM    5  C   UNL     1      42.588 -17.145   7.508  1.00  0.00     0.045 C 
HETATM    6  C   UNL     1      43.911 -17.541   7.321  1.00  0.00     0.006 C 
HETATM    7  C   UNL     1      44.361 -17.862   6.040  1.00  0.00     0.040 C 
ENDROOT
BRANCH   2   8
HETATM    8  N   UNL     1      41.161 -17.507   4.116  1.00  0.00    -0.304 N 
HETATM    9  C   UNL     1      40.968 -16.585   3.125  1.00  0.00     0.320 C 
HETATM   10  N   UNL     1      41.798 -15.506   3.097  1.00  0.00    -0.342 N 
HETATM   11  O   UNL     1      40.178 -16.840   2.216  1.00  0.00    -0.247 OA
HETATM   12  H   UNL     1      42.074 -15.113   3.989  1.00  0.00     0.164 HD
HETATM   13  H   UNL     1      40.864 -18.421   3.790  1.00  0.00     0.171 HD
BRANCH  10  14
HETATM   14  C   UNL     1      41.837 -14.592   1.968  1.00  0.00     0.132 C 
BRANCH  14  15
HETATM   15  C   UNL     1      42.185 -13.159   2.361  1.00  0.00     0.102 C 
BRANCH  15  16
HETATM   16  C   UNL     1      41.187 -12.571   3.295  1.00  0.00     0.148 A 
HETATM   17  N   UNL     1      41.444 -11.491   4.044  1.00  0.00    -0.158 NA
HETATM   18  N   UNL     1      40.292 -11.343   4.716  1.00  0.00    -0.270 N 
HETATM   19  H   UNL     1      40.194 -10.580   5.375  1.00  0.00     0.190 HD
HETATM   20  C   UNL     1      39.398 -12.306   4.374  1.00  0.00     0.227 A 
HETATM   21  N   UNL     1      39.931 -13.100   3.476  1.00  0.00    -0.226 NA
ENDBRANCH  15  16
ENDBRANCH  14  15
ENDBRANCH  10  14
ENDBRANCH   2   8
BRANCH   1  22
HETATM   22  O   UNL     1      43.955 -18.006   3.671  1.00  0.00    -0.309 OA
BRANCH  22  23
HETATM   23  C   UNL     1      44.015 -19.308   3.212  1.00  0.00     0.076 A 
HETATM   24  C   UNL     1      44.690 -20.211   4.036  1.00  0.00     0.037 A 
HETATM   25  C   UNL     1      44.818 -21.550   3.663  1.00  0.00     0.003 A 
HETATM   26  C   UNL     1      44.261 -21.995   2.466  1.00  0.00     0.000 A 
HETATM   27  C   UNL     1      43.559 -21.107   1.653  1.00  0.00     0.003 A 
HETATM   28  C   UNL     1      43.425 -19.768   2.030  1.00  0.00     0.037 A 
ENDBRANCH  22  23
ENDBRANCH   1  22
TORSDOF 6
ENDMDL
