MODEL 1
REMARK VINA RESULT:      -7.8      0.000      0.000
REMARK  2 active torsions:
REMARK  status: ('A' for Active; 'I' for Inactive)
REMARK    1  A    between atoms: C_7  and  N_8 
REMARK       I    between atoms: N_8  and  C_9 
REMARK       I    between atoms: C_9  and  N_10 
REMARK    2  A    between atoms: N_10  and  C_11 
ROOT
HETATM    1  C   UNL     1      44.722 -20.670   4.347  1.00  0.00     0.025 A 
HETATM    2  C   UNL     1      44.320 -20.452   3.029  1.00  0.00     0.044 A 
HETATM    3  C   UNL     1      44.294 -21.535   2.089  1.00  0.00     0.099 C 
HETATM    4  N   UNL     1      44.259 -22.407   1.325  1.00  0.00    -0.191 NA
HETATM    5  C   UNL     1      43.916 -19.173   2.638  1.00  0.00     0.025 A 
HETATM    6  C   UNL     1      43.900 -18.121   3.562  1.00  0.00     0.031 A 
HETATM    7  C   UNL     1      44.299 -18.332   4.885  1.00  0.00     0.036 A 
HETATM    8  C   UNL     1      44.710 -19.616   5.267  1.00  0.00     0.031 A 
ENDROOT
BRANCH   7   9
HETATM    9  N   UNL     1      44.215 -17.364   5.907  1.00  0.00    -0.309 N 
HETATM   10  C   UNL     1      43.409 -16.280   6.043  1.00  0.00     0.321 C 
HETATM   11  N   UNL     1      43.053 -15.617   4.914  1.00  0.00    -0.338 N 
HETATM   12  O   UNL     1      43.051 -15.924   7.160  1.00  0.00    -0.247 OA
HETATM   13  H   UNL     1      43.706 -15.737   4.145  1.00  0.00     0.164 HD
HETATM   14  H   UNL     1      44.639 -17.630   6.790  1.00  0.00     0.170 HD
BRANCH  11  15
HETATM   15  C   UNL     1      42.037 -14.577   4.785  1.00  0.00     0.089 C 
HETATM   16  C   UNL     1      40.676 -15.026   4.208  1.00  0.00     0.058 C 
HETATM   17  C   UNL     1      40.570 -14.891   2.697  1.00  0.00     0.190 C 
HETATM   18  N   UNL     1      41.036 -13.524   2.271  1.00  0.00    -0.067 N 
HETATM   19  C   UNL     1      39.177 -14.915   2.091  1.00  0.00     0.035 C 
HETATM   20  H   UNL     1      40.472 -12.815   2.758  1.00  0.00     0.280 HD
HETATM   21  C   UNL     1      42.472 -13.289   2.602  1.00  0.00     0.237 C 
HETATM   22  C   UNL     1      40.662 -13.440   0.814  1.00  0.00     0.235 C 
HETATM   23  C   UNL     1      42.607 -13.312   4.118  1.00  0.00     0.053 C 
HETATM   24  C   UNL     1      39.398 -14.297   0.708  1.00  0.00     0.030 C 
ENDBRANCH  11  15
ENDBRANCH   7   9
TORSDOF 2
ENDMDL
MODEL 2
REMARK VINA RESULT:      -7.8      1.162      1.455
REMARK  2 active torsions:
REMARK  status: ('A' for Active; 'I' for Inactive)
REMARK    1  A    between atoms: C_7  and  N_8 
REMARK       I    between atoms: N_8  and  C_9 
REMARK       I    between atoms: C_9  and  N_10 
REMARK    2  A    between atoms: N_10  and  C_11 
ROOT
HETATM    1  C   UNL     1      44.703 -21.374   4.390  1.00  0.00     0.025 A 
HETATM    2  C   UNL     1      44.274 -20.846   3.172  1.00  0.00     0.044 A 
HETATM    3  C   UNL     1      44.219 -21.671   2.002  1.00  0.00     0.099 C 
HETATM    4  N   UNL     1      44.160 -22.334   1.052  1.00  0.00    -0.191 NA
HETATM    5  C   UNL     1      43.874 -19.509   3.108  1.00  0.00     0.025 A 
HETATM    6  C   UNL     1      43.887 -18.708   4.258  1.00  0.00     0.031 A 
HETATM    7  C   UNL     1      44.313 -19.231   5.482  1.00  0.00     0.036 A 
HETATM    8  C   UNL     1      44.720 -20.571   5.536  1.00  0.00     0.031 A 
ENDROOT
BRANCH   7   9
HETATM    9  N   UNL     1      44.260 -18.536   6.708  1.00  0.00    -0.309 N 
HETATM   10  C   UNL     1      43.747 -17.318   7.019  1.00  0.00     0.321 C 
HETATM   11  N   UNL     1      43.825 -16.345   6.077  1.00  0.00    -0.338 N 
HETATM   12  O   UNL     1      43.259 -17.129   8.128  1.00  0.00    -0.247 OA
HETATM   13  H   UNL     1      44.576 -16.482   5.407  1.00  0.00     0.164 HD
HETATM   14  H   UNL     1      44.400 -19.108   7.535  1.00  0.00     0.170 HD
BRANCH  11  15
HETATM   15  C   UNL     1      43.161 -15.045   6.095  1.00  0.00     0.089 C 
HETATM   16  C   UNL     1      41.654 -15.049   5.752  1.00  0.00     0.058 C 
HETATM   17  C   UNL     1      41.354 -14.842   4.276  1.00  0.00     0.190 C 
HETATM   18  N   UNL     1      42.134 -13.664   3.755  1.00  0.00    -0.067 N 
HETATM   19  C   UNL     1      39.940 -14.429   3.903  1.00  0.00     0.035 C 
HETATM   20  H   UNL     1      41.894 -12.834   4.314  1.00  0.00     0.280 HD
HETATM   21  C   UNL     1      43.608 -13.879   3.847  1.00  0.00     0.237 C 
HETATM   22  C   UNL     1      41.576 -13.426   2.377  1.00  0.00     0.235 C 
HETATM   23  C   UNL     1      43.970 -13.988   5.321  1.00  0.00     0.053 C 
HETATM   24  C   UNL     1      40.113 -13.862   2.491  1.00  0.00     0.030 C 
ENDBRANCH  11  15
ENDBRANCH   7   9
TORSDOF 2
ENDMDL
MODEL 3
REMARK VINA RESULT:      -7.6      2.172      2.984
REMARK  2 active torsions:
REMARK  status: ('A' for Active; 'I' for Inactive)
REMARK    1  A    between atoms: C_7  and  N_8 
REMARK       I    between atoms: N_8  and  C_9 
REMARK       I    between atoms: C_9  and  N_10 
REMARK    2  A    between atoms: N_10  and  C_11 
ROOT
HETATM    1  C   UNL     1      43.878 -19.500   3.949  1.00  0.00     0.025 A 
HETATM    2  C   UNL     1      44.020 -19.804   2.595  1.00  0.00     0.044 A 
HETATM    3  C   UNL     1      44.215 -21.161   2.173  1.00  0.00     0.099 C 
HETATM    4  N   UNL     1      44.362 -22.255   1.821  1.00  0.00    -0.191 NA
HETATM    5  C   UNL     1      43.943 -18.779   1.650  1.00  0.00     0.025 A 
HETATM    6  C   UNL     1      43.711 -17.457   2.054  1.00  0.00     0.031 A 
HETATM    7  C   UNL     1      43.565 -17.145   3.408  1.00  0.00     0.036 A 
HETATM    8  C   UNL     1      43.652 -18.178   4.350  1.00  0.00     0.031 A 
ENDROOT
BRANCH   7   9
HETATM    9  N   UNL     1      43.225 -15.867   3.899  1.00  0.00    -0.309 N 
HETATM   10  C   UNL     1      42.340 -14.944   3.442  1.00  0.00     0.321 C 
HETATM   11  N   UNL     1      42.167 -14.852   2.100  1.00  0.00    -0.338 N 
HETATM   12  O   UNL     1      41.753 -14.219   4.237  1.00  0.00    -0.247 OA
HETATM   13  H   UNL     1      42.962 -15.181   1.560  1.00  0.00     0.164 HD
HETATM   14  H   UNL     1      43.488 -15.692   4.864  1.00  0.00     0.170 HD
BRANCH  11  15
HETATM   15  C   UNL     1      41.131 -14.104   1.394  1.00  0.00     0.089 C 
HETATM   16  C   UNL     1      40.439 -14.843   0.227  1.00  0.00     0.058 C 
HETATM   17  C   UNL     1      41.096 -14.618  -1.126  1.00  0.00     0.190 C 
HETATM   18  N   UNL     1      41.335 -13.147  -1.340  1.00  0.00    -0.067 N 
HETATM   19  C   UNL     1      40.280 -14.954  -2.362  1.00  0.00     0.035 C 
HETATM   20  H   UNL     1      40.437 -12.651  -1.266  1.00  0.00     0.280 HD
HETATM   21  C   UNL     1      42.272 -12.575  -0.330  1.00  0.00     0.237 C 
HETATM   22  C   UNL     1      41.759 -13.045  -2.782  1.00  0.00     0.235 C 
HETATM   23  C   UNL     1      41.606 -12.685   1.035  1.00  0.00     0.053 C 
HETATM   24  C   UNL     1      41.010 -14.189  -3.469  1.00  0.00     0.030 C 
ENDBRANCH  11  15
ENDBRANCH   7   9
TORSDOF 2
ENDMDL
MODEL 4
REMARK VINA RESULT:      -7.5      5.325      8.565
REMARK  2 active torsions:
REMARK  status: ('A' for Active; 'I' for Inactive)
REMARK    1  A    between atoms: C_7  and  N_8 
REMARK       I    between atoms: N_8  and  C_9 
REMARK       I    between atoms: C_9  and  N_10 
REMARK    2  A    between atoms: N_10  and  C_11 
ROOT
HETATM    1  C   UNL     1      42.858 -11.377  12.142  1.00  0.00     0.025 A 
HETATM    2  C   UNL     1      41.928 -10.571  11.485  1.00  0.00     0.044 A 
HETATM    3  C   UNL     1      40.814 -10.018  12.198  1.00  0.00     0.099 C 
HETATM    4  N   UNL     1      39.917  -9.557  12.768  1.00  0.00    -0.191 NA
HETATM    5  C   UNL     1      42.105 -10.286  10.128  1.00  0.00     0.025 A 
HETATM    6  C   UNL     1      43.214 -10.791   9.436  1.00  0.00     0.031 A 
HETATM    7  C   UNL     1      44.152 -11.596  10.089  1.00  0.00     0.036 A 
HETATM    8  C   UNL     1      43.962 -11.884  11.447  1.00  0.00     0.031 A 
ENDROOT
BRANCH   7   9
HETATM    9  N   UNL     1      45.349 -12.059   9.505  1.00  0.00    -0.309 N 
HETATM   10  C   UNL     1      45.570 -12.747   8.355  1.00  0.00     0.321 C 
HETATM   11  N   UNL     1      44.632 -13.649   7.973  1.00  0.00    -0.338 N 
HETATM   12  O   UNL     1      46.602 -12.555   7.721  1.00  0.00    -0.247 OA
HETATM   13  H   UNL     1      44.070 -14.006   8.740  1.00  0.00     0.164 HD
HETATM   14  H   UNL     1      46.196 -11.618   9.849  1.00  0.00     0.170 HD
BRANCH  11  15
HETATM   15  C   UNL     1      44.542 -14.337   6.689  1.00  0.00     0.089 C 
HETATM   16  C   UNL     1      43.649 -13.665   5.621  1.00  0.00     0.058 C 
HETATM   17  C   UNL     1      42.205 -14.141   5.633  1.00  0.00     0.190 C 
HETATM   18  N   UNL     1      42.162 -15.646   5.661  1.00  0.00    -0.067 N 
HETATM   19  C   UNL     1      41.368 -13.858   4.398  1.00  0.00     0.035 C 
HETATM   20  H   UNL     1      42.676 -16.007   4.846  1.00  0.00     0.280 HD
HETATM   21  C   UNL     1      42.787 -16.205   6.895  1.00  0.00     0.237 C 
HETATM   22  C   UNL     1      40.712 -15.982   5.432  1.00  0.00     0.235 C 
HETATM   23  C   UNL     1      44.265 -15.840   6.872  1.00  0.00     0.053 C 
HETATM   24  C   UNL     1      40.205 -14.844   4.543  1.00  0.00     0.030 C 
ENDBRANCH  11  15
ENDBRANCH   7   9
TORSDOF 2
ENDMDL
MODEL 5
REMARK VINA RESULT:      -7.3      4.972      7.056
REMARK  2 active torsions:
REMARK  status: ('A' for Active; 'I' for Inactive)
REMARK    1  A    between atoms: C_7  and  N_8 
REMARK       I    between atoms: N_8  and  C_9 
REMARK       I    between atoms: C_9  and  N_10 
REMARK    2  A    between atoms: N_10  and  C_11 
ROOT
HETATM    1  C   UNL     1      41.502 -16.865   5.921  1.00  0.00     0.025 A 
HETATM    2  C   UNL     1      42.586 -16.585   5.088  1.00  0.00     0.044 A 
HETATM    3  C   UNL     1      43.564 -17.595   4.806  1.00  0.00     0.099 C 
HETATM    4  N   UNL     1      44.353 -18.409   4.563  1.00  0.00    -0.191 NA
HETATM    5  C   UNL     1      42.698 -15.319   4.510  1.00  0.00     0.025 A 
HETATM    6  C   UNL     1      41.723 -14.341   4.750  1.00  0.00     0.031 A 
HETATM    7  C   UNL     1      40.633 -14.614   5.580  1.00  0.00     0.036 A 
HETATM    8  C   UNL     1      40.533 -15.885   6.163  1.00  0.00     0.031 A 
ENDROOT
BRANCH   7   9
HETATM    9  N   UNL     1      39.552 -13.733   5.794  1.00  0.00    -0.309 N 
HETATM   10  C   UNL     1      39.512 -12.490   6.339  1.00  0.00     0.321 C 
HETATM   11  N   UNL     1      40.380 -12.218   7.345  1.00  0.00    -0.338 N 
HETATM   12  O   UNL     1      38.694 -11.674   5.930  1.00  0.00    -0.247 OA
HETATM   13  H   UNL     1      40.693 -13.041   7.851  1.00  0.00     0.164 HD
HETATM   14  H   UNL     1      38.718 -13.934   5.252  1.00  0.00     0.170 HD
BRANCH  11  15
HETATM   15  C   UNL     1      40.671 -10.912   7.929  1.00  0.00     0.089 C 
HETATM   16  C   UNL     1      42.157 -10.626   8.242  1.00  0.00     0.058 C 
HETATM   17  C   UNL     1      42.579 -11.012   9.650  1.00  0.00     0.190 C 
HETATM   18  N   UNL     1      41.591 -10.468  10.648  1.00  0.00    -0.067 N 
HETATM   19  C   UNL     1      43.871 -10.413  10.179  1.00  0.00     0.035 C 
HETATM   20  H   UNL     1      41.532  -9.448  10.533  1.00  0.00     0.280 HD
HETATM   21  C   UNL     1      40.226 -11.041  10.459  1.00  0.00     0.237 C 
HETATM   22  C   UNL     1      42.240 -10.709  11.985  1.00  0.00     0.235 C 
HETATM   23  C   UNL     1      39.719 -10.591   9.095  1.00  0.00     0.053 C 
HETATM   24  C   UNL     1      43.738 -10.603  11.693  1.00  0.00     0.030 C 
ENDBRANCH  11  15
ENDBRANCH   7   9
TORSDOF 2
ENDMDL
MODEL 6
REMARK VINA RESULT:      -7.0      4.594      8.066
REMARK  2 active torsions:
REMARK  status: ('A' for Active; 'I' for Inactive)
REMARK    1  A    between atoms: C_7  and  N_8 
REMARK       I    between atoms: N_8  and  C_9 
REMARK       I    between atoms: C_9  and  N_10 
REMARK    2  A    between atoms: N_10  and  C_11 
ROOT
HETATM    1  C   UNL     1      45.180 -11.776  10.835  1.00  0.00     0.025 A 
HETATM    2  C   UNL     1      44.047 -10.968  10.916  1.00  0.00     0.044 A 
HETATM    3  C   UNL     1      43.809 -10.166  12.080  1.00  0.00     0.099 C 
HETATM    4  N   UNL     1      43.614  -9.506  13.013  1.00  0.00    -0.191 NA
HETATM    5  C   UNL     1      43.157 -10.924   9.840  1.00  0.00     0.025 A 
HETATM    6  C   UNL     1      43.406 -11.674   8.683  1.00  0.00     0.031 A 
HETATM    7  C   UNL     1      44.540 -12.485   8.593  1.00  0.00     0.036 A 
HETATM    8  C   UNL     1      45.424 -12.529   9.680  1.00  0.00     0.031 A 
ENDROOT
BRANCH   7   9
HETATM    9  N   UNL     1      44.927 -13.189   7.434  1.00  0.00    -0.309 N 
HETATM   10  C   UNL     1      44.388 -14.282   6.834  1.00  0.00     0.321 C 
HETATM   11  N   UNL     1      43.825 -15.221   7.633  1.00  0.00    -0.338 N 
HETATM   12  O   UNL     1      44.445 -14.396   5.615  1.00  0.00    -0.247 OA
HETATM   13  H   UNL     1      44.188 -15.225   8.582  1.00  0.00     0.164 HD
HETATM   14  H   UNL     1      45.547 -12.683   6.808  1.00  0.00     0.170 HD
BRANCH  11  15
HETATM   15  C   UNL     1      43.003 -16.354   7.218  1.00  0.00     0.089 C 
HETATM   16  C   UNL     1      43.760 -17.551   6.601  1.00  0.00     0.058 C 
HETATM   17  C   UNL     1      43.896 -17.486   5.089  1.00  0.00     0.190 C 
HETATM   18  N   UNL     1      42.559 -17.175   4.468  1.00  0.00    -0.067 N 
HETATM   19  C   UNL     1      44.249 -18.773   4.364  1.00  0.00     0.035 C 
HETATM   20  H   UNL     1      41.883 -17.894   4.760  1.00  0.00     0.280 HD
HETATM   21  C   UNL     1      42.038 -15.842   4.890  1.00  0.00     0.237 C 
HETATM   22  C   UNL     1      42.779 -17.372   2.991  1.00  0.00     0.235 C 
HETATM   23  C   UNL     1      41.788 -15.896   6.391  1.00  0.00     0.053 C 
HETATM   24  C   UNL     1      43.839 -18.474   2.919  1.00  0.00     0.030 C 
ENDBRANCH  11  15
ENDBRANCH   7   9
TORSDOF 2
ENDMDL
MODEL 7
REMARK VINA RESULT:      -6.8      1.726      3.093
REMARK  2 active torsions:
REMARK  status: ('A' for Active; 'I' for Inactive)
REMARK    1  A    between atoms: C_7  and  N_8 
REMARK       I    between atoms: N_8  and  C_9 
REMARK       I    between atoms: C_9  and  N_10 
REMARK    2  A    between atoms: N_10  and  C_11 
ROOT
HETATM    1  C   UNL     1      43.563 -19.199   2.710  1.00  0.00     0.025 A 
HETATM    2  C   UNL     1      44.224 -20.358   3.116  1.00  0.00     0.044 A 
HETATM    3  C   UNL     1      44.360 -21.468   2.218  1.00  0.00     0.099 C 
HETATM    4  N   UNL     1      44.485 -22.366   1.495  1.00  0.00    -0.191 NA
HETATM    5  C   UNL     1      44.778 -20.421   4.397  1.00  0.00     0.025 A 
HETATM    6  C   UNL     1      44.683 -19.324   5.264  1.00  0.00     0.031 A 
HETATM    7  C   UNL     1      44.025 -18.158   4.865  1.00  0.00     0.036 A 
HETATM    8  C   UNL     1      43.466 -18.107   3.581  1.00  0.00     0.031 A 
ENDROOT
BRANCH   7   9
HETATM    9  N   UNL     1      43.972 -16.971   5.625  1.00  0.00    -0.309 N 
HETATM   10  C   UNL     1      43.250 -15.835   5.453  1.00  0.00     0.321 C 
HETATM   11  N   UNL     1      43.000 -15.437   4.181  1.00  0.00    -0.338 N 
HETATM   12  O   UNL     1      42.871 -15.201   6.432  1.00  0.00    -0.247 OA
HETATM   13  H   UNL     1      43.676 -15.779   3.504  1.00  0.00     0.164 HD
HETATM   14  H   UNL     1      44.333 -17.049   6.571  1.00  0.00     0.170 HD
BRANCH  11  15
HETATM   15  C   UNL     1      42.078 -14.391   3.749  1.00  0.00     0.089 C 
HETATM   16  C   UNL     1      42.326 -12.983   4.336  1.00  0.00     0.058 C 
HETATM   17  C   UNL     1      41.562 -12.704   5.620  1.00  0.00     0.190 C 
HETATM   18  N   UNL     1      40.116 -13.089   5.449  1.00  0.00    -0.067 N 
HETATM   19  C   UNL     1      41.418 -11.252   6.044  1.00  0.00     0.035 C 
HETATM   20  H   UNL     1      39.727 -12.568   4.652  1.00  0.00     0.280 HD
HETATM   21  C   UNL     1      39.949 -14.548   5.182  1.00  0.00     0.237 C 
HETATM   22  C   UNL     1      39.438 -12.551   6.681  1.00  0.00     0.235 C 
HETATM   23  C   UNL     1      40.614 -14.854   3.847  1.00  0.00     0.053 C 
HETATM   24  C   UNL     1      40.250 -11.302   7.033  1.00  0.00     0.030 C 
ENDBRANCH  11  15
ENDBRANCH   7   9
TORSDOF 2
ENDMDL
MODEL 8
REMARK VINA RESULT:      -6.8      3.081      4.639
REMARK  2 active torsions:
REMARK  status: ('A' for Active; 'I' for Inactive)
REMARK    1  A    between atoms: C_7  and  N_8 
REMARK       I    between atoms: N_8  and  C_9 
REMARK       I    between atoms: C_9  and  N_10 
REMARK    2  A    between atoms: N_10  and  C_11 
ROOT
HETATM    1  C   UNL     1      44.112 -18.333   1.938  1.00  0.00     0.025 A 
HETATM    2  C   UNL     1      43.459 -18.448   3.165  1.00  0.00     0.044 A 
HETATM    3  C   UNL     1      44.101 -19.095   4.272  1.00  0.00     0.099 C 
HETATM    4  N   UNL     1      44.617 -19.605   5.175  1.00  0.00    -0.191 NA
HETATM    5  C   UNL     1      42.181 -17.904   3.315  1.00  0.00     0.025 A 
HETATM    6  C   UNL     1      41.565 -17.235   2.248  1.00  0.00     0.031 A 
HETATM    7  C   UNL     1      42.215 -17.114   1.017  1.00  0.00     0.036 A 
HETATM    8  C   UNL     1      43.493 -17.670   0.872  1.00  0.00     0.031 A 
ENDROOT
BRANCH   7   9
HETATM    9  N   UNL     1      41.721 -16.370  -0.075  1.00  0.00    -0.309 N 
HETATM   10  C   UNL     1      41.480 -15.041  -0.211  1.00  0.00     0.321 C 
HETATM   11  N   UNL     1      41.051 -14.366   0.885  1.00  0.00    -0.338 N 
HETATM   12  O   UNL     1      41.632 -14.503  -1.302  1.00  0.00    -0.247 OA
HETATM   13  H   UNL     1      40.586 -14.952   1.571  1.00  0.00     0.164 HD
HETATM   14  H   UNL     1      41.776 -16.836  -0.975  1.00  0.00     0.170 HD
BRANCH  11  15
HETATM   15  C   UNL     1      40.939 -12.919   1.041  1.00  0.00     0.089 C 
HETATM   16  C   UNL     1      41.590 -12.321   2.308  1.00  0.00     0.058 C 
HETATM   17  C   UNL     1      40.650 -12.218   3.499  1.00  0.00     0.190 C 
HETATM   18  N   UNL     1      39.355 -11.578   3.073  1.00  0.00    -0.067 N 
HETATM   19  C   UNL     1      41.060 -11.294   4.633  1.00  0.00     0.035 C 
HETATM   20  H   UNL     1      39.559 -10.656   2.666  1.00  0.00     0.280 HD
HETATM   21  C   UNL     1      38.633 -12.392   2.052  1.00  0.00     0.237 C 
HETATM   22  C   UNL     1      38.624 -11.322   4.365  1.00  0.00     0.235 C 
HETATM   23  C   UNL     1      39.497 -12.436   0.799  1.00  0.00     0.053 C 
HETATM   24  C   UNL     1      39.742 -11.064   5.377  1.00  0.00     0.030 C 
ENDBRANCH  11  15
ENDBRANCH   7   9
TORSDOF 2
ENDMDL
MODEL 9
REMARK VINA RESULT:      -6.7      4.765      8.354
REMARK  2 active torsions:
REMARK  status: ('A' for Active; 'I' for Inactive)
REMARK    1  A    between atoms: C_7  and  N_8 
REMARK       I    between atoms: N_8  and  C_9 
REMARK       I    between atoms: C_9  and  N_10 
REMARK    2  A    between atoms: N_10  and  C_11 
ROOT
HETATM    1  C   UNL     1      40.306 -11.041  10.344  1.00  0.00     0.025 A 
HETATM    2  C   UNL     1      41.685 -10.891  10.488  1.00  0.00     0.044 A 
HETATM    3  C   UNL     1      42.297 -11.007  11.779  1.00  0.00     0.099 C 
HETATM    4  N   UNL     1      42.803 -11.111  12.817  1.00  0.00    -0.191 NA
HETATM    5  C   UNL     1      42.471 -10.653   9.357  1.00  0.00     0.025 A 
HETATM    6  C   UNL     1      41.882 -10.580   8.087  1.00  0.00     0.031 A 
HETATM    7  C   UNL     1      40.502 -10.731   7.935  1.00  0.00     0.036 A 
HETATM    8  C   UNL     1      39.720 -10.961   9.075  1.00  0.00     0.031 A 
ENDROOT
BRANCH   7   9
HETATM    9  N   UNL     1      39.837 -10.778   6.692  1.00  0.00    -0.309 N 
HETATM   10  C   UNL     1      39.462 -11.833   5.923  1.00  0.00     0.321 C 
HETATM   11  N   UNL     1      40.263 -12.927   5.924  1.00  0.00    -0.338 N 
HETATM   12  O   UNL     1      38.443 -11.758   5.245  1.00  0.00    -0.247 OA
HETATM   13  H   UNL     1      41.228 -12.728   6.169  1.00  0.00     0.164 HD
HETATM   14  H   UNL     1      39.345  -9.929   6.433  1.00  0.00     0.170 HD
BRANCH  11  15
HETATM   15  C   UNL     1      39.963 -14.240   5.361  1.00  0.00     0.089 C 
HETATM   16  C   UNL     1      40.597 -15.448   6.086  1.00  0.00     0.058 C 
HETATM   17  C   UNL     1      41.953 -15.859   5.537  1.00  0.00     0.190 C 
HETATM   18  N   UNL     1      41.886 -15.966   4.036  1.00  0.00    -0.067 N 
HETATM   19  C   UNL     1      42.460 -17.246   5.894  1.00  0.00     0.035 C 
HETATM   20  H   UNL     1      41.152 -16.641   3.784  1.00  0.00     0.280 HD
HETATM   21  C   UNL     1      41.563 -14.659   3.392  1.00  0.00     0.237 C 
HETATM   22  C   UNL     1      43.197 -16.598   3.648  1.00  0.00     0.235 C 
HETATM   23  C   UNL     1      40.163 -14.258   3.835  1.00  0.00     0.053 C 
HETATM   24  C   UNL     1      43.541 -17.495   4.839  1.00  0.00     0.030 C 
ENDBRANCH  11  15
ENDBRANCH   7   9
TORSDOF 2
ENDMDL
MODEL 10
REMARK VINA RESULT:      -6.7      2.239      3.167
REMARK  2 active torsions:
REMARK  status: ('A' for Active; 'I' for Inactive)
REMARK    1  A    between atoms: C_7  and  N_8 
REMARK       I    between atoms: N_8  and  C_9 
REMARK       I    between atoms: C_9  and  N_10 
REMARK    2  A    between atoms: N_10  and  C_11 
ROOT
HETATM    1  C   UNL     1      42.352 -18.521   5.116  1.00  0.00     0.025 A 
HETATM    2  C   UNL     1      43.719 -18.544   5.397  1.00  0.00     0.044 A 
HETATM    3  C   UNL     1      44.515 -19.680   5.034  1.00  0.00     0.099 C 
HETATM    4  N   UNL     1      45.170 -20.588   4.734  1.00  0.00    -0.191 NA
HETATM    5  C   UNL     1      44.311 -17.438   6.013  1.00  0.00     0.025 A 
HETATM    6  C   UNL     1      43.545 -16.310   6.333  1.00  0.00     0.031 A 
HETATM    7  C   UNL     1      42.176 -16.278   6.051  1.00  0.00     0.036 A 
HETATM    8  C   UNL     1      41.588 -17.395   5.441  1.00  0.00     0.031 A 
ENDROOT
BRANCH   7   9
HETATM    9  N   UNL     1      41.349 -15.151   6.239  1.00  0.00    -0.309 N 
HETATM   10  C   UNL     1      40.482 -14.533   5.396  1.00  0.00     0.321 C 
HETATM   11  N   UNL     1      40.797 -14.511   4.078  1.00  0.00    -0.338 N 
HETATM   12  O   UNL     1      39.472 -14.004   5.845  1.00  0.00    -0.247 OA
HETATM   13  H   UNL     1      41.792 -14.598   3.892  1.00  0.00     0.164 HD
HETATM   14  H   UNL     1      41.181 -14.896   7.207  1.00  0.00     0.170 HD
BRANCH  11  15
HETATM   15  C   UNL     1      39.934 -14.107   2.971  1.00  0.00     0.089 C 
HETATM   16  C   UNL     1      40.011 -14.980   1.699  1.00  0.00     0.058 C 
HETATM   17  C   UNL     1      41.031 -14.501   0.679  1.00  0.00     0.190 C 
HETATM   18  N   UNL     1      40.861 -13.023   0.442  1.00  0.00    -0.067 N 
HETATM   19  C   UNL     1      40.900 -15.029  -0.739  1.00  0.00     0.035 C 
HETATM   20  H   UNL     1      39.897 -12.846   0.130  1.00  0.00     0.280 HD
HETATM   21  C   UNL     1      41.110 -12.222   1.676  1.00  0.00     0.237 C 
HETATM   22  C   UNL     1      41.751 -12.730  -0.738  1.00  0.00     0.235 C 
HETATM   23  C   UNL     1      40.042 -12.597   2.694  1.00  0.00     0.053 C 
HETATM   24  C   UNL     1      41.721 -14.025  -1.553  1.00  0.00     0.030 C 
ENDBRANCH  11  15
ENDBRANCH   7   9
TORSDOF 2
ENDMDL
