MODEL 1
REMARK VINA RESULT:      -8.1      0.000      0.000
REMARK  6 active torsions:
REMARK  status: ('A' for Active; 'I' for Inactive)
REMARK    1  A    between atoms: C_2  and  C_3 
REMARK       I    between atoms: C_3  and  N_4 
REMARK    2  A    between atoms: N_4  and  C_5 
REMARK    3  A    between atoms: C_7  and  N_8 
REMARK       I    between atoms: N_8  and  C_9 
REMARK    4  A    between atoms: C_9  and  C_10 
REMARK    5  A    between atoms: C_13  and  C_14 
REMARK    6  A    between atoms: C_14  and  C_15 
ROOT
HETATM    1  N   UNL     1      42.823 -16.006   3.035  1.00  0.00    -0.322 N 
HETATM    2  C   UNL     1      41.559 -15.640   2.605  1.00  0.00     0.256 C 
HETATM    3  O   UNL     1      40.537 -15.623   3.279  1.00  0.00    -0.267 OA
HETATM    4  H   UNL     1      43.548 -16.047   2.338  1.00  0.00     0.169 HD
ENDROOT
BRANCH   1   5
HETATM    5  C   UNL     1      43.251 -16.232   4.370  1.00  0.00     0.043 A 
HETATM    6  C   UNL     1      43.322 -15.201   5.322  1.00  0.00     0.059 A 
HETATM    7  C   UNL     1      43.869 -15.421   6.592  1.00  0.00     0.036 A 
HETATM    8  C   UNL     1      44.319 -16.702   6.921  1.00  0.00     0.030 A 
HETATM    9  C   UNL     1      44.223 -17.745   6.000  1.00  0.00     0.011 A 
HETATM   10  C   UNL     1      43.695 -17.526   4.720  1.00  0.00    -0.035 A 
HETATM   11  C   UNL     1      43.634 -18.689   3.767  1.00  0.00     0.050 C 
BRANCH   7  12
HETATM   12  N   UNL     1      44.064 -14.413   7.562  1.00  0.00    -0.327 N 
HETATM   13  C   UNL     1      45.072 -13.470   7.613  1.00  0.00     0.221 C 
HETATM   14  O   UNL     1      45.929 -13.279   6.757  1.00  0.00    -0.273 OA
HETATM   15  H   UNL     1      43.363 -14.374   8.288  1.00  0.00     0.169 HD
BRANCH  13  16
HETATM   16  C   UNL     1      45.128 -12.676   8.912  1.00  0.00     0.098 C 
HETATM   17  C   UNL     1      46.101 -11.511   8.934  1.00  0.00     0.014 C 
ENDBRANCH  13  16
ENDBRANCH   7  12
ENDBRANCH   1   5
BRANCH   2  18
HETATM   18  C   UNL     1      41.464 -15.194   1.183  1.00  0.00     0.032 A 
HETATM   19  C   UNL     1      41.415 -13.848   0.802  1.00  0.00     0.017 A 
HETATM   20  C   UNL     1      41.266 -13.505  -0.546  1.00  0.00     0.008 A 
HETATM   21  C   UNL     1      41.173 -14.499  -1.533  1.00  0.00    -0.051 A 
HETATM   22  C   UNL     1      41.265 -15.845  -1.150  1.00  0.00     0.008 A 
HETATM   23  C   UNL     1      41.410 -16.188   0.195  1.00  0.00     0.017 A 
BRANCH  21  24
HETATM   24  C   UNL     1      40.991 -14.129  -2.988  1.00  0.00     0.120 C 
BRANCH  24  25
HETATM   25  C   UNL     1      39.731 -14.779  -3.434  1.00  0.00     0.151 A 
HETATM   26  N   UNL     1      39.702 -15.823  -4.278  1.00  0.00    -0.158 NA
HETATM   27  N   UNL     1      38.382 -16.043  -4.387  1.00  0.00    -0.270 N 
HETATM   28  H   UNL     1      38.050 -16.806  -4.963  1.00  0.00     0.190 HD
HETATM   29  C   UNL     1      37.671 -15.139  -3.665  1.00  0.00     0.227 A 
HETATM   30  N   UNL     1      38.492 -14.314  -3.063  1.00  0.00    -0.225 NA
ENDBRANCH  24  25
ENDBRANCH  21  24
ENDBRANCH   2  18
TORSDOF 6
ENDMDL
MODEL 2
REMARK VINA RESULT:      -8.0      5.008     10.501
REMARK  6 active torsions:
REMARK  status: ('A' for Active; 'I' for Inactive)
REMARK    1  A    between atoms: C_2  and  C_3 
REMARK       I    between atoms: C_3  and  N_4 
REMARK    2  A    between atoms: N_4  and  C_5 
REMARK    3  A    between atoms: C_7  and  N_8 
REMARK       I    between atoms: N_8  and  C_9 
REMARK    4  A    between atoms: C_9  and  C_10 
REMARK    5  A    between atoms: C_13  and  C_14 
REMARK    6  A    between atoms: C_14  and  C_15 
ROOT
HETATM    1  N   UNL     1      43.637 -14.326   7.069  1.00  0.00    -0.322 N 
HETATM    2  C   UNL     1      44.756 -13.570   7.370  1.00  0.00     0.256 C 
HETATM    3  O   UNL     1      45.830 -13.592   6.781  1.00  0.00    -0.267 OA
HETATM    4  H   UNL     1      42.855 -14.254   7.700  1.00  0.00     0.169 HD
ENDROOT
BRANCH   1   5
HETATM    5  C   UNL     1      43.413 -15.118   5.912  1.00  0.00     0.043 A 
HETATM    6  C   UNL     1      43.876 -16.440   5.804  1.00  0.00     0.059 A 
HETATM    7  C   UNL     1      43.758 -17.156   4.607  1.00  0.00     0.036 A 
HETATM    8  C   UNL     1      43.136 -16.546   3.514  1.00  0.00     0.030 A 
HETATM    9  C   UNL     1      42.640 -15.247   3.614  1.00  0.00     0.011 A 
HETATM   10  C   UNL     1      42.773 -14.518   4.805  1.00  0.00    -0.035 A 
HETATM   11  C   UNL     1      42.231 -13.115   4.845  1.00  0.00     0.050 C 
BRANCH   7  12
HETATM   12  N   UNL     1      44.286 -18.448   4.394  1.00  0.00    -0.327 N 
HETATM   13  C   UNL     1      44.171 -19.555   5.212  1.00  0.00     0.221 C 
HETATM   14  O   UNL     1      43.495 -19.634   6.233  1.00  0.00    -0.273 OA
HETATM   15  H   UNL     1      44.786 -18.571   3.526  1.00  0.00     0.169 HD
BRANCH  13  16
HETATM   16  C   UNL     1      45.049 -20.733   4.808  1.00  0.00     0.098 C 
HETATM   17  C   UNL     1      44.653 -22.081   5.382  1.00  0.00     0.014 C 
ENDBRANCH  13  16
ENDBRANCH   7  12
ENDBRANCH   1   5
BRANCH   2  18
HETATM   18  C   UNL     1      44.606 -12.616   8.510  1.00  0.00     0.032 A 
HETATM   19  C   UNL     1      45.519 -12.535   9.568  1.00  0.00     0.017 A 
HETATM   20  C   UNL     1      45.283 -11.658  10.632  1.00  0.00     0.008 A 
HETATM   21  C   UNL     1      44.139 -10.844  10.651  1.00  0.00    -0.051 A 
HETATM   22  C   UNL     1      43.251 -10.899   9.568  1.00  0.00     0.008 A 
HETATM   23  C   UNL     1      43.483 -11.776   8.507  1.00  0.00     0.017 A 
BRANCH  21  24
HETATM   24  C   UNL     1      43.873  -9.911  11.811  1.00  0.00     0.120 C 
BRANCH  24  25
HETATM   25  C   UNL     1      42.478 -10.172  12.251  1.00  0.00     0.151 A 
HETATM   26  N   UNL     1      41.521  -9.231  12.253  1.00  0.00    -0.158 NA
HETATM   27  N   UNL     1      40.470  -9.920  12.729  1.00  0.00    -0.270 N 
HETATM   28  H   UNL     1      39.574  -9.458  12.824  1.00  0.00     0.190 HD
HETATM   29  C   UNL     1      40.813 -11.199  13.027  1.00  0.00     0.227 A 
HETATM   30  N   UNL     1      42.080 -11.390  12.752  1.00  0.00    -0.225 NA
ENDBRANCH  24  25
ENDBRANCH  21  24
ENDBRANCH   2  18
TORSDOF 6
ENDMDL
MODEL 3
REMARK VINA RESULT:      -7.7      3.213     10.510
REMARK  6 active torsions:
REMARK  status: ('A' for Active; 'I' for Inactive)
REMARK    1  A    between atoms: C_2  and  C_3 
REMARK       I    between atoms: C_3  and  N_4 
REMARK    2  A    between atoms: N_4  and  C_5 
REMARK    3  A    between atoms: C_7  and  N_8 
REMARK       I    between atoms: N_8  and  C_9 
REMARK    4  A    between atoms: C_9  and  C_10 
REMARK    5  A    between atoms: C_13  and  C_14 
REMARK    6  A    between atoms: C_14  and  C_15 
ROOT
HETATM    1  N   UNL     1      43.755 -14.436   7.480  1.00  0.00    -0.322 N 
HETATM    2  C   UNL     1      44.791 -13.532   7.635  1.00  0.00     0.256 C 
HETATM    3  O   UNL     1      45.827 -13.493   6.984  1.00  0.00    -0.267 OA
HETATM    4  H   UNL     1      43.004 -14.389   8.149  1.00  0.00     0.169 HD
ENDROOT
BRANCH   1   5
HETATM    5  C   UNL     1      43.567 -15.362   6.420  1.00  0.00     0.043 A 
HETATM    6  C   UNL     1      43.469 -14.960   5.077  1.00  0.00     0.059 A 
HETATM    7  C   UNL     1      43.155 -15.874   4.065  1.00  0.00     0.036 A 
HETATM    8  C   UNL     1      42.970 -17.218   4.403  1.00  0.00     0.030 A 
HETATM    9  C   UNL     1      43.097 -17.641   5.725  1.00  0.00     0.011 A 
HETATM   10  C   UNL     1      43.392 -16.725   6.745  1.00  0.00    -0.035 A 
HETATM   11  C   UNL     1      43.501 -17.242   8.155  1.00  0.00     0.050 C 
BRANCH   7  12
HETATM   12  N   UNL     1      42.943 -15.527   2.712  1.00  0.00    -0.327 N 
HETATM   13  C   UNL     1      41.741 -15.454   2.035  1.00  0.00     0.221 C 
HETATM   14  O   UNL     1      40.624 -15.585   2.525  1.00  0.00    -0.273 OA
HETATM   15  H   UNL     1      43.775 -15.283   2.196  1.00  0.00     0.169 HD
BRANCH  13  16
HETATM   16  C   UNL     1      41.877 -15.275   0.528  1.00  0.00     0.098 C 
HETATM   17  C   UNL     1      41.265 -14.011  -0.046  1.00  0.00     0.014 C 
ENDBRANCH  13  16
ENDBRANCH   7  12
ENDBRANCH   1   5
BRANCH   2  18
HETATM   18  C   UNL     1      44.588 -12.490   8.686  1.00  0.00     0.032 A 
HETATM   19  C   UNL     1      45.475 -12.290   9.750  1.00  0.00     0.017 A 
HETATM   20  C   UNL     1      45.190 -11.334  10.731  1.00  0.00     0.008 A 
HETATM   21  C   UNL     1      44.022 -10.558  10.659  1.00  0.00    -0.051 A 
HETATM   22  C   UNL     1      43.159 -10.733   9.568  1.00  0.00     0.008 A 
HETATM   23  C   UNL     1      43.440 -11.689   8.591  1.00  0.00     0.017 A 
BRANCH  21  24
HETATM   24  C   UNL     1      43.703  -9.539  11.730  1.00  0.00     0.120 C 
BRANCH  24  25
HETATM   25  C   UNL     1      42.412  -9.953  12.335  1.00  0.00     0.151 A 
HETATM   26  N   UNL     1      42.260 -11.087  13.038  1.00  0.00    -0.158 NA
HETATM   27  N   UNL     1      40.957 -11.031  13.359  1.00  0.00    -0.270 N 
HETATM   28  H   UNL     1      40.551 -11.767  13.922  1.00  0.00     0.190 HD
HETATM   29  C   UNL     1      40.367  -9.928  12.831  1.00  0.00     0.227 A 
HETATM   30  N   UNL     1      41.253  -9.231  12.164  1.00  0.00    -0.225 NA
ENDBRANCH  24  25
ENDBRANCH  21  24
ENDBRANCH   2  18
TORSDOF 6
ENDMDL
MODEL 4
REMARK VINA RESULT:      -7.7      4.338      6.772
REMARK  6 active torsions:
REMARK  status: ('A' for Active; 'I' for Inactive)
REMARK    1  A    between atoms: C_2  and  C_3 
REMARK       I    between atoms: C_3  and  N_4 
REMARK    2  A    between atoms: N_4  and  C_5 
REMARK    3  A    between atoms: C_7  and  N_8 
REMARK       I    between atoms: N_8  and  C_9 
REMARK    4  A    between atoms: C_9  and  C_10 
REMARK    5  A    between atoms: C_13  and  C_14 
REMARK    6  A    between atoms: C_14  and  C_15 
ROOT
HETATM    1  N   UNL     1      41.371 -14.709   3.622  1.00  0.00    -0.322 N 
HETATM    2  C   UNL     1      42.666 -14.868   3.162  1.00  0.00     0.256 C 
HETATM    3  O   UNL     1      43.519 -13.994   3.071  1.00  0.00    -0.267 OA
HETATM    4  H   UNL     1      40.763 -15.509   3.560  1.00  0.00     0.169 HD
ENDROOT
BRANCH   1   5
HETATM    5  C   UNL     1      40.818 -13.576   4.276  1.00  0.00     0.043 A 
HETATM    6  C   UNL     1      41.267 -13.139   5.534  1.00  0.00     0.059 A 
HETATM    7  C   UNL     1      40.621 -12.101   6.216  1.00  0.00     0.036 A 
HETATM    8  C   UNL     1      39.531 -11.471   5.610  1.00  0.00     0.030 A 
HETATM    9  C   UNL     1      39.093 -11.869   4.348  1.00  0.00     0.011 A 
HETATM   10  C   UNL     1      39.724 -12.922   3.669  1.00  0.00    -0.035 A 
HETATM   11  C   UNL     1      39.194 -13.314   2.316  1.00  0.00     0.050 C 
BRANCH   7  12
HETATM   12  N   UNL     1      40.954 -11.675   7.521  1.00  0.00    -0.327 N 
HETATM   13  C   UNL     1      41.661 -10.547   7.889  1.00  0.00     0.221 C 
HETATM   14  O   UNL     1      42.043  -9.655   7.138  1.00  0.00    -0.273 OA
HETATM   15  H   UNL     1      40.608 -12.262   8.266  1.00  0.00     0.169 HD
BRANCH  13  16
HETATM   16  C   UNL     1      42.047 -10.497   9.362  1.00  0.00     0.098 C 
HETATM   17  C   UNL     1      43.509 -10.762   9.672  1.00  0.00     0.014 C 
ENDBRANCH  13  16
ENDBRANCH   7  12
ENDBRANCH   1   5
BRANCH   2  18
HETATM   18  C   UNL     1      43.049 -16.259   2.775  1.00  0.00     0.032 A 
HETATM   19  C   UNL     1      43.947 -16.548   1.741  1.00  0.00     0.017 A 
HETATM   20  C   UNL     1      44.214 -17.877   1.395  1.00  0.00     0.008 A 
HETATM   21  C   UNL     1      43.597 -18.936   2.081  1.00  0.00    -0.051 A 
HETATM   22  C   UNL     1      42.732 -18.640   3.144  1.00  0.00     0.008 A 
HETATM   23  C   UNL     1      42.462 -17.315   3.488  1.00  0.00     0.017 A 
BRANCH  21  24
HETATM   24  C   UNL     1      43.870 -20.372   1.694  1.00  0.00     0.120 C 
BRANCH  24  25
HETATM   25  C   UNL     1      44.349 -21.056   2.922  1.00  0.00     0.151 A 
HETATM   26  N   UNL     1      44.980 -20.418   3.920  1.00  0.00    -0.158 NA
HETATM   27  N   UNL     1      45.219 -21.427   4.775  1.00  0.00    -0.270 N 
HETATM   28  H   UNL     1      45.681 -21.235   5.655  1.00  0.00     0.190 HD
HETATM   29  C   UNL     1      44.778 -22.610   4.275  1.00  0.00     0.227 A 
HETATM   30  N   UNL     1      44.237 -22.416   3.098  1.00  0.00    -0.225 NA
ENDBRANCH  24  25
ENDBRANCH  21  24
ENDBRANCH   2  18
TORSDOF 6
ENDMDL
MODEL 5
REMARK VINA RESULT:      -7.5      2.729      4.207
REMARK  6 active torsions:
REMARK  status: ('A' for Active; 'I' for Inactive)
REMARK    1  A    between atoms: C_2  and  C_3 
REMARK       I    between atoms: C_3  and  N_4 
REMARK    2  A    between atoms: N_4  and  C_5 
REMARK    3  A    between atoms: C_7  and  N_8 
REMARK       I    between atoms: N_8  and  C_9 
REMARK    4  A    between atoms: C_9  and  C_10 
REMARK    5  A    between atoms: C_13  and  C_14 
REMARK    6  A    between atoms: C_14  and  C_15 
ROOT
HETATM    1  N   UNL     1      41.665 -15.451   2.930  1.00  0.00    -0.322 N 
HETATM    2  C   UNL     1      42.317 -14.394   2.319  1.00  0.00     0.256 C 
HETATM    3  O   UNL     1      43.238 -13.736   2.787  1.00  0.00    -0.267 OA
HETATM    4  H   UNL     1      40.871 -15.837   2.448  1.00  0.00     0.169 HD
ENDROOT
BRANCH   1   5
HETATM    5  C   UNL     1      42.048 -16.133   4.116  1.00  0.00     0.043 A 
HETATM    6  C   UNL     1      42.997 -17.169   4.115  1.00  0.00     0.059 A 
HETATM    7  C   UNL     1      43.262 -17.913   5.271  1.00  0.00     0.036 A 
HETATM    8  C   UNL     1      42.588 -17.588   6.452  1.00  0.00     0.030 A 
HETATM    9  C   UNL     1      41.669 -16.541   6.479  1.00  0.00     0.011 A 
HETATM   10  C   UNL     1      41.385 -15.806   5.319  1.00  0.00    -0.035 A 
HETATM   11  C   UNL     1      40.371 -14.697   5.410  1.00  0.00     0.050 C 
BRANCH   7  12
HETATM   12  N   UNL     1      44.127 -19.028   5.322  1.00  0.00    -0.327 N 
HETATM   13  C   UNL     1      44.356 -19.968   4.335  1.00  0.00     0.221 C 
HETATM   14  O   UNL     1      43.915 -19.938   3.190  1.00  0.00    -0.273 OA
HETATM   15  H   UNL     1      44.651 -19.127   6.178  1.00  0.00     0.169 HD
BRANCH  13  16
HETATM   16  C   UNL     1      45.171 -21.173   4.788  1.00  0.00     0.098 C 
HETATM   17  C   UNL     1      44.650 -22.528   4.344  1.00  0.00     0.014 C 
ENDBRANCH  13  16
ENDBRANCH   7  12
ENDBRANCH   1   5
BRANCH   2  18
HETATM   18  C   UNL     1      41.854 -14.060   0.938  1.00  0.00     0.032 A 
HETATM   19  C   UNL     1      41.622 -12.751   0.502  1.00  0.00     0.017 A 
HETATM   20  C   UNL     1      41.133 -12.518  -0.788  1.00  0.00     0.008 A 
HETATM   21  C   UNL     1      40.878 -13.586  -1.663  1.00  0.00    -0.051 A 
HETATM   22  C   UNL     1      41.153 -14.892  -1.235  1.00  0.00     0.008 A 
HETATM   23  C   UNL     1      41.638 -15.126   0.053  1.00  0.00     0.017 A 
BRANCH  21  24
HETATM   24  C   UNL     1      40.329 -13.336  -3.050  1.00  0.00     0.120 C 
BRANCH  24  25
HETATM   25  C   UNL     1      39.366 -14.432  -3.327  1.00  0.00     0.151 A 
HETATM   26  N   UNL     1      38.138 -14.485  -2.788  1.00  0.00    -0.158 NA
HETATM   27  N   UNL     1      37.665 -15.629  -3.310  1.00  0.00    -0.270 N 
HETATM   28  H   UNL     1      36.723 -15.925  -3.088  1.00  0.00     0.190 HD
HETATM   29  C   UNL     1      38.595 -16.235  -4.091  1.00  0.00     0.227 A 
HETATM   30  N   UNL     1      39.689 -15.515  -4.112  1.00  0.00    -0.225 NA
ENDBRANCH  24  25
ENDBRANCH  21  24
ENDBRANCH   2  18
TORSDOF 6
ENDMDL
MODEL 6
REMARK VINA RESULT:      -7.5      3.671      9.837
REMARK  6 active torsions:
REMARK  status: ('A' for Active; 'I' for Inactive)
REMARK    1  A    between atoms: C_2  and  C_3 
REMARK       I    between atoms: C_3  and  N_4 
REMARK    2  A    between atoms: N_4  and  C_5 
REMARK    3  A    between atoms: C_7  and  N_8 
REMARK       I    between atoms: N_8  and  C_9 
REMARK    4  A    between atoms: C_9  and  C_10 
REMARK    5  A    between atoms: C_13  and  C_14 
REMARK    6  A    between atoms: C_14  and  C_15 
ROOT
HETATM    1  N   UNL     1      43.060 -14.635   4.004  1.00  0.00    -0.322 N 
HETATM    2  C   UNL     1      42.290 -14.196   5.067  1.00  0.00     0.256 C 
HETATM    3  O   UNL     1      41.074 -14.294   5.176  1.00  0.00    -0.267 OA
HETATM    4  H   UNL     1      44.040 -14.406   4.025  1.00  0.00     0.169 HD
ENDROOT
BRANCH   1   5
HETATM    5  C   UNL     1      42.653 -15.467   2.927  1.00  0.00     0.043 A 
HETATM    6  C   UNL     1      42.716 -16.869   2.995  1.00  0.00     0.059 A 
HETATM    7  C   UNL     1      42.434 -17.663   1.878  1.00  0.00     0.036 A 
HETATM    8  C   UNL     1      42.051 -17.041   0.686  1.00  0.00     0.030 A 
HETATM    9  C   UNL     1      41.950 -15.653   0.611  1.00  0.00     0.011 A 
HETATM   10  C   UNL     1      42.251 -14.852   1.722  1.00  0.00    -0.035 A 
HETATM   11  C   UNL     1      42.138 -13.358   1.572  1.00  0.00     0.050 C 
BRANCH   7  12
HETATM   12  N   UNL     1      42.570 -19.069   1.842  1.00  0.00    -0.327 N 
HETATM   13  C   UNL     1      43.692 -19.818   2.139  1.00  0.00     0.221 C 
HETATM   14  O   UNL     1      44.751 -19.390   2.588  1.00  0.00    -0.273 OA
HETATM   15  H   UNL     1      41.735 -19.576   1.590  1.00  0.00     0.169 HD
BRANCH  13  16
HETATM   16  C   UNL     1      43.578 -21.295   1.781  1.00  0.00     0.098 C 
HETATM   17  C   UNL     1      44.407 -22.246   2.624  1.00  0.00     0.014 C 
ENDBRANCH  13  16
ENDBRANCH   7  12
ENDBRANCH   1   5
BRANCH   2  18
HETATM   18  C   UNL     1      43.043 -13.573   6.197  1.00  0.00     0.032 A 
HETATM   19  C   UNL     1      42.600 -12.432   6.878  1.00  0.00     0.017 A 
HETATM   20  C   UNL     1      43.386 -11.869   7.888  1.00  0.00     0.008 A 
HETATM   21  C   UNL     1      44.620 -12.440   8.240  1.00  0.00    -0.051 A 
HETATM   22  C   UNL     1      45.038 -13.606   7.583  1.00  0.00     0.008 A 
HETATM   23  C   UNL     1      44.256 -14.167   6.573  1.00  0.00     0.017 A 
BRANCH  21  24
HETATM   24  C   UNL     1      45.480 -11.819   9.317  1.00  0.00     0.120 C 
BRANCH  24  25
HETATM   25  C   UNL     1      44.667 -11.823  10.561  1.00  0.00     0.151 A 
HETATM   26  N   UNL     1      44.315 -12.948  11.204  1.00  0.00    -0.158 NA
HETATM   27  N   UNL     1      43.600 -12.457  12.230  1.00  0.00    -0.270 N 
HETATM   28  H   UNL     1      43.211 -13.092  12.915  1.00  0.00     0.190 HD
HETATM   29  C   UNL     1      43.509 -11.104  12.164  1.00  0.00     0.227 A 
HETATM   30  N   UNL     1      44.158 -10.670  11.112  1.00  0.00    -0.225 NA
ENDBRANCH  24  25
ENDBRANCH  21  24
ENDBRANCH   2  18
TORSDOF 6
ENDMDL
MODEL 7
REMARK VINA RESULT:      -7.5      1.608      2.146
REMARK  6 active torsions:
REMARK  status: ('A' for Active; 'I' for Inactive)
REMARK    1  A    between atoms: C_2  and  C_3 
REMARK       I    between atoms: C_3  and  N_4 
REMARK    2  A    between atoms: N_4  and  C_5 
REMARK    3  A    between atoms: C_7  and  N_8 
REMARK       I    between atoms: N_8  and  C_9 
REMARK    4  A    between atoms: C_9  and  C_10 
REMARK    5  A    between atoms: C_13  and  C_14 
REMARK    6  A    between atoms: C_14  and  C_15 
ROOT
HETATM    1  N   UNL     1      42.307 -16.151   3.076  1.00  0.00    -0.322 N 
HETATM    2  C   UNL     1      41.013 -15.710   2.867  1.00  0.00     0.256 C 
HETATM    3  O   UNL     1      40.137 -15.592   3.715  1.00  0.00    -0.267 OA
HETATM    4  H   UNL     1      42.886 -16.271   2.261  1.00  0.00     0.169 HD
ENDROOT
BRANCH   1   5
HETATM    5  C   UNL     1      42.961 -16.355   4.320  1.00  0.00     0.043 A 
HETATM    6  C   UNL     1      43.084 -15.338   5.282  1.00  0.00     0.059 A 
HETATM    7  C   UNL     1      43.843 -15.524   6.443  1.00  0.00     0.036 A 
HETATM    8  C   UNL     1      44.459 -16.761   6.657  1.00  0.00     0.030 A 
HETATM    9  C   UNL     1      44.318 -17.792   5.729  1.00  0.00     0.011 A 
HETATM   10  C   UNL     1      43.576 -17.605   4.555  1.00  0.00    -0.035 A 
HETATM   11  C   UNL     1      43.475 -18.752   3.587  1.00  0.00     0.050 C 
BRANCH   7  12
HETATM   12  N   UNL     1      44.093 -14.519   7.404  1.00  0.00    -0.327 N 
HETATM   13  C   UNL     1      45.112 -13.586   7.407  1.00  0.00     0.221 C 
HETATM   14  O   UNL     1      45.930 -13.404   6.512  1.00  0.00    -0.273 OA
HETATM   15  H   UNL     1      43.427 -14.473   8.161  1.00  0.00     0.169 HD
BRANCH  13  16
HETATM   16  C   UNL     1      45.236 -12.793   8.702  1.00  0.00     0.098 C 
HETATM   17  C   UNL     1      46.222 -11.639   8.680  1.00  0.00     0.014 C 
ENDBRANCH  13  16
ENDBRANCH   7  12
ENDBRANCH   1   5
BRANCH   2  18
HETATM   18  C   UNL     1      40.683 -15.313   1.464  1.00  0.00     0.032 A 
HETATM   19  C   UNL     1      41.402 -15.762   0.351  1.00  0.00     0.017 A 
HETATM   20  C   UNL     1      41.073 -15.302  -0.929  1.00  0.00     0.008 A 
HETATM   21  C   UNL     1      40.017 -14.396  -1.116  1.00  0.00    -0.051 A 
HETATM   22  C   UNL     1      39.273 -13.984  -0.002  1.00  0.00     0.008 A 
HETATM   23  C   UNL     1      39.603 -14.439   1.276  1.00  0.00     0.017 A 
BRANCH  21  24
HETATM   24  C   UNL     1      39.674 -13.883  -2.497  1.00  0.00     0.120 C 
BRANCH  24  25
HETATM   25  C   UNL     1      40.787 -12.985  -2.901  1.00  0.00     0.151 A 
HETATM   26  N   UNL     1      41.657 -13.287  -3.877  1.00  0.00    -0.158 NA
HETATM   27  N   UNL     1      42.458 -12.209  -3.866  1.00  0.00    -0.270 N 
HETATM   28  H   UNL     1      43.218 -12.146  -4.531  1.00  0.00     0.190 HD
HETATM   29  C   UNL     1      42.090 -11.332  -2.896  1.00  0.00     0.227 A 
HETATM   30  N   UNL     1      41.047 -11.798  -2.255  1.00  0.00    -0.225 NA
ENDBRANCH  24  25
ENDBRANCH  21  24
ENDBRANCH   2  18
TORSDOF 6
ENDMDL
MODEL 8
REMARK VINA RESULT:      -7.3      3.976      9.723
REMARK  6 active torsions:
REMARK  status: ('A' for Active; 'I' for Inactive)
REMARK    1  A    between atoms: C_2  and  C_3 
REMARK       I    between atoms: C_3  and  N_4 
REMARK    2  A    between atoms: N_4  and  C_5 
REMARK    3  A    between atoms: C_7  and  N_8 
REMARK       I    between atoms: N_8  and  C_9 
REMARK    4  A    between atoms: C_9  and  C_10 
REMARK    5  A    between atoms: C_13  and  C_14 
REMARK    6  A    between atoms: C_14  and  C_15 
ROOT
HETATM    1  N   UNL     1      41.682 -14.832  -0.467  1.00  0.00    -0.322 N 
HETATM    2  C   UNL     1      41.160 -15.087   0.790  1.00  0.00     0.256 C 
HETATM    3  O   UNL     1      40.171 -14.565   1.288  1.00  0.00    -0.267 OA
HETATM    4  H   UNL     1      42.551 -15.284  -0.700  1.00  0.00     0.169 HD
ENDROOT
BRANCH   1   5
HETATM    5  C   UNL     1      41.083 -14.088  -1.517  1.00  0.00     0.043 A 
HETATM    6  C   UNL     1      39.874 -14.476  -2.120  1.00  0.00     0.059 A 
HETATM    7  C   UNL     1      39.371 -13.801  -3.238  1.00  0.00     0.036 A 
HETATM    8  C   UNL     1      40.073 -12.700  -3.735  1.00  0.00     0.030 A 
HETATM    9  C   UNL     1      41.255 -12.280  -3.127  1.00  0.00     0.011 A 
HETATM   10  C   UNL     1      41.775 -12.965  -2.020  1.00  0.00    -0.035 A 
HETATM   11  C   UNL     1      43.063 -12.471  -1.419  1.00  0.00     0.050 C 
BRANCH   7  12
HETATM   12  N   UNL     1      38.219 -14.193  -3.956  1.00  0.00    -0.327 N 
HETATM   13  C   UNL     1      36.986 -13.570  -3.984  1.00  0.00     0.221 C 
HETATM   14  O   UNL     1      36.705 -12.497  -3.460  1.00  0.00    -0.273 OA
HETATM   15  H   UNL     1      38.329 -15.016  -4.530  1.00  0.00     0.169 HD
BRANCH  13  16
HETATM   16  C   UNL     1      35.889 -14.373  -4.672  1.00  0.00     0.098 C 
HETATM   17  C   UNL     1      35.344 -13.780  -5.959  1.00  0.00     0.014 C 
ENDBRANCH  13  16
ENDBRANCH   7  12
ENDBRANCH   1   5
BRANCH   2  18
HETATM   18  C   UNL     1      41.873 -16.131   1.587  1.00  0.00     0.032 A 
HETATM   19  C   UNL     1      41.302 -16.779   2.688  1.00  0.00     0.017 A 
HETATM   20  C   UNL     1      42.050 -17.704   3.423  1.00  0.00     0.008 A 
HETATM   21  C   UNL     1      43.375 -18.002   3.066  1.00  0.00    -0.051 A 
HETATM   22  C   UNL     1      43.927 -17.380   1.937  1.00  0.00     0.008 A 
HETATM   23  C   UNL     1      43.183 -16.455   1.204  1.00  0.00     0.017 A 
BRANCH  21  24
HETATM   24  C   UNL     1      44.191 -18.986   3.873  1.00  0.00     0.120 C 
BRANCH  24  25
HETATM   25  C   UNL     1      44.125 -20.282   3.151  1.00  0.00     0.151 A 
HETATM   26  N   UNL     1      44.714 -21.403   3.597  1.00  0.00    -0.158 NA
HETATM   27  N   UNL     1      44.393 -22.278   2.630  1.00  0.00    -0.270 N 
HETATM   28  H   UNL     1      44.695 -23.241   2.709  1.00  0.00     0.190 HD
HETATM   29  C   UNL     1      43.678 -21.680   1.642  1.00  0.00     0.227 A 
HETATM   30  N   UNL     1      43.504 -20.414   1.931  1.00  0.00    -0.225 NA
ENDBRANCH  24  25
ENDBRANCH  21  24
ENDBRANCH   2  18
TORSDOF 6
ENDMDL
MODEL 9
REMARK VINA RESULT:      -7.3      2.460      9.849
REMARK  6 active torsions:
REMARK  status: ('A' for Active; 'I' for Inactive)
REMARK    1  A    between atoms: C_2  and  C_3 
REMARK       I    between atoms: C_3  and  N_4 
REMARK    2  A    between atoms: N_4  and  C_5 
REMARK    3  A    between atoms: C_7  and  N_8 
REMARK       I    between atoms: N_8  and  C_9 
REMARK    4  A    between atoms: C_9  and  C_10 
REMARK    5  A    between atoms: C_13  and  C_14 
REMARK    6  A    between atoms: C_14  and  C_15 
ROOT
HETATM    1  N   UNL     1      43.511 -15.064   4.234  1.00  0.00    -0.322 N 
HETATM    2  C   UNL     1      42.613 -14.442   5.083  1.00  0.00     0.256 C 
HETATM    3  O   UNL     1      41.391 -14.478   5.006  1.00  0.00    -0.267 OA
HETATM    4  H   UNL     1      44.488 -14.871   4.381  1.00  0.00     0.169 HD
ENDROOT
BRANCH   1   5
HETATM    5  C   UNL     1      43.227 -16.034   3.237  1.00  0.00     0.043 A 
HETATM    6  C   UNL     1      42.804 -15.683   1.943  1.00  0.00     0.059 A 
HETATM    7  C   UNL     1      42.405 -16.656   1.020  1.00  0.00     0.036 A 
HETATM    8  C   UNL     1      42.466 -18.003   1.389  1.00  0.00     0.030 A 
HETATM    9  C   UNL     1      42.917 -18.371   2.656  1.00  0.00     0.011 A 
HETATM   10  C   UNL     1      43.298 -17.399   3.592  1.00  0.00    -0.035 A 
HETATM   11  C   UNL     1      43.761 -17.860   4.948  1.00  0.00     0.050 C 
BRANCH   7  12
HETATM   12  N   UNL     1      41.876 -16.374  -0.259  1.00  0.00    -0.327 N 
HETATM   13  C   UNL     1      41.376 -15.172  -0.722  1.00  0.00     0.221 C 
HETATM   14  O   UNL     1      41.398 -14.101  -0.125  1.00  0.00    -0.273 OA
HETATM   15  H   UNL     1      41.891 -17.145  -0.910  1.00  0.00     0.169 HD
BRANCH  13  16
HETATM   16  C   UNL     1      40.671 -15.260  -2.070  1.00  0.00     0.098 C 
HETATM   17  C   UNL     1      41.251 -14.400  -3.178  1.00  0.00     0.014 C 
ENDBRANCH  13  16
ENDBRANCH   7  12
ENDBRANCH   1   5
BRANCH   2  18
HETATM   18  C   UNL     1      43.218 -13.682   6.219  1.00  0.00     0.032 A 
HETATM   19  C   UNL     1      42.612 -12.563   6.802  1.00  0.00     0.017 A 
HETATM   20  C   UNL     1      43.264 -11.865   7.824  1.00  0.00     0.008 A 
HETATM   21  C   UNL     1      44.524 -12.279   8.285  1.00  0.00    -0.051 A 
HETATM   22  C   UNL     1      45.106 -13.426   7.727  1.00  0.00     0.008 A 
HETATM   23  C   UNL     1      44.458 -14.121   6.704  1.00  0.00     0.017 A 
BRANCH  21  24
HETATM   24  C   UNL     1      45.239 -11.513   9.376  1.00  0.00     0.120 C 
BRANCH  24  25
HETATM   25  C   UNL     1      44.470 -11.743  10.626  1.00  0.00     0.151 A 
HETATM   26  N   UNL     1      44.373 -12.944  11.219  1.00  0.00    -0.158 NA
HETATM   27  N   UNL     1      43.593 -12.660  12.274  1.00  0.00    -0.270 N 
HETATM   28  H   UNL     1      43.359 -13.392  12.932  1.00  0.00     0.190 HD
HETATM   29  C   UNL     1      43.220 -11.354  12.274  1.00  0.00     0.227 A 
HETATM   30  N   UNL     1      43.743 -10.748  11.237  1.00  0.00    -0.225 NA
ENDBRANCH  24  25
ENDBRANCH  21  24
ENDBRANCH   2  18
TORSDOF 6
ENDMDL
MODEL 10
REMARK VINA RESULT:      -7.1      4.883      6.418
REMARK  6 active torsions:
REMARK  status: ('A' for Active; 'I' for Inactive)
REMARK    1  A    between atoms: C_2  and  C_3 
REMARK       I    between atoms: C_3  and  N_4 
REMARK    2  A    between atoms: N_4  and  C_5 
REMARK    3  A    between atoms: C_7  and  N_8 
REMARK       I    between atoms: N_8  and  C_9 
REMARK    4  A    between atoms: C_9  and  C_10 
REMARK    5  A    between atoms: C_13  and  C_14 
REMARK    6  A    between atoms: C_14  and  C_15 
ROOT
HETATM    1  N   UNL     1      42.848 -13.768   5.527  1.00  0.00    -0.322 N 
HETATM    2  C   UNL     1      42.075 -14.915   5.478  1.00  0.00     0.256 C 
HETATM    3  O   UNL     1      41.079 -15.152   6.150  1.00  0.00    -0.267 OA
HETATM    4  H   UNL     1      43.685 -13.758   4.968  1.00  0.00     0.169 HD
ENDROOT
BRANCH   1   5
HETATM    5  C   UNL     1      42.547 -12.551   6.193  1.00  0.00     0.043 A 
HETATM    6  C   UNL     1      43.013 -12.267   7.489  1.00  0.00     0.059 A 
HETATM    7  C   UNL     1      42.597 -11.120   8.175  1.00  0.00     0.036 A 
HETATM    8  C   UNL     1      41.729 -10.229   7.538  1.00  0.00     0.030 A 
HETATM    9  C   UNL     1      41.285 -10.478   6.239  1.00  0.00     0.011 A 
HETATM   10  C   UNL     1      41.682 -11.635   5.555  1.00  0.00    -0.035 A 
HETATM   11  C   UNL     1      41.156 -11.853   4.162  1.00  0.00     0.050 C 
BRANCH   7  12
HETATM   12  N   UNL     1      42.943 -10.820   9.511  1.00  0.00    -0.327 N 
HETATM   13  C   UNL     1      44.202 -10.574  10.025  1.00  0.00     0.221 C 
HETATM   14  O   UNL     1      45.240 -10.476   9.380  1.00  0.00    -0.273 OA
HETATM   15  H   UNL     1      42.166 -10.759  10.153  1.00  0.00     0.169 HD
BRANCH  13  16
HETATM   16  C   UNL     1      44.261 -10.511  11.546  1.00  0.00     0.098 C 
HETATM   17  C   UNL     1      43.125 -11.199  12.282  1.00  0.00     0.014 C 
ENDBRANCH  13  16
ENDBRANCH   7  12
ENDBRANCH   1   5
BRANCH   2  18
HETATM   18  C   UNL     1      42.498 -15.938   4.474  1.00  0.00     0.032 A 
HETATM   19  C   UNL     1      43.332 -15.648   3.388  1.00  0.00     0.017 A 
HETATM   20  C   UNL     1      43.640 -16.644   2.454  1.00  0.00     0.008 A 
HETATM   21  C   UNL     1      43.128 -17.944   2.596  1.00  0.00    -0.051 A 
HETATM   22  C   UNL     1      42.328 -18.238   3.709  1.00  0.00     0.008 A 
HETATM   23  C   UNL     1      42.018 -17.245   4.639  1.00  0.00     0.017 A 
BRANCH  21  24
HETATM   24  C   UNL     1      43.443 -19.014   1.576  1.00  0.00     0.120 C 
BRANCH  24  25
HETATM   25  C   UNL     1      43.952 -20.185   2.336  1.00  0.00     0.151 A 
HETATM   26  N   UNL     1      44.733 -20.071   3.422  1.00  0.00    -0.158 NA
HETATM   27  N   UNL     1      44.938 -21.360   3.741  1.00  0.00    -0.270 N 
HETATM   28  H   UNL     1      45.493 -21.590   4.556  1.00  0.00     0.190 HD
HETATM   29  C   UNL     1      44.331 -22.189   2.853  1.00  0.00     0.227 A 
HETATM   30  N   UNL     1      43.712 -21.480   1.942  1.00  0.00    -0.225 NA
ENDBRANCH  24  25
ENDBRANCH  21  24
ENDBRANCH   2  18
TORSDOF 6
ENDMDL
