MODEL 1
REMARK VINA RESULT:      -8.2      0.000      0.000
REMARK  8 active torsions:
REMARK  status: ('A' for Active; 'I' for Inactive)
REMARK    1  A    between atoms: C_2  and  O_3 
REMARK    2  A    between atoms: O_3  and  C_4 
REMARK    3  A    between atoms: C_4  and  C_5 
REMARK    4  A    between atoms: C_6  and  N_7 
REMARK       I    between atoms: N_7  and  C_8 
REMARK    5  A    between atoms: C_8  and  C_9 
REMARK    6  A    between atoms: C_9  and  N_10 
REMARK    7  A    between atoms: C_22  and  C_23 
REMARK    8  A    between atoms: C_26  and  N_27 
ROOT
HETATM    1  C   UNL     1      42.214 -16.179   5.098  1.00  0.00     0.085 A 
HETATM    2  C   UNL     1      42.207 -14.793   5.170  1.00  0.00     0.093 A 
HETATM    3  S   UNL     1      43.142 -14.051   3.961  1.00  0.00    -0.082 SA
HETATM    4  C   UNL     1      43.630 -15.554   3.334  1.00  0.00     0.065 A 
HETATM    5  C   UNL     1      43.083 -16.620   4.026  1.00  0.00    -0.000 A 
ENDROOT
BRANCH   2   6
HETATM    6  N   UNL     1      41.467 -13.998   6.041  1.00  0.00    -0.319 N 
HETATM    7  C   UNL     1      40.321 -13.342   5.654  1.00  0.00     0.248 C 
HETATM    8  O   UNL     1      39.924 -13.204   4.499  1.00  0.00    -0.271 OA
HETATM    9  H   UNL     1      42.003 -13.642   6.839  1.00  0.00     0.169 HD
BRANCH   7  10
HETATM   10  C   UNL     1      39.495 -12.760   6.796  1.00  0.00     0.337 C 
BRANCH  10  11
HETATM   11  N   UNL     1      39.792 -11.265   7.131  1.00  0.00    -0.060 N 
HETATM   12  H   UNL     1      39.186 -10.783   6.448  1.00  0.00     0.280 HD
HETATM   13  C   UNL     1      41.201 -10.791   6.796  1.00  0.00     0.263 C 
HETATM   14  C   UNL     1      42.225 -10.900   7.953  1.00  0.00     0.262 C 
HETATM   15  N   UNL     1      41.692 -10.352   9.271  1.00  0.00    -0.072 N 
HETATM   16  H   UNL     1      41.655  -9.324   9.206  1.00  0.00     0.279 HD
HETATM   17  C   UNL     1      42.676 -10.647  10.392  1.00  0.00     0.269 C 
HETATM   18  C   UNL     1      40.307 -10.862   9.649  1.00  0.00     0.262 C 
HETATM   19  C   UNL     1      39.288 -10.780   8.484  1.00  0.00     0.263 C 
ENDBRANCH  10  11
ENDBRANCH   7  10
ENDBRANCH   2   6
BRANCH   1  20
HETATM   20  C   UNL     1      41.461 -16.982   6.066  1.00  0.00     0.297 C 
HETATM   21  O   UNL     1      40.255 -16.809   6.230  1.00  0.00    -0.259 OA
BRANCH  20  22
HETATM   22  O   UNL     1      42.228 -17.854   6.765  1.00  0.00    -0.318 OA
BRANCH  22  23
HETATM   23  C   UNL     1      43.117 -17.308   7.753  1.00  0.00     0.174 C 
HETATM   24  C   UNL     1      44.165 -18.344   8.105  1.00  0.00     0.034 C 
ENDBRANCH  22  23
ENDBRANCH  20  22
ENDBRANCH   1  20
BRANCH   5  25
HETATM   25  C   UNL     1      43.416 -17.973   3.600  1.00  0.00    -0.024 A 
HETATM   26  C   UNL     1      42.841 -18.497   2.432  1.00  0.00     0.015 A 
HETATM   27  C   UNL     1      43.118 -19.807   2.034  1.00  0.00     0.037 A 
HETATM   28  C   UNL     1      43.980 -20.595   2.806  1.00  0.00     0.102 A 
HETATM   29  C   UNL     1      44.564 -20.079   3.972  1.00  0.00     0.037 A 
HETATM   30  C   UNL     1      44.276 -18.769   4.369  1.00  0.00     0.015 A 
BRANCH  28  31
HETATM   31  N   UNL     1      44.270 -21.974   2.393  1.00  0.00    -0.116 N 
HETATM   32  O   UNL     1      44.571 -22.784   3.280  1.00  0.00    -0.532 OA
HETATM   33  O   UNL     1      44.191 -22.237   1.186  1.00  0.00    -0.532 OA
ENDBRANCH  28  31
ENDBRANCH   5  25
TORSDOF 8
ENDMDL
MODEL 2
REMARK VINA RESULT:      -8.1      0.992      1.801
REMARK  8 active torsions:
REMARK  status: ('A' for Active; 'I' for Inactive)
REMARK    1  A    between atoms: C_2  and  O_3 
REMARK    2  A    between atoms: O_3  and  C_4 
REMARK    3  A    between atoms: C_4  and  C_5 
REMARK    4  A    between atoms: C_6  and  N_7 
REMARK       I    between atoms: N_7  and  C_8 
REMARK    5  A    between atoms: C_8  and  C_9 
REMARK    6  A    between atoms: C_9  and  N_10 
REMARK    7  A    between atoms: C_22  and  C_23 
REMARK    8  A    between atoms: C_26  and  N_27 
ROOT
HETATM    1  C   UNL     1      42.325 -16.127   4.859  1.00  0.00     0.085 A 
HETATM    2  C   UNL     1      42.305 -14.739   4.863  1.00  0.00     0.093 A 
HETATM    3  S   UNL     1      43.147 -14.048   3.558  1.00  0.00    -0.082 SA
HETATM    4  C   UNL     1      43.611 -15.576   2.975  1.00  0.00     0.065 A 
HETATM    5  C   UNL     1      43.126 -16.612   3.753  1.00  0.00    -0.000 A 
ENDROOT
BRANCH   2   6
HETATM    6  N   UNL     1      41.615 -13.909   5.743  1.00  0.00    -0.319 N 
HETATM    7  C   UNL     1      40.354 -13.427   5.473  1.00  0.00     0.248 C 
HETATM    8  O   UNL     1      39.775 -13.488   4.390  1.00  0.00    -0.271 OA
HETATM    9  H   UNL     1      42.218 -13.396   6.393  1.00  0.00     0.169 HD
BRANCH   7  10
HETATM   10  C   UNL     1      39.645 -12.778   6.656  1.00  0.00     0.337 C 
BRANCH  10  11
HETATM   11  N   UNL     1      40.455 -11.658   7.378  1.00  0.00    -0.060 N 
HETATM   12  H   UNL     1      41.308 -12.172   7.653  1.00  0.00     0.280 HD
HETATM   13  C   UNL     1      39.861 -11.171   8.694  1.00  0.00     0.263 C 
HETATM   14  C   UNL     1      38.920  -9.945   8.579  1.00  0.00     0.262 C 
HETATM   15  N   UNL     1      39.502  -8.829   7.721  1.00  0.00    -0.072 N 
HETATM   16  H   UNL     1      40.265  -8.378   8.246  1.00  0.00     0.279 HD
HETATM   17  C   UNL     1      38.463  -7.740   7.510  1.00  0.00     0.269 C 
HETATM   18  C   UNL     1      40.049  -9.292   6.376  1.00  0.00     0.262 C 
HETATM   19  C   UNL     1      40.968 -10.535   6.485  1.00  0.00     0.263 C 
ENDBRANCH  10  11
ENDBRANCH   7  10
ENDBRANCH   2   6
BRANCH   1  20
HETATM   20  C   UNL     1      41.649 -16.888   5.914  1.00  0.00     0.297 C 
HETATM   21  O   UNL     1      40.736 -17.667   5.647  1.00  0.00    -0.259 OA
BRANCH  20  22
HETATM   22  O   UNL     1      42.090 -16.599   7.163  1.00  0.00    -0.318 OA
BRANCH  22  23
HETATM   23  C   UNL     1      43.444 -16.954   7.485  1.00  0.00     0.174 C 
HETATM   24  C   UNL     1      43.526 -18.451   7.704  1.00  0.00     0.034 C 
ENDBRANCH  22  23
ENDBRANCH  20  22
ENDBRANCH   1  20
BRANCH   5  25
HETATM   25  C   UNL     1      43.448 -17.981   3.373  1.00  0.00    -0.024 A 
HETATM   26  C   UNL     1      42.872 -18.537   2.220  1.00  0.00     0.015 A 
HETATM   27  C   UNL     1      43.138 -19.861   1.865  1.00  0.00     0.037 A 
HETATM   28  C   UNL     1      43.989 -20.632   2.666  1.00  0.00     0.102 A 
HETATM   29  C   UNL     1      44.573 -20.085   3.818  1.00  0.00     0.037 A 
HETATM   30  C   UNL     1      44.296 -18.760   4.172  1.00  0.00     0.015 A 
BRANCH  28  31
HETATM   31  N   UNL     1      44.267 -22.026   2.300  1.00  0.00    -0.116 N 
HETATM   32  O   UNL     1      44.137 -22.341   1.109  1.00  0.00    -0.532 OA
HETATM   33  O   UNL     1      44.614 -22.797   3.204  1.00  0.00    -0.532 OA
ENDBRANCH  28  31
ENDBRANCH   5  25
TORSDOF 8
ENDMDL
MODEL 3
REMARK VINA RESULT:      -7.7      1.948      3.105
REMARK  8 active torsions:
REMARK  status: ('A' for Active; 'I' for Inactive)
REMARK    1  A    between atoms: C_2  and  O_3 
REMARK    2  A    between atoms: O_3  and  C_4 
REMARK    3  A    between atoms: C_4  and  C_5 
REMARK    4  A    between atoms: C_6  and  N_7 
REMARK       I    between atoms: N_7  and  C_8 
REMARK    5  A    between atoms: C_8  and  C_9 
REMARK    6  A    between atoms: C_9  and  N_10 
REMARK    7  A    between atoms: C_22  and  C_23 
REMARK    8  A    between atoms: C_26  and  N_27 
ROOT
HETATM    1  C   UNL     1      42.990 -16.027   4.613  1.00  0.00     0.085 A 
HETATM    2  C   UNL     1      43.047 -15.064   5.611  1.00  0.00     0.093 A 
HETATM    3  S   UNL     1      43.937 -15.556   6.972  1.00  0.00    -0.082 SA
HETATM    4  C   UNL     1      44.230 -17.089   6.298  1.00  0.00     0.065 A 
HETATM    5  C   UNL     1      43.668 -17.233   5.041  1.00  0.00    -0.000 A 
ENDROOT
BRANCH   2   6
HETATM    6  N   UNL     1      42.546 -13.766   5.559  1.00  0.00    -0.319 N 
HETATM    7  C   UNL     1      41.241 -13.462   5.875  1.00  0.00     0.248 C 
HETATM    8  O   UNL     1      40.331 -14.272   6.038  1.00  0.00    -0.271 OA
HETATM    9  H   UNL     1      43.070 -13.141   4.940  1.00  0.00     0.169 HD
BRANCH   7  10
HETATM   10  C   UNL     1      40.948 -11.975   6.039  1.00  0.00     0.337 C 
BRANCH  10  11
HETATM   11  N   UNL     1      40.945 -11.461   7.512  1.00  0.00    -0.060 N 
HETATM   12  H   UNL     1      41.292 -12.293   8.016  1.00  0.00     0.280 HD
HETATM   13  C   UNL     1      39.567 -11.200   8.108  1.00  0.00     0.263 C 
HETATM   14  C   UNL     1      39.050  -9.747   7.958  1.00  0.00     0.262 C 
HETATM   15  N   UNL     1      40.091  -8.703   8.345  1.00  0.00    -0.072 N 
HETATM   16  H   UNL     1      40.199  -8.715   9.369  1.00  0.00     0.279 HD
HETATM   17  C   UNL     1      39.579  -7.311   8.012  1.00  0.00     0.269 C 
HETATM   18  C   UNL     1      41.460  -8.919   7.712  1.00  0.00     0.262 C 
HETATM   19  C   UNL     1      41.967 -10.378   7.834  1.00  0.00     0.263 C 
ENDBRANCH  10  11
ENDBRANCH   7  10
ENDBRANCH   2   6
BRANCH   1  20
HETATM   20  C   UNL     1      42.261 -15.771   3.367  1.00  0.00     0.297 C 
HETATM   21  O   UNL     1      42.773 -15.125   2.455  1.00  0.00    -0.259 OA
BRANCH  20  22
HETATM   22  O   UNL     1      40.995 -16.257   3.366  1.00  0.00    -0.318 OA
BRANCH  22  23
HETATM   23  C   UNL     1      40.347 -16.411   2.093  1.00  0.00     0.174 C 
HETATM   24  C   UNL     1      39.226 -15.398   1.980  1.00  0.00     0.034 C 
ENDBRANCH  22  23
ENDBRANCH  20  22
ENDBRANCH   1  20
BRANCH   5  25
HETATM   25  C   UNL     1      43.837 -18.500   4.342  1.00  0.00    -0.024 A 
HETATM   26  C   UNL     1      44.383 -19.601   5.019  1.00  0.00     0.015 A 
HETATM   27  C   UNL     1      44.590 -20.810   4.352  1.00  0.00     0.037 A 
HETATM   28  C   UNL     1      44.242 -20.920   2.999  1.00  0.00     0.102 A 
HETATM   29  C   UNL     1      43.692 -19.826   2.315  1.00  0.00     0.037 A 
HETATM   30  C   UNL     1      43.495 -18.616   2.988  1.00  0.00     0.015 A 
BRANCH  28  31
HETATM   31  N   UNL     1      44.463 -22.187   2.292  1.00  0.00    -0.116 N 
HETATM   32  O   UNL     1      44.927 -23.132   2.945  1.00  0.00    -0.532 OA
HETATM   33  O   UNL     1      44.169 -22.230   1.090  1.00  0.00    -0.532 OA
ENDBRANCH  28  31
ENDBRANCH   5  25
TORSDOF 8
ENDMDL
MODEL 4
REMARK VINA RESULT:      -7.6      2.510      4.030
REMARK  8 active torsions:
REMARK  status: ('A' for Active; 'I' for Inactive)
REMARK    1  A    between atoms: C_2  and  O_3 
REMARK    2  A    between atoms: O_3  and  C_4 
REMARK    3  A    between atoms: C_4  and  C_5 
REMARK    4  A    between atoms: C_6  and  N_7 
REMARK       I    between atoms: N_7  and  C_8 
REMARK    5  A    between atoms: C_8  and  C_9 
REMARK    6  A    between atoms: C_9  and  N_10 
REMARK    7  A    between atoms: C_22  and  C_23 
REMARK    8  A    between atoms: C_26  and  N_27 
ROOT
HETATM    1  C   UNL     1      42.822 -16.247   4.877  1.00  0.00     0.085 A 
HETATM    2  C   UNL     1      42.906 -15.247   5.837  1.00  0.00     0.093 A 
HETATM    3  S   UNL     1      44.084 -15.550   7.024  1.00  0.00    -0.082 SA
HETATM    4  C   UNL     1      44.482 -17.049   6.329  1.00  0.00     0.065 A 
HETATM    5  C   UNL     1      43.739 -17.323   5.194  1.00  0.00    -0.000 A 
ENDROOT
BRANCH   2   6
HETATM    6  N   UNL     1      42.214 -14.040   5.858  1.00  0.00    -0.319 N 
HETATM    7  C   UNL     1      42.428 -13.045   4.932  1.00  0.00     0.248 C 
HETATM    8  O   UNL     1      43.354 -12.998   4.124  1.00  0.00    -0.271 OA
HETATM    9  H   UNL     1      41.831 -13.795   6.777  1.00  0.00     0.169 HD
BRANCH   7  10
HETATM   10  C   UNL     1      41.392 -11.926   4.936  1.00  0.00     0.337 C 
BRANCH  10  11
HETATM   11  N   UNL     1      39.912 -12.395   4.793  1.00  0.00    -0.060 N 
HETATM   12  H   UNL     1      39.859 -13.119   5.528  1.00  0.00     0.280 HD
HETATM   13  C   UNL     1      39.586 -13.136   3.502  1.00  0.00     0.263 C 
HETATM   14  C   UNL     1      39.059 -12.247   2.347  1.00  0.00     0.262 C 
HETATM   15  N   UNL     1      37.966 -11.283   2.792  1.00  0.00    -0.072 N 
HETATM   16  H   UNL     1      37.106 -11.824   2.964  1.00  0.00     0.279 HD
HETATM   17  C   UNL     1      37.620 -10.331   1.658  1.00  0.00     0.269 C 
HETATM   18  C   UNL     1      38.300 -10.493   4.051  1.00  0.00     0.262 C 
HETATM   19  C   UNL     1      38.854 -11.376   5.197  1.00  0.00     0.263 C 
ENDBRANCH  10  11
ENDBRANCH   7  10
ENDBRANCH   2   6
BRANCH   1  20
HETATM   20  C   UNL     1      41.857 -16.149   3.778  1.00  0.00     0.297 C 
HETATM   21  O   UNL     1      40.684 -16.481   3.934  1.00  0.00    -0.259 OA
BRANCH  20  22
HETATM   22  O   UNL     1      42.401 -15.728   2.610  1.00  0.00    -0.318 OA
BRANCH  22  23
HETATM   23  C   UNL     1      41.529 -15.624   1.474  1.00  0.00     0.174 C 
HETATM   24  C   UNL     1      41.712 -16.845   0.594  1.00  0.00     0.034 C 
ENDBRANCH  22  23
ENDBRANCH  20  22
ENDBRANCH   1  20
BRANCH   5  25
HETATM   25  C   UNL     1      43.972 -18.578   4.492  1.00  0.00    -0.024 A 
HETATM   26  C   UNL     1      43.618 -18.695   3.139  1.00  0.00     0.015 A 
HETATM   27  C   UNL     1      43.797 -19.904   2.464  1.00  0.00     0.037 A 
HETATM   28  C   UNL     1      44.339 -21.001   3.145  1.00  0.00     0.102 A 
HETATM   29  C   UNL     1      44.700 -20.893   4.496  1.00  0.00     0.037 A 
HETATM   30  C   UNL     1      44.511 -19.681   5.168  1.00  0.00     0.015 A 
BRANCH  28  31
HETATM   31  N   UNL     1      44.524 -22.276   2.440  1.00  0.00    -0.116 N 
HETATM   32  O   UNL     1      44.282 -22.297   1.225  1.00  0.00    -0.532 OA
HETATM   33  O   UNL     1      44.910 -23.246   3.105  1.00  0.00    -0.532 OA
ENDBRANCH  28  31
ENDBRANCH   5  25
TORSDOF 8
ENDMDL
MODEL 5
REMARK VINA RESULT:      -7.5      2.525      4.012
REMARK  8 active torsions:
REMARK  status: ('A' for Active; 'I' for Inactive)
REMARK    1  A    between atoms: C_2  and  O_3 
REMARK    2  A    between atoms: O_3  and  C_4 
REMARK    3  A    between atoms: C_4  and  C_5 
REMARK    4  A    between atoms: C_6  and  N_7 
REMARK       I    between atoms: N_7  and  C_8 
REMARK    5  A    between atoms: C_8  and  C_9 
REMARK    6  A    between atoms: C_9  and  N_10 
REMARK    7  A    between atoms: C_22  and  C_23 
REMARK    8  A    between atoms: C_26  and  N_27 
ROOT
HETATM    1  C   UNL     1      43.191 -15.886   4.544  1.00  0.00     0.085 A 
HETATM    2  C   UNL     1      43.271 -14.894   5.512  1.00  0.00     0.093 A 
HETATM    3  S   UNL     1      44.103 -15.383   6.911  1.00  0.00    -0.082 SA
HETATM    4  C   UNL     1      44.337 -16.950   6.294  1.00  0.00     0.065 A 
HETATM    5  C   UNL     1      43.800 -17.108   5.028  1.00  0.00    -0.000 A 
ENDROOT
BRANCH   2   6
HETATM    6  N   UNL     1      42.834 -13.576   5.407  1.00  0.00    -0.319 N 
HETATM    7  C   UNL     1      41.549 -13.193   5.718  1.00  0.00     0.248 C 
HETATM    8  O   UNL     1      40.601 -13.949   5.924  1.00  0.00    -0.271 OA
HETATM    9  H   UNL     1      43.383 -13.006   4.756  1.00  0.00     0.169 HD
BRANCH   7  10
HETATM   10  C   UNL     1      41.332 -11.688   5.819  1.00  0.00     0.337 C 
BRANCH  10  11
HETATM   11  N   UNL     1      41.459 -10.911   4.472  1.00  0.00    -0.060 N 
HETATM   12  H   UNL     1      42.483 -10.912   4.335  1.00  0.00     0.280 HD
HETATM   13  C   UNL     1      41.084  -9.435   4.535  1.00  0.00     0.263 C 
HETATM   14  C   UNL     1      39.608  -9.115   4.187  1.00  0.00     0.262 C 
HETATM   15  N   UNL     1      39.132  -9.815   2.920  1.00  0.00    -0.072 N 
HETATM   16  H   UNL     1      39.574  -9.357   2.110  1.00  0.00     0.279 HD
HETATM   17  C   UNL     1      37.638  -9.597   2.736  1.00  0.00     0.269 C 
HETATM   18  C   UNL     1      39.450 -11.304   2.868  1.00  0.00     0.262 C 
HETATM   19  C   UNL     1      40.917 -11.628   3.242  1.00  0.00     0.263 C 
ENDBRANCH  10  11
ENDBRANCH   7  10
ENDBRANCH   2   6
BRANCH   1  20
HETATM   20  C   UNL     1      42.505 -15.637   3.273  1.00  0.00     0.297 C 
HETATM   21  O   UNL     1      43.085 -15.091   2.337  1.00  0.00    -0.259 OA
BRANCH  20  22
HETATM   22  O   UNL     1      41.201 -16.008   3.274  1.00  0.00    -0.318 OA
BRANCH  22  23
HETATM   23  C   UNL     1      40.568 -16.206   2.000  1.00  0.00     0.174 C 
HETATM   24  C   UNL     1      39.355 -15.304   1.902  1.00  0.00     0.034 C 
ENDBRANCH  22  23
ENDBRANCH  20  22
ENDBRANCH   1  20
BRANCH   5  25
HETATM   25  C   UNL     1      43.923 -18.404   4.374  1.00  0.00    -0.024 A 
HETATM   26  C   UNL     1      44.603 -19.448   5.021  1.00  0.00     0.015 A 
HETATM   27  C   UNL     1      44.766 -20.683   4.390  1.00  0.00     0.037 A 
HETATM   28  C   UNL     1      44.241 -20.876   3.106  1.00  0.00     0.102 A 
HETATM   29  C   UNL     1      43.557 -19.841   2.453  1.00  0.00     0.037 A 
HETATM   30  C   UNL     1      43.404 -18.604   3.088  1.00  0.00     0.015 A 
BRANCH  28  31
HETATM   31  N   UNL     1      44.416 -22.171   2.437  1.00  0.00    -0.116 N 
HETATM   32  O   UNL     1      44.801 -23.124   3.128  1.00  0.00    -0.532 OA
HETATM   33  O   UNL     1      44.165 -22.227   1.226  1.00  0.00    -0.532 OA
ENDBRANCH  28  31
ENDBRANCH   5  25
TORSDOF 8
ENDMDL
MODEL 6
REMARK VINA RESULT:      -7.4      1.639      2.100
REMARK  8 active torsions:
REMARK  status: ('A' for Active; 'I' for Inactive)
REMARK    1  A    between atoms: C_2  and  O_3 
REMARK    2  A    between atoms: O_3  and  C_4 
REMARK    3  A    between atoms: C_4  and  C_5 
REMARK    4  A    between atoms: C_6  and  N_7 
REMARK       I    between atoms: N_7  and  C_8 
REMARK    5  A    between atoms: C_8  and  C_9 
REMARK    6  A    between atoms: C_9  and  N_10 
REMARK    7  A    between atoms: C_22  and  C_23 
REMARK    8  A    between atoms: C_26  and  N_27 
ROOT
HETATM    1  C   UNL     1      42.988 -15.486   4.325  1.00  0.00     0.085 A 
HETATM    2  C   UNL     1      42.698 -14.185   3.940  1.00  0.00     0.093 A 
HETATM    3  S   UNL     1      42.476 -14.010   2.264  1.00  0.00    -0.082 SA
HETATM    4  C   UNL     1      42.814 -15.654   1.990  1.00  0.00     0.065 A 
HETATM    5  C   UNL     1      43.083 -16.343   3.160  1.00  0.00    -0.000 A 
ENDROOT
BRANCH   2   6
HETATM    6  N   UNL     1      42.491 -13.087   4.771  1.00  0.00    -0.319 N 
HETATM    7  C   UNL     1      41.272 -12.812   5.348  1.00  0.00     0.248 C 
HETATM    8  O   UNL     1      40.202 -13.348   5.064  1.00  0.00    -0.271 OA
HETATM    9  H   UNL     1      43.161 -12.325   4.630  1.00  0.00     0.169 HD
BRANCH   7  10
HETATM   10  C   UNL     1      41.301 -11.750   6.441  1.00  0.00     0.337 C 
BRANCH  10  11
HETATM   11  N   UNL     1      39.904 -11.200   6.865  1.00  0.00    -0.060 N 
HETATM   12  H   UNL     1      39.295 -11.622   6.146  1.00  0.00     0.280 HD
HETATM   13  C   UNL     1      39.717  -9.698   6.693  1.00  0.00     0.263 C 
HETATM   14  C   UNL     1      40.054  -8.844   7.942  1.00  0.00     0.262 C 
HETATM   15  N   UNL     1      39.436  -9.395   9.221  1.00  0.00    -0.072 N 
HETATM   16  H   UNL     1      38.421  -9.220   9.195  1.00  0.00     0.279 HD
HETATM   17  C   UNL     1      39.946  -8.615  10.422  1.00  0.00     0.269 C 
HETATM   18  C   UNL     1      39.663 -10.886   9.437  1.00  0.00     0.262 C 
HETATM   19  C   UNL     1      39.355 -11.739   8.180  1.00  0.00     0.263 C 
ENDBRANCH  10  11
ENDBRANCH   7  10
ENDBRANCH   2   6
BRANCH   1  20
HETATM   20  C   UNL     1      43.211 -15.818   5.735  1.00  0.00     0.297 C 
HETATM   21  O   UNL     1      42.375 -16.450   6.377  1.00  0.00    -0.259 OA
BRANCH  20  22
HETATM   22  O   UNL     1      44.366 -15.316   6.237  1.00  0.00    -0.318 OA
BRANCH  22  23
HETATM   23  C   UNL     1      44.277 -14.512   7.424  1.00  0.00     0.174 C 
HETATM   24  C   UNL     1      45.342 -13.435   7.376  1.00  0.00     0.034 C 
ENDBRANCH  22  23
ENDBRANCH  20  22
ENDBRANCH   1  20
BRANCH   5  25
HETATM   25  C   UNL     1      43.393 -17.764   3.078  1.00  0.00    -0.024 A 
HETATM   26  C   UNL     1      44.088 -18.387   4.126  1.00  0.00     0.015 A 
HETATM   27  C   UNL     1      44.429 -19.738   4.044  1.00  0.00     0.037 A 
HETATM   28  C   UNL     1      44.066 -20.473   2.908  1.00  0.00     0.102 A 
HETATM   29  C   UNL     1      43.368 -19.861   1.857  1.00  0.00     0.037 A 
HETATM   30  C   UNL     1      43.037 -18.505   1.943  1.00  0.00     0.015 A 
BRANCH  28  31
HETATM   31  N   UNL     1      44.428 -21.893   2.815  1.00  0.00    -0.116 N 
HETATM   32  O   UNL     1      44.643 -22.498   3.874  1.00  0.00    -0.532 OA
HETATM   33  O   UNL     1      44.492 -22.393   1.684  1.00  0.00    -0.532 OA
ENDBRANCH  28  31
ENDBRANCH   5  25
TORSDOF 8
ENDMDL
MODEL 7
REMARK VINA RESULT:      -7.3      3.495      5.000
REMARK  8 active torsions:
REMARK  status: ('A' for Active; 'I' for Inactive)
REMARK    1  A    between atoms: C_2  and  O_3 
REMARK    2  A    between atoms: O_3  and  C_4 
REMARK    3  A    between atoms: C_4  and  C_5 
REMARK    4  A    between atoms: C_6  and  N_7 
REMARK       I    between atoms: N_7  and  C_8 
REMARK    5  A    between atoms: C_8  and  C_9 
REMARK    6  A    between atoms: C_9  and  N_10 
REMARK    7  A    between atoms: C_22  and  C_23 
REMARK    8  A    between atoms: C_26  and  N_27 
ROOT
HETATM    1  C   UNL     1      41.977 -15.935   3.095  1.00  0.00     0.085 A 
HETATM    2  C   UNL     1      41.878 -14.727   3.772  1.00  0.00     0.093 A 
HETATM    3  S   UNL     1      42.945 -14.603   5.089  1.00  0.00    -0.082 SA
HETATM    4  C   UNL     1      43.535 -16.177   4.834  1.00  0.00     0.065 A 
HETATM    5  C   UNL     1      42.940 -16.798   3.750  1.00  0.00    -0.000 A 
ENDROOT
BRANCH   2   6
HETATM    6  N   UNL     1      41.091 -13.631   3.428  1.00  0.00    -0.319 N 
HETATM    7  C   UNL     1      41.471 -12.716   2.473  1.00  0.00     0.248 C 
HETATM    8  O   UNL     1      42.586 -12.625   1.965  1.00  0.00    -0.271 OA
HETATM    9  H   UNL     1      40.428 -13.350   4.157  1.00  0.00     0.169 HD
BRANCH   7  10
HETATM   10  C   UNL     1      40.373 -11.757   2.028  1.00  0.00     0.337 C 
BRANCH  10  11
HETATM   11  N   UNL     1      38.951 -12.076   2.584  1.00  0.00    -0.060 N 
HETATM   12  H   UNL     1      39.117 -12.981   3.053  1.00  0.00     0.280 HD
HETATM   13  C   UNL     1      37.893 -12.379   1.530  1.00  0.00     0.263 C 
HETATM   14  C   UNL     1      37.063 -11.158   1.059  1.00  0.00     0.262 C 
HETATM   15  N   UNL     1      36.549 -10.309   2.214  1.00  0.00    -0.072 N 
HETATM   16  H   UNL     1      35.793 -10.825   2.688  1.00  0.00     0.279 HD
HETATM   17  C   UNL     1      35.896  -9.044   1.679  1.00  0.00     0.269 C 
HETATM   18  C   UNL     1      37.608  -9.949   3.249  1.00  0.00     0.262 C 
HETATM   19  C   UNL     1      38.459 -11.163   3.700  1.00  0.00     0.263 C 
ENDBRANCH  10  11
ENDBRANCH   7  10
ENDBRANCH   2   6
BRANCH   1  20
HETATM   20  C   UNL     1      41.129 -16.214   1.933  1.00  0.00     0.297 C 
HETATM   21  O   UNL     1      40.110 -16.893   2.041  1.00  0.00    -0.259 OA
BRANCH  20  22
HETATM   22  O   UNL     1      41.611 -15.707   0.772  1.00  0.00    -0.318 OA
BRANCH  22  23
HETATM   23  C   UNL     1      40.692 -14.993  -0.070  1.00  0.00     0.174 C 
HETATM   24  C   UNL     1      41.019 -15.283  -1.521  1.00  0.00     0.034 C 
ENDBRANCH  22  23
ENDBRANCH  20  22
ENDBRANCH   1  20
BRANCH   5  25
HETATM   25  C   UNL     1      43.347 -18.155   3.413  1.00  0.00    -0.024 A 
HETATM   26  C   UNL     1      43.017 -18.690   2.157  1.00  0.00     0.015 A 
HETATM   27  C   UNL     1      43.364 -20.004   1.835  1.00  0.00     0.037 A 
HETATM   28  C   UNL     1      44.051 -20.785   2.772  1.00  0.00     0.102 A 
HETATM   29  C   UNL     1      44.389 -20.260   4.027  1.00  0.00     0.037 A 
HETATM   30  C   UNL     1      44.032 -18.945   4.346  1.00  0.00     0.015 A 
BRANCH  28  31
HETATM   31  N   UNL     1      44.412 -22.169   2.439  1.00  0.00    -0.116 N 
HETATM   32  O   UNL     1      44.387 -22.494   1.244  1.00  0.00    -0.532 OA
HETATM   33  O   UNL     1      44.721 -22.920   3.373  1.00  0.00    -0.532 OA
ENDBRANCH  28  31
ENDBRANCH   5  25
TORSDOF 8
ENDMDL
MODEL 8
REMARK VINA RESULT:      -7.2      1.967      2.551
REMARK  8 active torsions:
REMARK  status: ('A' for Active; 'I' for Inactive)
REMARK    1  A    between atoms: C_2  and  O_3 
REMARK    2  A    between atoms: O_3  and  C_4 
REMARK    3  A    between atoms: C_4  and  C_5 
REMARK    4  A    between atoms: C_6  and  N_7 
REMARK       I    between atoms: N_7  and  C_8 
REMARK    5  A    between atoms: C_8  and  C_9 
REMARK    6  A    between atoms: C_9  and  N_10 
REMARK    7  A    between atoms: C_22  and  C_23 
REMARK    8  A    between atoms: C_26  and  N_27 
ROOT
HETATM    1  C   UNL     1      42.285 -16.008   3.273  1.00  0.00     0.085 A 
HETATM    2  C   UNL     1      41.897 -14.921   2.502  1.00  0.00     0.093 A 
HETATM    3  S   UNL     1      42.091 -15.176   0.833  1.00  0.00    -0.082 SA
HETATM    4  C   UNL     1      42.750 -16.722   1.087  1.00  0.00     0.065 A 
HETATM    5  C   UNL     1      42.816 -17.058   2.428  1.00  0.00    -0.000 A 
ENDROOT
BRANCH   2   6
HETATM    6  N   UNL     1      41.307 -13.741   2.946  1.00  0.00    -0.319 N 
HETATM    7  C   UNL     1      39.945 -13.600   3.087  1.00  0.00     0.248 C 
HETATM    8  O   UNL     1      39.092 -14.380   2.670  1.00  0.00    -0.271 OA
HETATM    9  H   UNL     1      41.885 -12.907   2.804  1.00  0.00     0.169 HD
BRANCH   7  10
HETATM   10  C   UNL     1      39.502 -12.355   3.847  1.00  0.00     0.337 C 
BRANCH  10  11
HETATM   11  N   UNL     1      40.581 -11.736   4.788  1.00  0.00    -0.060 N 
HETATM   12  H   UNL     1      41.450 -12.091   4.358  1.00  0.00     0.280 HD
HETATM   13  C   UNL     1      40.602 -12.290   6.207  1.00  0.00     0.263 C 
HETATM   14  C   UNL     1      39.747 -11.506   7.234  1.00  0.00     0.262 C 
HETATM   15  N   UNL     1      39.967 -10.000   7.163  1.00  0.00    -0.072 N 
HETATM   16  H   UNL     1      40.896  -9.788   7.555  1.00  0.00     0.279 HD
HETATM   17  C   UNL     1      38.977  -9.287   8.070  1.00  0.00     0.269 C 
HETATM   18  C   UNL     1      39.892  -9.421   5.756  1.00  0.00     0.262 C 
HETATM   19  C   UNL     1      40.724 -10.220   4.721  1.00  0.00     0.263 C 
ENDBRANCH  10  11
ENDBRANCH   7  10
ENDBRANCH   2   6
BRANCH   1  20
HETATM   20  C   UNL     1      42.187 -15.961   4.735  1.00  0.00     0.297 C 
HETATM   21  O   UNL     1      41.339 -16.619   5.334  1.00  0.00    -0.259 OA
BRANCH  20  22
HETATM   22  O   UNL     1      43.061 -15.101   5.314  1.00  0.00    -0.318 OA
BRANCH  22  23
HETATM   23  C   UNL     1      43.869 -15.604   6.390  1.00  0.00     0.174 C 
HETATM   24  C   UNL     1      44.557 -14.443   7.079  1.00  0.00     0.034 C 
ENDBRANCH  22  23
ENDBRANCH  20  22
ENDBRANCH   1  20
BRANCH   5  25
HETATM   25  C   UNL     1      43.363 -18.357   2.796  1.00  0.00    -0.024 A 
HETATM   26  C   UNL     1      43.204 -19.450   1.930  1.00  0.00     0.015 A 
HETATM   27  C   UNL     1      43.686 -20.711   2.288  1.00  0.00     0.037 A 
HETATM   28  C   UNL     1      44.336 -20.878   3.517  1.00  0.00     0.102 A 
HETATM   29  C   UNL     1      44.503 -19.791   4.388  1.00  0.00     0.037 A 
HETATM   30  C   UNL     1      44.012 -18.533   4.026  1.00  0.00     0.015 A 
BRANCH  28  31
HETATM   31  N   UNL     1      44.839 -22.203   3.899  1.00  0.00    -0.116 N 
HETATM   32  O   UNL     1      45.256 -22.344   5.057  1.00  0.00    -0.532 OA
HETATM   33  O   UNL     1      44.812 -23.094   3.040  1.00  0.00    -0.532 OA
ENDBRANCH  28  31
ENDBRANCH   5  25
TORSDOF 8
ENDMDL
MODEL 9
REMARK VINA RESULT:      -7.1      5.016      7.747
REMARK  8 active torsions:
REMARK  status: ('A' for Active; 'I' for Inactive)
REMARK    1  A    between atoms: C_2  and  O_3 
REMARK    2  A    between atoms: O_3  and  C_4 
REMARK    3  A    between atoms: C_4  and  C_5 
REMARK    4  A    between atoms: C_6  and  N_7 
REMARK       I    between atoms: N_7  and  C_8 
REMARK    5  A    between atoms: C_8  and  C_9 
REMARK    6  A    between atoms: C_9  and  N_10 
REMARK    7  A    between atoms: C_22  and  C_23 
REMARK    8  A    between atoms: C_26  and  N_27 
ROOT
HETATM    1  C   UNL     1      42.227 -15.074   2.166  1.00  0.00     0.085 A 
HETATM    2  C   UNL     1      41.849 -15.124   0.832  1.00  0.00     0.093 A 
HETATM    3  S   UNL     1      41.440 -16.688   0.306  1.00  0.00    -0.082 SA
HETATM    4  C   UNL     1      41.806 -17.357   1.825  1.00  0.00     0.065 A 
HETATM    5  C   UNL     1      42.226 -16.405   2.737  1.00  0.00    -0.000 A 
ENDROOT
BRANCH   2   6
HETATM    6  N   UNL     1      41.693 -14.051  -0.041  1.00  0.00    -0.319 N 
HETATM    7  C   UNL     1      40.467 -13.490  -0.316  1.00  0.00     0.248 C 
HETATM    8  O   UNL     1      39.373 -13.961  -0.010  1.00  0.00    -0.271 OA
HETATM    9  H   UNL     1      42.453 -13.954  -0.722  1.00  0.00     0.169 HD
BRANCH   7  10
HETATM   10  C   UNL     1      40.519 -12.160  -1.059  1.00  0.00     0.337 C 
BRANCH  10  11
HETATM   11  N   UNL     1      40.344 -12.260  -2.606  1.00  0.00    -0.060 N 
HETATM   12  H   UNL     1      40.687 -11.333  -2.907  1.00  0.00     0.280 HD
HETATM   13  C   UNL     1      38.902 -12.312  -3.096  1.00  0.00     0.263 C 
HETATM   14  C   UNL     1      38.319 -13.736  -3.280  1.00  0.00     0.262 C 
HETATM   15  N   UNL     1      39.256 -14.667  -4.038  1.00  0.00    -0.072 N 
HETATM   16  H   UNL     1      39.265 -14.384  -5.029  1.00  0.00     0.279 HD
HETATM   17  C   UNL     1      38.701 -16.082  -4.031  1.00  0.00     0.269 C 
HETATM   18  C   UNL     1      40.690 -14.669  -3.524  1.00  0.00     0.262 C 
HETATM   19  C   UNL     1      41.266 -13.246  -3.312  1.00  0.00     0.263 C 
ENDBRANCH  10  11
ENDBRANCH   7  10
ENDBRANCH   2   6
BRANCH   1  20
HETATM   20  C   UNL     1      42.614 -13.803   2.787  1.00  0.00     0.297 C 
HETATM   21  O   UNL     1      43.767 -13.611   3.169  1.00  0.00    -0.259 OA
BRANCH  20  22
HETATM   22  O   UNL     1      41.586 -12.933   2.935  1.00  0.00    -0.318 OA
BRANCH  22  23
HETATM   23  C   UNL     1      41.588 -12.101   4.106  1.00  0.00     0.174 C 
HETATM   24  C   UNL     1      40.938 -12.851   5.250  1.00  0.00     0.034 C 
ENDBRANCH  22  23
ENDBRANCH  20  22
ENDBRANCH   1  20
BRANCH   5  25
HETATM   25  C   UNL     1      42.577 -16.836   4.084  1.00  0.00    -0.024 A 
HETATM   26  C   UNL     1      41.758 -16.477   5.166  1.00  0.00     0.015 A 
HETATM   27  C   UNL     1      42.102 -16.847   6.467  1.00  0.00     0.037 A 
HETATM   28  C   UNL     1      43.271 -17.586   6.688  1.00  0.00     0.102 A 
HETATM   29  C   UNL     1      44.095 -17.953   5.614  1.00  0.00     0.037 A 
HETATM   30  C   UNL     1      43.748 -17.572   4.313  1.00  0.00     0.015 A 
BRANCH  28  31
HETATM   31  N   UNL     1      43.640 -17.971   8.055  1.00  0.00    -0.116 N 
HETATM   32  O   UNL     1      44.047 -19.128   8.233  1.00  0.00    -0.532 OA
HETATM   33  O   UNL     1      43.524 -17.115   8.942  1.00  0.00    -0.532 OA
ENDBRANCH  28  31
ENDBRANCH   5  25
TORSDOF 8
ENDMDL
MODEL 10
REMARK VINA RESULT:      -7.0      2.286      2.952
REMARK  8 active torsions:
REMARK  status: ('A' for Active; 'I' for Inactive)
REMARK    1  A    between atoms: C_2  and  O_3 
REMARK    2  A    between atoms: O_3  and  C_4 
REMARK    3  A    between atoms: C_4  and  C_5 
REMARK    4  A    between atoms: C_6  and  N_7 
REMARK       I    between atoms: N_7  and  C_8 
REMARK    5  A    between atoms: C_8  and  C_9 
REMARK    6  A    between atoms: C_9  and  N_10 
REMARK    7  A    between atoms: C_22  and  C_23 
REMARK    8  A    between atoms: C_26  and  N_27 
ROOT
HETATM    1  C   UNL     1      41.648 -14.688   3.312  1.00  0.00     0.085 A 
HETATM    2  C   UNL     1      40.614 -13.849   2.920  1.00  0.00     0.093 A 
HETATM    3  S   UNL     1      39.372 -14.656   2.087  1.00  0.00    -0.082 SA
HETATM    4  C   UNL     1      40.197 -16.139   2.175  1.00  0.00     0.065 A 
HETATM    5  C   UNL     1      41.406 -16.036   2.840  1.00  0.00    -0.000 A 
ENDROOT
BRANCH   2   6
HETATM    6  N   UNL     1      40.469 -12.496   3.214  1.00  0.00    -0.319 N 
HETATM    7  C   UNL     1      39.824 -12.048   4.345  1.00  0.00     0.248 C 
HETATM    8  O   UNL     1      39.144 -12.733   5.106  1.00  0.00    -0.271 OA
HETATM    9  H   UNL     1      40.530 -11.883   2.396  1.00  0.00     0.169 HD
BRANCH   7  10
HETATM   10  C   UNL     1      40.009 -10.565   4.647  1.00  0.00     0.337 C 
BRANCH  10  11
HETATM   11  N   UNL     1      41.345 -10.198   5.363  1.00  0.00    -0.060 N 
HETATM   12  H   UNL     1      42.039 -10.491   4.656  1.00  0.00     0.280 HD
HETATM   13  C   UNL     1      41.675 -11.035   6.593  1.00  0.00     0.263 C 
HETATM   14  C   UNL     1      41.187 -10.446   7.941  1.00  0.00     0.262 C 
HETATM   15  N   UNL     1      41.521  -8.968   8.098  1.00  0.00    -0.072 N 
HETATM   16  H   UNL     1      42.535  -8.878   8.259  1.00  0.00     0.279 HD
HETATM   17  C   UNL     1      40.867  -8.418   9.355  1.00  0.00     0.269 C 
HETATM   18  C   UNL     1      41.145  -8.108   6.898  1.00  0.00     0.262 C 
HETATM   19  C   UNL     1      41.607  -8.709   5.547  1.00  0.00     0.263 C 
ENDBRANCH  10  11
ENDBRANCH   7  10
ENDBRANCH   2   6
BRANCH   1  20
HETATM   20  C   UNL     1      42.805 -14.159   4.041  1.00  0.00     0.297 C 
HETATM   21  O   UNL     1      43.765 -13.678   3.442  1.00  0.00    -0.259 OA
BRANCH  20  22
HETATM   22  O   UNL     1      42.719 -14.312   5.385  1.00  0.00    -0.318 OA
BRANCH  22  23
HETATM   23  C   UNL     1      43.938 -14.221   6.140  1.00  0.00     0.174 C 
HETATM   24  C   UNL     1      44.247 -15.574   6.749  1.00  0.00     0.034 C 
ENDBRANCH  22  23
ENDBRANCH  20  22
ENDBRANCH   1  20
BRANCH   5  25
HETATM   25  C   UNL     1      42.225 -17.232   2.990  1.00  0.00    -0.024 A 
HETATM   26  C   UNL     1      42.430 -17.779   4.266  1.00  0.00     0.015 A 
HETATM   27  C   UNL     1      43.246 -18.901   4.430  1.00  0.00     0.037 A 
HETATM   28  C   UNL     1      43.856 -19.481   3.311  1.00  0.00     0.102 A 
HETATM   29  C   UNL     1      43.653 -18.944   2.031  1.00  0.00     0.037 A 
HETATM   30  C   UNL     1      42.841 -17.816   1.875  1.00  0.00     0.015 A 
BRANCH  28  31
HETATM   31  N   UNL     1      44.719 -20.656   3.481  1.00  0.00    -0.116 N 
HETATM   32  O   UNL     1      44.657 -21.541   2.616  1.00  0.00    -0.532 OA
HETATM   33  O   UNL     1      45.455 -20.686   4.476  1.00  0.00    -0.532 OA
ENDBRANCH  28  31
ENDBRANCH   5  25
TORSDOF 8
ENDMDL
