MODEL 1
REMARK VINA RESULT:      -7.7      0.000      0.000
REMARK  6 active torsions:
REMARK  status: ('A' for Active; 'I' for Inactive)
REMARK    1  A    between atoms: C_2  and  N_3 
REMARK    2  A    between atoms: C_2  and  C_18 
REMARK    3  A    between atoms: N_3  and  C_6 
REMARK    4  A    between atoms: C_6  and  C_7 
REMARK    5  A    between atoms: C_10  and  N_11 
REMARK       I    between atoms: N_11  and  C_12 
REMARK    6  A    between atoms: C_12  and  O_13 
ROOT
HETATM    1  N   UNL     1      41.897 -16.612   5.305  1.00  0.00    -0.061 N 
HETATM    2  H   UNL     1      41.492 -17.521   5.040  1.00  0.00     0.278 HD
HETATM    3  H   UNL     1      41.740 -16.585   6.324  1.00  0.00     0.278 HD
ENDROOT
BRANCH   1   4
HETATM    4  C   UNL     1      43.388 -16.702   5.084  1.00  0.00     0.241 C 
HETATM    5  C   UNL     1      44.118 -16.404   6.392  1.00  0.00     0.047 C 
BRANCH   4   6
HETATM    6  C   UNL     1      43.713 -18.093   4.599  1.00  0.00     0.106 A 
HETATM    7  S   UNL     1      44.399 -19.265   5.636  1.00  0.00    -0.070 SA
HETATM    8  C   UNL     1      44.397 -20.404   4.343  1.00  0.00     0.035 A 
HETATM    9  C   UNL     1      43.885 -19.791   3.196  1.00  0.00     0.075 A 
HETATM   10  C   UNL     1      44.816 -21.744   4.344  1.00  0.00     0.021 A 
HETATM   11  N   UNL     1      43.514 -18.459   3.351  1.00  0.00    -0.243 NA
HETATM   12  C   UNL     1      43.791 -20.544   2.008  1.00  0.00     0.033 A 
HETATM   13  C   UNL     1      44.203 -21.881   2.000  1.00  0.00     0.002 A 
HETATM   14  C   UNL     1      44.709 -22.471   3.154  1.00  0.00     0.002 A 
ENDBRANCH   4   6
ENDBRANCH   1   4
BRANCH   1  15
HETATM   15  C   UNL     1      41.150 -15.532   4.620  1.00  0.00     0.271 C 
BRANCH  15  16
HETATM   16  C   UNL     1      41.254 -15.657   3.126  1.00  0.00    -0.033 A 
HETATM   17  C   UNL     1      40.713 -16.765   2.460  1.00  0.00     0.011 A 
HETATM   18  C   UNL     1      40.822 -16.889   1.069  1.00  0.00     0.030 A 
HETATM   19  C   UNL     1      41.468 -15.912   0.312  1.00  0.00     0.036 A 
HETATM   20  C   UNL     1      42.001 -14.802   0.980  1.00  0.00     0.030 A 
HETATM   21  C   UNL     1      41.902 -14.675   2.370  1.00  0.00     0.011 A 
BRANCH  19  22
HETATM   22  N   UNL     1      41.620 -15.938  -1.083  1.00  0.00    -0.303 N 
HETATM   23  C   UNL     1      40.923 -15.346  -2.104  1.00  0.00     0.364 C 
HETATM   24  O   UNL     1      41.282 -15.512  -3.265  1.00  0.00    -0.238 OA
HETATM   25  H   UNL     1      42.379 -16.494  -1.458  1.00  0.00     0.171 HD
BRANCH  23  26
HETATM   26  O   UNL     1      39.843 -14.616  -1.736  1.00  0.00    -0.309 OA
HETATM   27  C   UNL     1      40.007 -13.206  -1.907  1.00  0.00     0.215 C 
ENDBRANCH  23  26
ENDBRANCH  19  22
ENDBRANCH  15  16
ENDBRANCH   1  15
TORSDOF 6
ENDMDL
MODEL 2
REMARK VINA RESULT:      -7.2      3.610      5.759
REMARK  6 active torsions:
REMARK  status: ('A' for Active; 'I' for Inactive)
REMARK    1  A    between atoms: C_2  and  N_3 
REMARK    2  A    between atoms: C_2  and  C_18 
REMARK    3  A    between atoms: N_3  and  C_6 
REMARK    4  A    between atoms: C_6  and  C_7 
REMARK    5  A    between atoms: C_10  and  N_11 
REMARK       I    between atoms: N_11  and  C_12 
REMARK    6  A    between atoms: C_12  and  O_13 
ROOT
HETATM    1  N   UNL     1      39.938 -16.418   2.028  1.00  0.00    -0.061 N 
HETATM    2  H   UNL     1      38.996 -16.641   1.678  1.00  0.00     0.278 HD
HETATM    3  H   UNL     1      39.947 -16.871   2.955  1.00  0.00     0.278 HD
ENDROOT
BRANCH   1   4
HETATM    4  C   UNL     1      40.928 -17.156   1.160  1.00  0.00     0.241 C 
HETATM    5  C   UNL     1      41.656 -16.164   0.256  1.00  0.00     0.047 C 
BRANCH   4   6
HETATM    6  C   UNL     1      41.907 -17.871   2.058  1.00  0.00     0.106 A 
HETATM    7  S   UNL     1      43.167 -18.835   1.423  1.00  0.00    -0.070 SA
HETATM    8  C   UNL     1      43.701 -19.184   3.024  1.00  0.00     0.035 A 
HETATM    9  C   UNL     1      42.854 -18.549   3.936  1.00  0.00     0.075 A 
HETATM   10  C   UNL     1      44.791 -19.964   3.442  1.00  0.00     0.021 A 
HETATM   11  N   UNL     1      41.818 -17.814   3.370  1.00  0.00    -0.243 NA
HETATM   12  C   UNL     1      43.106 -18.698   5.315  1.00  0.00     0.033 A 
HETATM   13  C   UNL     1      44.192 -19.470   5.741  1.00  0.00     0.002 A 
HETATM   14  C   UNL     1      45.022 -20.094   4.815  1.00  0.00     0.002 A 
ENDBRANCH   4   6
ENDBRANCH   1   4
BRANCH   1  15
HETATM   15  C   UNL     1      40.072 -14.948   2.150  1.00  0.00     0.271 C 
BRANCH  15  16
HETATM   16  C   UNL     1      40.907 -14.571   3.341  1.00  0.00    -0.033 A 
HETATM   17  C   UNL     1      40.397 -14.689   4.640  1.00  0.00     0.011 A 
HETATM   18  C   UNL     1      41.170 -14.324   5.751  1.00  0.00     0.030 A 
HETATM   19  C   UNL     1      42.468 -13.840   5.590  1.00  0.00     0.036 A 
HETATM   20  C   UNL     1      42.978 -13.730   4.290  1.00  0.00     0.030 A 
HETATM   21  C   UNL     1      42.208 -14.084   3.176  1.00  0.00     0.011 A 
BRANCH  19  22
HETATM   22  N   UNL     1      43.324 -13.458   6.635  1.00  0.00    -0.303 N 
HETATM   23  C   UNL     1      44.294 -14.131   7.332  1.00  0.00     0.364 C 
HETATM   24  O   UNL     1      44.933 -13.551   8.203  1.00  0.00    -0.238 OA
HETATM   25  H   UNL     1      43.245 -12.509   6.979  1.00  0.00     0.171 HD
BRANCH  23  26
HETATM   26  O   UNL     1      44.460 -15.435   7.003  1.00  0.00    -0.309 OA
HETATM   27  C   UNL     1      43.697 -16.339   7.807  1.00  0.00     0.215 C 
ENDBRANCH  23  26
ENDBRANCH  19  22
ENDBRANCH  15  16
ENDBRANCH   1  15
TORSDOF 6
ENDMDL
MODEL 3
REMARK VINA RESULT:      -7.2      1.514      1.768
REMARK  6 active torsions:
REMARK  status: ('A' for Active; 'I' for Inactive)
REMARK    1  A    between atoms: C_2  and  N_3 
REMARK    2  A    between atoms: C_2  and  C_18 
REMARK    3  A    between atoms: N_3  and  C_6 
REMARK    4  A    between atoms: C_6  and  C_7 
REMARK    5  A    between atoms: C_10  and  N_11 
REMARK       I    between atoms: N_11  and  C_12 
REMARK    6  A    between atoms: C_12  and  O_13 
ROOT
HETATM    1  N   UNL     1      43.056 -15.439   4.698  1.00  0.00    -0.061 N 
HETATM    2  H   UNL     1      43.749 -14.682   4.626  1.00  0.00     0.278 HD
HETATM    3  H   UNL     1      43.086 -15.862   3.758  1.00  0.00     0.278 HD
ENDROOT
BRANCH   1   4
HETATM    4  C   UNL     1      43.602 -16.460   5.666  1.00  0.00     0.241 C 
HETATM    5  C   UNL     1      42.622 -16.645   6.822  1.00  0.00     0.047 C 
BRANCH   4   6
HETATM    6  C   UNL     1      43.800 -17.759   4.925  1.00  0.00     0.106 A 
HETATM    7  S   UNL     1      44.692 -19.050   5.601  1.00  0.00    -0.070 SA
HETATM    8  C   UNL     1      44.390 -19.992   4.190  1.00  0.00     0.035 A 
HETATM    9  C   UNL     1      43.640 -19.234   3.287  1.00  0.00     0.075 A 
HETATM   10  C   UNL     1      44.790 -21.307   3.902  1.00  0.00     0.021 A 
HETATM   11  N   UNL     1      43.322 -17.948   3.712  1.00  0.00    -0.243 NA
HETATM   12  C   UNL     1      43.275 -19.812   2.054  1.00  0.00     0.033 A 
HETATM   13  C   UNL     1      43.664 -21.123   1.761  1.00  0.00     0.002 A 
HETATM   14  C   UNL     1      44.412 -21.859   2.674  1.00  0.00     0.002 A 
ENDBRANCH   4   6
ENDBRANCH   1   4
BRANCH   1  15
HETATM   15  C   UNL     1      41.725 -14.850   4.977  1.00  0.00     0.271 C 
BRANCH  15  16
HETATM   16  C   UNL     1      40.898 -14.750   3.726  1.00  0.00    -0.033 A 
HETATM   17  C   UNL     1      40.445 -15.903   3.072  1.00  0.00     0.011 A 
HETATM   18  C   UNL     1      39.686 -15.811   1.898  1.00  0.00     0.030 A 
HETATM   19  C   UNL     1      39.358 -14.569   1.355  1.00  0.00     0.036 A 
HETATM   20  C   UNL     1      39.805 -13.417   2.016  1.00  0.00     0.030 A 
HETATM   21  C   UNL     1      40.570 -13.502   3.184  1.00  0.00     0.011 A 
BRANCH  19  22
HETATM   22  N   UNL     1      38.595 -14.370   0.193  1.00  0.00    -0.303 N 
HETATM   23  C   UNL     1      38.928 -13.988  -1.081  1.00  0.00     0.364 C 
HETATM   24  O   UNL     1      38.058 -13.911  -1.942  1.00  0.00    -0.238 OA
HETATM   25  H   UNL     1      37.597 -14.524   0.259  1.00  0.00     0.171 HD
BRANCH  23  26
HETATM   26  O   UNL     1      40.235 -13.695  -1.287  1.00  0.00    -0.309 OA
HETATM   27  C   UNL     1      40.967 -14.733  -1.943  1.00  0.00     0.215 C 
ENDBRANCH  23  26
ENDBRANCH  19  22
ENDBRANCH  15  16
ENDBRANCH   1  15
TORSDOF 6
ENDMDL
MODEL 4
REMARK VINA RESULT:      -7.2      6.397      8.792
REMARK  6 active torsions:
REMARK  status: ('A' for Active; 'I' for Inactive)
REMARK    1  A    between atoms: C_2  and  N_3 
REMARK    2  A    between atoms: C_2  and  C_18 
REMARK    3  A    between atoms: N_3  and  C_6 
REMARK    4  A    between atoms: C_6  and  C_7 
REMARK    5  A    between atoms: C_10  and  N_11 
REMARK       I    between atoms: N_11  and  C_12 
REMARK    6  A    between atoms: C_12  and  O_13 
ROOT
HETATM    1  N   UNL     1      44.136 -14.697   7.485  1.00  0.00    -0.061 N 
HETATM    2  H   UNL     1      43.531 -14.614   8.313  1.00  0.00     0.278 HD
HETATM    3  H   UNL     1      44.640 -15.579   7.661  1.00  0.00     0.278 HD
ENDROOT
BRANCH   1   4
HETATM    4  C   UNL     1      43.237 -14.926   6.293  1.00  0.00     0.241 C 
HETATM    5  C   UNL     1      43.410 -13.785   5.294  1.00  0.00     0.047 C 
BRANCH   4   6
HETATM    6  C   UNL     1      43.612 -16.244   5.663  1.00  0.00     0.106 A 
HETATM    7  S   UNL     1      44.395 -17.473   6.555  1.00  0.00    -0.070 SA
HETATM    8  C   UNL     1      44.400 -18.480   5.157  1.00  0.00     0.035 A 
HETATM    9  C   UNL     1      43.815 -17.786   4.093  1.00  0.00     0.075 A 
HETATM   10  C   UNL     1      44.885 -19.790   5.011  1.00  0.00     0.021 A 
HETATM   11  N   UNL     1      43.384 -16.498   4.391  1.00  0.00    -0.243 NA
HETATM   12  C   UNL     1      43.713 -18.425   2.841  1.00  0.00     0.033 A 
HETATM   13  C   UNL     1      44.190 -19.731   2.687  1.00  0.00     0.002 A 
HETATM   14  C   UNL     1      44.769 -20.402   3.760  1.00  0.00     0.002 A 
ENDBRANCH   4   6
ENDBRANCH   1   4
BRANCH   1  15
HETATM   15  C   UNL     1      45.067 -13.545   7.449  1.00  0.00     0.271 C 
BRANCH  15  16
HETATM   16  C   UNL     1      44.736 -12.541   8.517  1.00  0.00    -0.033 A 
HETATM   17  C   UNL     1      45.574 -12.372   9.626  1.00  0.00     0.011 A 
HETATM   18  C   UNL     1      45.259 -11.445  10.630  1.00  0.00     0.030 A 
HETATM   19  C   UNL     1      44.105 -10.666  10.545  1.00  0.00     0.036 A 
HETATM   20  C   UNL     1      43.273 -10.831   9.431  1.00  0.00     0.030 A 
HETATM   21  C   UNL     1      43.578 -11.760   8.430  1.00  0.00     0.011 A 
BRANCH  19  22
HETATM   22  N   UNL     1      43.707  -9.706  11.489  1.00  0.00    -0.303 N 
HETATM   23  C   UNL     1      42.558  -9.542  12.218  1.00  0.00     0.364 C 
HETATM   24  O   UNL     1      42.466  -8.612  13.013  1.00  0.00    -0.238 OA
HETATM   25  H   UNL     1      44.364  -8.965  11.706  1.00  0.00     0.171 HD
BRANCH  23  26
HETATM   26  O   UNL     1      41.573 -10.441  11.977  1.00  0.00    -0.309 OA
HETATM   27  C   UNL     1      41.107 -11.120  13.145  1.00  0.00     0.215 C 
ENDBRANCH  23  26
ENDBRANCH  19  22
ENDBRANCH  15  16
ENDBRANCH   1  15
TORSDOF 6
ENDMDL
MODEL 5
REMARK VINA RESULT:      -7.0      2.270      2.773
REMARK  6 active torsions:
REMARK  status: ('A' for Active; 'I' for Inactive)
REMARK    1  A    between atoms: C_2  and  N_3 
REMARK    2  A    between atoms: C_2  and  C_18 
REMARK    3  A    between atoms: N_3  and  C_6 
REMARK    4  A    between atoms: C_6  and  C_7 
REMARK    5  A    between atoms: C_10  and  N_11 
REMARK       I    between atoms: N_11  and  C_12 
REMARK    6  A    between atoms: C_12  and  O_13 
ROOT
HETATM    1  N   UNL     1      41.309 -16.317   2.424  1.00  0.00    -0.061 N 
HETATM    2  H   UNL     1      41.267 -16.535   1.419  1.00  0.00     0.278 HD
HETATM    3  H   UNL     1      40.916 -17.168   2.855  1.00  0.00     0.278 HD
ENDROOT
BRANCH   1   4
HETATM    4  C   UNL     1      42.767 -16.253   2.810  1.00  0.00     0.241 C 
HETATM    5  C   UNL     1      42.923 -15.424   4.083  1.00  0.00     0.047 C 
BRANCH   4   6
HETATM    6  C   UNL     1      43.262 -17.661   3.030  1.00  0.00     0.106 A 
HETATM    7  S   UNL     1      43.978 -18.139   4.506  1.00  0.00    -0.070 SA
HETATM    8  C   UNL     1      44.185 -19.733   3.884  1.00  0.00     0.035 A 
HETATM    9  C   UNL     1      43.707 -19.776   2.572  1.00  0.00     0.075 A 
HETATM   10  C   UNL     1      44.732 -20.863   4.513  1.00  0.00     0.021 A 
HETATM   11  N   UNL     1      43.197 -18.577   2.087  1.00  0.00    -0.243 NA
HETATM   12  C   UNL     1      43.778 -20.993   1.864  1.00  0.00     0.033 A 
HETATM   13  C   UNL     1      44.317 -22.125   2.483  1.00  0.00     0.002 A 
HETATM   14  C   UNL     1      44.788 -22.059   3.790  1.00  0.00     0.002 A 
ENDBRANCH   4   6
ENDBRANCH   1   4
BRANCH   1  15
HETATM   15  C   UNL     1      40.458 -15.136   2.699  1.00  0.00     0.271 C 
BRANCH  15  16
HETATM   16  C   UNL     1      39.767 -14.658   1.453  1.00  0.00    -0.033 A 
HETATM   17  C   UNL     1      38.382 -14.446   1.438  1.00  0.00     0.011 A 
HETATM   18  C   UNL     1      37.735 -14.013   0.273  1.00  0.00     0.030 A 
HETATM   19  C   UNL     1      38.454 -13.779  -0.899  1.00  0.00     0.036 A 
HETATM   20  C   UNL     1      39.839 -13.985  -0.879  1.00  0.00     0.030 A 
HETATM   21  C   UNL     1      40.491 -14.424   0.279  1.00  0.00     0.011 A 
BRANCH  19  22
HETATM   22  N   UNL     1      37.902 -13.337  -2.112  1.00  0.00    -0.303 N 
HETATM   23  C   UNL     1      37.496 -13.997  -3.242  1.00  0.00     0.364 C 
HETATM   24  O   UNL     1      37.013 -13.367  -4.177  1.00  0.00    -0.238 OA
HETATM   25  H   UNL     1      37.760 -12.340  -2.222  1.00  0.00     0.171 HD
BRANCH  23  26
HETATM   26  O   UNL     1      37.687 -15.338  -3.243  1.00  0.00    -0.309 OA
HETATM   27  C   UNL     1      38.697 -15.781  -4.153  1.00  0.00     0.215 C 
ENDBRANCH  23  26
ENDBRANCH  19  22
ENDBRANCH  15  16
ENDBRANCH   1  15
TORSDOF 6
ENDMDL
MODEL 6
REMARK VINA RESULT:      -6.9      4.077      5.715
REMARK  6 active torsions:
REMARK  status: ('A' for Active; 'I' for Inactive)
REMARK    1  A    between atoms: C_2  and  N_3 
REMARK    2  A    between atoms: C_2  and  C_18 
REMARK    3  A    between atoms: N_3  and  C_6 
REMARK    4  A    between atoms: C_6  and  C_7 
REMARK    5  A    between atoms: C_10  and  N_11 
REMARK       I    between atoms: N_11  and  C_12 
REMARK    6  A    between atoms: C_12  and  O_13 
ROOT
HETATM    1  N   UNL     1      39.883 -16.240   2.482  1.00  0.00    -0.061 N 
HETATM    2  H   UNL     1      38.955 -16.673   2.381  1.00  0.00     0.278 HD
HETATM    3  H   UNL     1      40.161 -16.525   3.434  1.00  0.00     0.278 HD
ENDROOT
BRANCH   1   4
HETATM    4  C   UNL     1      40.812 -16.936   1.517  1.00  0.00     0.241 C 
HETATM    5  C   UNL     1      41.511 -15.899   0.642  1.00  0.00     0.047 C 
BRANCH   4   6
HETATM    6  C   UNL     1      41.822 -17.724   2.315  1.00  0.00     0.106 A 
HETATM    7  S   UNL     1      42.157 -17.354   3.949  1.00  0.00    -0.070 SA
HETATM    8  C   UNL     1      43.293 -18.649   4.005  1.00  0.00     0.035 A 
HETATM    9  C   UNL     1      43.348 -19.261   2.749  1.00  0.00     0.075 A 
HETATM   10  C   UNL     1      44.079 -19.090   5.081  1.00  0.00     0.021 A 
HETATM   11  N   UNL     1      42.513 -18.710   1.784  1.00  0.00    -0.243 NA
HETATM   12  C   UNL     1      44.219 -20.354   2.565  1.00  0.00     0.033 A 
HETATM   13  C   UNL     1      45.002 -20.804   3.633  1.00  0.00     0.002 A 
HETATM   14  C   UNL     1      44.932 -20.179   4.874  1.00  0.00     0.002 A 
ENDBRANCH   4   6
ENDBRANCH   1   4
BRANCH   1  15
HETATM   15  C   UNL     1      39.743 -14.768   2.384  1.00  0.00     0.271 C 
BRANCH  15  16
HETATM   16  C   UNL     1      40.351 -14.079   3.573  1.00  0.00    -0.033 A 
HETATM   17  C   UNL     1      39.795 -14.229   4.849  1.00  0.00     0.011 A 
HETATM   18  C   UNL     1      40.353 -13.576   5.957  1.00  0.00     0.030 A 
HETATM   19  C   UNL     1      41.479 -12.765   5.815  1.00  0.00     0.036 A 
HETATM   20  C   UNL     1      42.037 -12.623   4.538  1.00  0.00     0.030 A 
HETATM   21  C   UNL     1      41.480 -13.266   3.427  1.00  0.00     0.011 A 
BRANCH  19  22
HETATM   22  N   UNL     1      42.117 -12.077   6.860  1.00  0.00    -0.303 N 
HETATM   23  C   UNL     1      41.922 -10.838   7.410  1.00  0.00     0.364 C 
HETATM   24  O   UNL     1      42.614 -10.473   8.355  1.00  0.00    -0.238 OA
HETATM   25  H   UNL     1      42.882 -12.548   7.328  1.00  0.00     0.171 HD
BRANCH  23  26
HETATM   26  O   UNL     1      40.959 -10.080   6.832  1.00  0.00    -0.309 OA
HETATM   27  C   UNL     1      41.348  -8.725   6.596  1.00  0.00     0.215 C 
ENDBRANCH  23  26
ENDBRANCH  19  22
ENDBRANCH  15  16
ENDBRANCH   1  15
TORSDOF 6
ENDMDL
MODEL 7
REMARK VINA RESULT:      -6.7      2.744      3.251
REMARK  6 active torsions:
REMARK  status: ('A' for Active; 'I' for Inactive)
REMARK    1  A    between atoms: C_2  and  N_3 
REMARK    2  A    between atoms: C_2  and  C_18 
REMARK    3  A    between atoms: N_3  and  C_6 
REMARK    4  A    between atoms: C_6  and  C_7 
REMARK    5  A    between atoms: C_10  and  N_11 
REMARK       I    between atoms: N_11  and  C_12 
REMARK    6  A    between atoms: C_12  and  O_13 
ROOT
HETATM    1  N   UNL     1      43.358 -16.147   5.846  1.00  0.00    -0.061 N 
HETATM    2  H   UNL     1      43.048 -16.466   4.918  1.00  0.00     0.278 HD
HETATM    3  H   UNL     1      42.491 -16.195   6.403  1.00  0.00     0.278 HD
ENDROOT
BRANCH   1   4
HETATM    4  C   UNL     1      44.298 -17.195   6.392  1.00  0.00     0.241 C 
HETATM    5  C   UNL     1      43.832 -17.629   7.779  1.00  0.00     0.047 C 
BRANCH   4   6
HETATM    6  C   UNL     1      44.302 -18.368   5.443  1.00  0.00     0.106 A 
HETATM    7  S   UNL     1      43.891 -18.188   3.794  1.00  0.00    -0.070 SA
HETATM    8  C   UNL     1      44.165 -19.871   3.547  1.00  0.00     0.035 A 
HETATM    9  C   UNL     1      44.534 -20.457   4.761  1.00  0.00     0.075 A 
HETATM   10  C   UNL     1      44.061 -20.620   2.363  1.00  0.00     0.021 A 
HETATM   11  N   UNL     1      44.591 -19.588   5.845  1.00  0.00    -0.243 NA
HETATM   12  C   UNL     1      44.808 -21.839   4.792  1.00  0.00     0.033 A 
HETATM   13  C   UNL     1      44.711 -22.592   3.617  1.00  0.00     0.002 A 
HETATM   14  C   UNL     1      44.342 -21.988   2.419  1.00  0.00     0.002 A 
ENDBRANCH   4   6
ENDBRANCH   1   4
BRANCH   1  15
HETATM   15  C   UNL     1      43.848 -14.753   5.739  1.00  0.00     0.271 C 
BRANCH  15  16
HETATM   16  C   UNL     1      43.123 -14.000   4.660  1.00  0.00    -0.033 A 
HETATM   17  C   UNL     1      43.222 -14.395   3.320  1.00  0.00     0.011 A 
HETATM   18  C   UNL     1      42.558 -13.685   2.310  1.00  0.00     0.030 A 
HETATM   19  C   UNL     1      41.779 -12.569   2.616  1.00  0.00     0.036 A 
HETATM   20  C   UNL     1      41.676 -12.180   3.958  1.00  0.00     0.030 A 
HETATM   21  C   UNL     1      42.343 -12.881   4.970  1.00  0.00     0.011 A 
BRANCH  19  22
HETATM   22  N   UNL     1      41.069 -11.798   1.683  1.00  0.00    -0.303 N 
HETATM   23  C   UNL     1      41.431 -11.208   0.500  1.00  0.00     0.364 C 
HETATM   24  O   UNL     1      40.596 -10.594  -0.157  1.00  0.00    -0.238 OA
HETATM   25  H   UNL     1      40.093 -11.612   1.879  1.00  0.00     0.171 HD
BRANCH  23  26
HETATM   26  O   UNL     1      42.733 -11.337   0.150  1.00  0.00    -0.309 OA
HETATM   27  C   UNL     1      42.934 -11.726  -1.211  1.00  0.00     0.215 C 
ENDBRANCH  23  26
ENDBRANCH  19  22
ENDBRANCH  15  16
ENDBRANCH   1  15
TORSDOF 6
ENDMDL
MODEL 8
REMARK VINA RESULT:      -6.7      7.825     10.420
REMARK  6 active torsions:
REMARK  status: ('A' for Active; 'I' for Inactive)
REMARK    1  A    between atoms: C_2  and  N_3 
REMARK    2  A    between atoms: C_2  and  C_18 
REMARK    3  A    between atoms: N_3  and  C_6 
REMARK    4  A    between atoms: C_6  and  C_7 
REMARK    5  A    between atoms: C_10  and  N_11 
REMARK       I    between atoms: N_11  and  C_12 
REMARK    6  A    between atoms: C_12  and  O_13 
ROOT
HETATM    1  N   UNL     1      44.283 -12.932   9.505  1.00  0.00    -0.061 N 
HETATM    2  H   UNL     1      43.275 -12.730   9.541  1.00  0.00     0.278 HD
HETATM    3  H   UNL     1      44.321 -13.937   9.733  1.00  0.00     0.278 HD
ENDROOT
BRANCH   1   4
HETATM    4  C   UNL     1      44.720 -12.783   8.067  1.00  0.00     0.241 C 
HETATM    5  C   UNL     1      46.234 -12.595   8.009  1.00  0.00     0.047 C 
BRANCH   4   6
HETATM    6  C   UNL     1      44.310 -14.026   7.316  1.00  0.00     0.106 A 
HETATM    7  S   UNL     1      43.808 -13.961   5.683  1.00  0.00    -0.070 SA
HETATM    8  C   UNL     1      43.583 -15.669   5.689  1.00  0.00     0.035 A 
HETATM    9  C   UNL     1      43.891 -16.166   6.959  1.00  0.00     0.075 A 
HETATM   10  C   UNL     1      43.164 -16.510   4.646  1.00  0.00     0.021 A 
HETATM   11  N   UNL     1      44.290 -15.211   7.888  1.00  0.00    -0.243 NA
HETATM   12  C   UNL     1      43.777 -17.551   7.193  1.00  0.00     0.033 A 
HETATM   13  C   UNL     1      43.364 -18.397   6.158  1.00  0.00     0.002 A 
HETATM   14  C   UNL     1      43.062 -17.881   4.902  1.00  0.00     0.002 A 
ENDBRANCH   4   6
ENDBRANCH   1   4
BRANCH   1  15
HETATM   15  C   UNL     1      44.975 -12.123  10.535  1.00  0.00     0.271 C 
BRANCH  15  16
HETATM   16  C   UNL     1      44.002 -11.289  11.320  1.00  0.00    -0.033 A 
HETATM   17  C   UNL     1      43.196 -11.869  12.308  1.00  0.00     0.011 A 
HETATM   18  C   UNL     1      42.278 -11.095  13.031  1.00  0.00     0.030 A 
HETATM   19  C   UNL     1      42.149  -9.728  12.789  1.00  0.00     0.036 A 
HETATM   20  C   UNL     1      42.962  -9.149  11.806  1.00  0.00     0.030 A 
HETATM   21  C   UNL     1      43.875  -9.918  11.074  1.00  0.00     0.011 A 
BRANCH  19  22
HETATM   22  N   UNL     1      41.270  -8.866  13.464  1.00  0.00    -0.303 N 
HETATM   23  C   UNL     1      39.950  -8.552  13.272  1.00  0.00     0.364 C 
HETATM   24  O   UNL     1      39.392  -7.768  14.034  1.00  0.00    -0.238 OA
HETATM   25  H   UNL     1      41.639  -8.350  14.253  1.00  0.00     0.171 HD
BRANCH  23  26
HETATM   26  O   UNL     1      39.353  -9.136  12.206  1.00  0.00    -0.309 OA
HETATM   27  C   UNL     1      37.925  -9.064  12.227  1.00  0.00     0.215 C 
ENDBRANCH  23  26
ENDBRANCH  19  22
ENDBRANCH  15  16
ENDBRANCH   1  15
TORSDOF 6
ENDMDL
MODEL 9
REMARK VINA RESULT:      -6.7      1.618      2.068
REMARK  6 active torsions:
REMARK  status: ('A' for Active; 'I' for Inactive)
REMARK    1  A    between atoms: C_2  and  N_3 
REMARK    2  A    between atoms: C_2  and  C_18 
REMARK    3  A    between atoms: N_3  and  C_6 
REMARK    4  A    between atoms: C_6  and  C_7 
REMARK    5  A    between atoms: C_10  and  N_11 
REMARK       I    between atoms: N_11  and  C_12 
REMARK    6  A    between atoms: C_12  and  O_13 
ROOT
HETATM    1  N   UNL     1      41.610 -16.813   5.857  1.00  0.00    -0.061 N 
HETATM    2  H   UNL     1      41.359 -17.228   4.948  1.00  0.00     0.278 HD
HETATM    3  H   UNL     1      41.049 -17.369   6.520  1.00  0.00     0.278 HD
ENDROOT
BRANCH   1   4
HETATM    4  C   UNL     1      43.061 -17.139   6.115  1.00  0.00     0.241 C 
HETATM    5  C   UNL     1      43.259 -17.459   7.594  1.00  0.00     0.047 C 
BRANCH   4   6
HETATM    6  C   UNL     1      43.441 -18.323   5.260  1.00  0.00     0.106 A 
HETATM    7  S   UNL     1      44.321 -19.642   5.897  1.00  0.00    -0.070 SA
HETATM    8  C   UNL     1      44.271 -20.414   4.357  1.00  0.00     0.035 A 
HETATM    9  C   UNL     1      43.597 -19.587   3.454  1.00  0.00     0.075 A 
HETATM   10  C   UNL     1      44.792 -21.661   3.976  1.00  0.00     0.021 A 
HETATM   11  N   UNL     1      43.141 -18.383   3.980  1.00  0.00    -0.243 NA
HETATM   12  C   UNL     1      43.437 -20.023   2.124  1.00  0.00     0.033 A 
HETATM   13  C   UNL     1      43.948 -21.266   1.735  1.00  0.00     0.002 A 
HETATM   14  C   UNL     1      44.617 -22.072   2.651  1.00  0.00     0.002 A 
ENDBRANCH   4   6
ENDBRANCH   1   4
BRANCH   1  15
HETATM   15  C   UNL     1      41.197 -15.391   5.868  1.00  0.00     0.271 C 
BRANCH  15  16
HETATM   16  C   UNL     1      41.418 -14.746   4.529  1.00  0.00    -0.033 A 
HETATM   17  C   UNL     1      42.636 -14.127   4.223  1.00  0.00     0.011 A 
HETATM   18  C   UNL     1      42.838 -13.513   2.979  1.00  0.00     0.030 A 
HETATM   19  C   UNL     1      41.831 -13.508   2.014  1.00  0.00     0.036 A 
HETATM   20  C   UNL     1      40.616 -14.133   2.320  1.00  0.00     0.030 A 
HETATM   21  C   UNL     1      40.406 -14.741   3.563  1.00  0.00     0.011 A 
BRANCH  19  22
HETATM   22  N   UNL     1      41.937 -12.930   0.739  1.00  0.00    -0.303 N 
HETATM   23  C   UNL     1      41.876 -13.457  -0.525  1.00  0.00     0.364 C 
HETATM   24  O   UNL     1      41.976 -12.718  -1.500  1.00  0.00    -0.238 OA
HETATM   25  H   UNL     1      42.092 -11.931   0.691  1.00  0.00     0.171 HD
BRANCH  23  26
HETATM   26  O   UNL     1      41.727 -14.801  -0.599  1.00  0.00    -0.309 OA
HETATM   27  C   UNL     1      40.859 -15.234  -1.649  1.00  0.00     0.215 C 
ENDBRANCH  23  26
ENDBRANCH  19  22
ENDBRANCH  15  16
ENDBRANCH   1  15
TORSDOF 6
ENDMDL
MODEL 10
REMARK VINA RESULT:      -6.6      2.128      2.933
REMARK  6 active torsions:
REMARK  status: ('A' for Active; 'I' for Inactive)
REMARK    1  A    between atoms: C_2  and  N_3 
REMARK    2  A    between atoms: C_2  and  C_18 
REMARK    3  A    between atoms: N_3  and  C_6 
REMARK    4  A    between atoms: C_6  and  C_7 
REMARK    5  A    between atoms: C_10  and  N_11 
REMARK       I    between atoms: N_11  and  C_12 
REMARK    6  A    between atoms: C_12  and  O_13 
ROOT
HETATM    1  N   UNL     1      39.936 -16.206   2.577  1.00  0.00    -0.061 N 
HETATM    2  H   UNL     1      40.259 -16.838   1.831  1.00  0.00     0.278 HD
HETATM    3  H   UNL     1      39.349 -16.824   3.157  1.00  0.00     0.278 HD
ENDROOT
BRANCH   1   4
HETATM    4  C   UNL     1      41.144 -15.832   3.402  1.00  0.00     0.241 C 
HETATM    5  C   UNL     1      40.698 -15.420   4.803  1.00  0.00     0.047 C 
BRANCH   4   6
HETATM    6  C   UNL     1      42.063 -17.026   3.468  1.00  0.00     0.106 A 
HETATM    7  S   UNL     1      43.068 -17.311   4.821  1.00  0.00    -0.070 SA
HETATM    8  C   UNL     1      43.665 -18.742   4.070  1.00  0.00     0.035 A 
HETATM    9  C   UNL     1      43.062 -18.887   2.817  1.00  0.00     0.075 A 
HETATM   10  C   UNL     1      44.601 -19.670   4.555  1.00  0.00     0.021 A 
HETATM   11  N   UNL     1      42.158 -17.887   2.476  1.00  0.00    -0.243 NA
HETATM   12  C   UNL     1      43.407 -19.999   2.023  1.00  0.00     0.033 A 
HETATM   13  C   UNL     1      44.335 -20.931   2.499  1.00  0.00     0.002 A 
HETATM   14  C   UNL     1      44.923 -20.767   3.749  1.00  0.00     0.002 A 
ENDBRANCH   4   6
ENDBRANCH   1   4
BRANCH   1  15
HETATM   15  C   UNL     1      39.134 -15.117   1.973  1.00  0.00     0.271 C 
BRANCH  15  16
HETATM   16  C   UNL     1      39.885 -14.433   0.866  1.00  0.00    -0.033 A 
HETATM   17  C   UNL     1      39.796 -13.047   0.689  1.00  0.00     0.011 A 
HETATM   18  C   UNL     1      40.484 -12.410  -0.352  1.00  0.00     0.030 A 
HETATM   19  C   UNL     1      41.278 -13.141  -1.236  1.00  0.00     0.036 A 
HETATM   20  C   UNL     1      41.371 -14.526  -1.052  1.00  0.00     0.030 A 
HETATM   21  C   UNL     1      40.680 -15.169  -0.019  1.00  0.00     0.011 A 
BRANCH  19  22
HETATM   22  N   UNL     1      42.013 -12.597  -2.301  1.00  0.00    -0.303 N 
HETATM   23  C   UNL     1      41.664 -12.220  -3.572  1.00  0.00     0.364 C 
HETATM   24  O   UNL     1      42.508 -11.738  -4.320  1.00  0.00    -0.238 OA
HETATM   25  H   UNL     1      43.001 -12.437  -2.151  1.00  0.00     0.171 HD
BRANCH  23  26
HETATM   26  O   UNL     1      40.372 -12.437  -3.918  1.00  0.00    -0.309 OA
HETATM   27  C   UNL     1      39.605 -11.242  -4.083  1.00  0.00     0.215 C 
ENDBRANCH  23  26
ENDBRANCH  19  22
ENDBRANCH  15  16
ENDBRANCH   1  15
TORSDOF 6
ENDMDL
