MODEL 1
REMARK VINA RESULT:      -8.5      0.000      0.000
REMARK  5 active torsions:
REMARK  status: ('A' for Active; 'I' for Inactive)
REMARK    1  A    between atoms: C_5  and  C_6 
REMARK    2  A    between atoms: C_9  and  O_10 
REMARK    3  A    between atoms: O_10  and  C_11 
REMARK    4  A    between atoms: C_11  and  C_12 
REMARK       I    between atoms: C_12  and  N_13 
REMARK    5  A    between atoms: N_13  and  C_14 
ROOT
HETATM    1  C   UNL     1      44.311 -18.570   8.269  1.00  0.00     0.278 C 
ENDROOT
BRANCH   1   2
HETATM    2  O   UNL     1      43.281 -17.590   8.376  1.00  0.00    -0.342 OA
BRANCH   2   3
HETATM    3  C   UNL     1      42.993 -16.886   7.240  1.00  0.00     0.069 A 
HETATM    4  C   UNL     1      44.024 -16.081   6.757  1.00  0.00     0.038 A 
HETATM    5  C   UNL     1      43.856 -15.346   5.580  1.00  0.00     0.018 A 
HETATM    6  C   UNL     1      42.659 -15.426   4.855  1.00  0.00     0.015 A 
HETATM    7  C   UNL     1      41.637 -16.256   5.340  1.00  0.00     0.018 A 
HETATM    8  C   UNL     1      41.801 -16.985   6.524  1.00  0.00     0.038 A 
BRANCH   6   9
HETATM    9  C   UNL     1      42.492 -14.670   3.622  1.00  0.00     0.198 A 
HETATM   10  N   UNL     1      42.840 -13.341   3.506  1.00  0.00    -0.136 NA
HETATM   11  N   UNL     1      42.570 -12.979   2.260  1.00  0.00     0.024 NA
HETATM   12  N   UNL     1      42.077 -14.084   1.686  1.00  0.00    -0.196 N 
HETATM   13  C   UNL     1      41.687 -14.117   0.303  1.00  0.00     0.200 C 
HETATM   14  N   UNL     1      41.999 -15.172   2.473  1.00  0.00    -0.137 NA
ENDBRANCH   6   9
ENDBRANCH   2   3
ENDBRANCH   1   2
BRANCH   1  15
HETATM   15  C   UNL     1      44.003 -19.725   7.309  1.00  0.00     0.246 C 
HETATM   16  N   UNL     1      44.602 -19.577   6.074  1.00  0.00    -0.324 N 
HETATM   17  H   UNL     1      45.140 -18.726   5.948  1.00  0.00     0.169 HD
HETATM   18  O   UNL     1      43.275 -20.649   7.664  1.00  0.00    -0.271 OA
BRANCH  16  19
HETATM   19  C   UNL     1      44.536 -20.438   4.961  1.00  0.00     0.047 A 
HETATM   20  C   UNL     1      44.132 -19.895   3.713  1.00  0.00     0.019 A 
HETATM   21  C   UNL     1      44.066 -20.731   2.596  1.00  0.00     0.044 A 
HETATM   22  C   UNL     1      43.726 -18.597   3.271  1.00  0.00     0.033 A 
HETATM   23  N   UNL     1      43.644 -19.966   1.531  1.00  0.00    -0.365 N 
HETATM   24  C   UNL     1      44.386 -22.091   2.648  1.00  0.00     0.030 A 
HETATM   25  H   UNL     1      43.507 -20.318   0.593  1.00  0.00     0.165 HD
HETATM   26  C   UNL     1      43.432 -18.675   1.929  1.00  0.00     0.089 A 
HETATM   27  C   UNL     1      44.781 -22.611   3.880  1.00  0.00     0.005 A 
HETATM   28  C   UNL     1      44.852 -21.803   5.016  1.00  0.00     0.030 A 
ENDBRANCH  16  19
ENDBRANCH   1  15
TORSDOF 5
ENDMDL
MODEL 2
REMARK VINA RESULT:      -8.2      4.660      8.684
REMARK  5 active torsions:
REMARK  status: ('A' for Active; 'I' for Inactive)
REMARK    1  A    between atoms: C_5  and  C_6 
REMARK    2  A    between atoms: C_9  and  O_10 
REMARK    3  A    between atoms: O_10  and  C_11 
REMARK    4  A    between atoms: C_11  and  C_12 
REMARK       I    between atoms: C_12  and  N_13 
REMARK    5  A    between atoms: N_13  and  C_14 
ROOT
HETATM    1  C   UNL     1      45.083 -13.962   7.141  1.00  0.00     0.278 C 
ENDROOT
BRANCH   1   2
HETATM    2  O   UNL     1      44.377 -15.110   7.603  1.00  0.00    -0.342 OA
BRANCH   2   3
HETATM    3  C   UNL     1      44.254 -16.144   6.718  1.00  0.00     0.069 A 
HETATM    4  C   UNL     1      43.546 -15.853   5.551  1.00  0.00     0.038 A 
HETATM    5  C   UNL     1      43.391 -16.822   4.557  1.00  0.00     0.018 A 
HETATM    6  C   UNL     1      43.963 -18.093   4.706  1.00  0.00     0.015 A 
HETATM    7  C   UNL     1      44.691 -18.368   5.874  1.00  0.00     0.018 A 
HETATM    8  C   UNL     1      44.839 -17.399   6.875  1.00  0.00     0.038 A 
BRANCH   6   9
HETATM    9  C   UNL     1      43.812 -19.097   3.661  1.00  0.00     0.198 A 
HETATM   10  N   UNL     1      42.874 -18.995   2.656  1.00  0.00    -0.136 NA
HETATM   11  N   UNL     1      43.021 -20.060   1.882  1.00  0.00     0.024 NA
HETATM   12  N   UNL     1      44.023 -20.750   2.443  1.00  0.00    -0.196 N 
HETATM   13  C   UNL     1      44.518 -21.975   1.877  1.00  0.00     0.200 C 
HETATM   14  N   UNL     1      44.561 -20.211   3.552  1.00  0.00    -0.137 NA
ENDBRANCH   6   9
ENDBRANCH   2   3
ENDBRANCH   1   2
BRANCH   1  15
HETATM   15  C   UNL     1      45.184 -12.816   8.155  1.00  0.00     0.246 C 
HETATM   16  N   UNL     1      43.990 -12.556   8.799  1.00  0.00    -0.324 N 
HETATM   17  H   UNL     1      43.204 -13.127   8.508  1.00  0.00     0.169 HD
HETATM   18  O   UNL     1      46.247 -12.221   8.315  1.00  0.00    -0.271 OA
BRANCH  16  19
HETATM   19  C   UNL     1      43.719 -11.583   9.780  1.00  0.00     0.047 A 
HETATM   20  C   UNL     1      42.733 -10.600   9.499  1.00  0.00     0.019 A 
HETATM   21  C   UNL     1      42.446  -9.629  10.462  1.00  0.00     0.044 A 
HETATM   22  C   UNL     1      41.893 -10.318   8.377  1.00  0.00     0.033 A 
HETATM   23  N   UNL     1      41.473  -8.806   9.941  1.00  0.00    -0.365 N 
HETATM   24  C   UNL     1      43.087  -9.581  11.704  1.00  0.00     0.030 A 
HETATM   25  H   UNL     1      41.076  -8.013  10.426  1.00  0.00     0.165 HD
HETATM   26  C   UNL     1      41.134  -9.211   8.680  1.00  0.00     0.089 A 
HETATM   27  C   UNL     1      44.053 -10.552  11.965  1.00  0.00     0.005 A 
HETATM   28  C   UNL     1      44.367 -11.532  11.022  1.00  0.00     0.030 A 
ENDBRANCH  16  19
ENDBRANCH   1  15
TORSDOF 5
ENDMDL
MODEL 3
REMARK VINA RESULT:      -8.1      3.042      4.847
REMARK  5 active torsions:
REMARK  status: ('A' for Active; 'I' for Inactive)
REMARK    1  A    between atoms: C_5  and  C_6 
REMARK    2  A    between atoms: C_9  and  O_10 
REMARK    3  A    between atoms: O_10  and  C_11 
REMARK    4  A    between atoms: C_11  and  C_12 
REMARK       I    between atoms: C_12  and  N_13 
REMARK    5  A    between atoms: N_13  and  C_14 
ROOT
HETATM    1  C   UNL     1      42.205 -16.394   0.770  1.00  0.00     0.278 C 
ENDROOT
BRANCH   1   2
HETATM    2  O   UNL     1      41.338 -15.899   1.787  1.00  0.00    -0.342 OA
BRANCH   2   3
HETATM    3  C   UNL     1      41.940 -15.293   2.855  1.00  0.00     0.069 A 
HETATM    4  C   UNL     1      41.596 -15.804   4.106  1.00  0.00     0.038 A 
HETATM    5  C   UNL     1      42.178 -15.288   5.266  1.00  0.00     0.018 A 
HETATM    6  C   UNL     1      43.134 -14.265   5.189  1.00  0.00     0.015 A 
HETATM    7  C   UNL     1      43.487 -13.773   3.923  1.00  0.00     0.018 A 
HETATM    8  C   UNL     1      42.897 -14.284   2.760  1.00  0.00     0.038 A 
BRANCH   6   9
HETATM    9  C   UNL     1      43.750 -13.738   6.399  1.00  0.00     0.198 A 
HETATM   10  N   UNL     1      44.907 -14.262   6.937  1.00  0.00    -0.136 NA
HETATM   11  N   UNL     1      45.190 -13.543   8.014  1.00  0.00     0.024 NA
HETATM   12  N   UNL     1      44.209 -12.634   8.081  1.00  0.00    -0.196 N 
HETATM   13  C   UNL     1      44.169 -11.628   9.107  1.00  0.00     0.200 C 
HETATM   14  N   UNL     1      43.280 -12.696   7.110  1.00  0.00    -0.137 NA
ENDBRANCH   6   9
ENDBRANCH   2   3
ENDBRANCH   1   2
BRANCH   1  15
HETATM   15  C   UNL     1      43.259 -17.397   1.253  1.00  0.00     0.246 C 
HETATM   16  N   UNL     1      42.709 -18.545   1.789  1.00  0.00    -0.324 N 
HETATM   17  H   UNL     1      41.695 -18.570   1.819  1.00  0.00     0.169 HD
HETATM   18  O   UNL     1      44.455 -17.134   1.159  1.00  0.00    -0.271 OA
BRANCH  16  19
HETATM   19  C   UNL     1      43.373 -19.666   2.324  1.00  0.00     0.047 A 
HETATM   20  C   UNL     1      43.956 -19.549   3.614  1.00  0.00     0.019 A 
HETATM   21  C   UNL     1      44.615 -20.652   4.165  1.00  0.00     0.044 A 
HETATM   22  C   UNL     1      44.063 -18.494   4.572  1.00  0.00     0.033 A 
HETATM   23  N   UNL     1      45.090 -20.273   5.401  1.00  0.00    -0.365 N 
HETATM   24  C   UNL     1      44.723 -21.878   3.503  1.00  0.00     0.030 A 
HETATM   25  H   UNL     1      45.609 -20.878   6.023  1.00  0.00     0.165 HD
HETATM   26  C   UNL     1      44.765 -18.969   5.655  1.00  0.00     0.089 A 
HETATM   27  C   UNL     1      44.146 -21.977   2.237  1.00  0.00     0.005 A 
HETATM   28  C   UNL     1      43.486 -20.893   1.656  1.00  0.00     0.030 A 
ENDBRANCH  16  19
ENDBRANCH   1  15
TORSDOF 5
ENDMDL
MODEL 4
REMARK VINA RESULT:      -8.0      2.780      7.122
REMARK  5 active torsions:
REMARK  status: ('A' for Active; 'I' for Inactive)
REMARK    1  A    between atoms: C_5  and  C_6 
REMARK    2  A    between atoms: C_9  and  O_10 
REMARK    3  A    between atoms: O_10  and  C_11 
REMARK    4  A    between atoms: C_11  and  C_12 
REMARK       I    between atoms: C_12  and  N_13 
REMARK    5  A    between atoms: N_13  and  C_14 
ROOT
HETATM    1  C   UNL     1      41.338 -14.705   1.455  1.00  0.00     0.278 C 
ENDROOT
BRANCH   1   2
HETATM    2  O   UNL     1      41.894 -15.631   0.525  1.00  0.00    -0.342 OA
BRANCH   2   3
HETATM    3  C   UNL     1      42.468 -16.753   1.056  1.00  0.00     0.069 A 
HETATM    4  C   UNL     1      41.578 -17.756   1.442  1.00  0.00     0.038 A 
HETATM    5  C   UNL     1      42.054 -18.962   1.961  1.00  0.00     0.018 A 
HETATM    6  C   UNL     1      43.431 -19.193   2.079  1.00  0.00     0.015 A 
HETATM    7  C   UNL     1      44.317 -18.185   1.668  1.00  0.00     0.018 A 
HETATM    8  C   UNL     1      43.840 -16.972   1.156  1.00  0.00     0.038 A 
BRANCH   6   9
HETATM    9  C   UNL     1      43.925 -20.458   2.607  1.00  0.00     0.198 A 
HETATM   10  N   UNL     1      44.006 -21.604   1.846  1.00  0.00    -0.136 NA
HETATM   11  N   UNL     1      44.504 -22.551   2.628  1.00  0.00     0.024 NA
HETATM   12  N   UNL     1      44.699 -21.947   3.808  1.00  0.00    -0.196 N 
HETATM   13  C   UNL     1      45.268 -22.637   4.934  1.00  0.00     0.200 C 
HETATM   14  N   UNL     1      44.360 -20.647   3.867  1.00  0.00    -0.137 NA
ENDBRANCH   6   9
ENDBRANCH   2   3
ENDBRANCH   1   2
BRANCH   1  15
HETATM   15  C   UNL     1      42.301 -14.237   2.552  1.00  0.00     0.246 C 
HETATM   16  N   UNL     1      42.168 -14.947   3.729  1.00  0.00    -0.324 N 
HETATM   17  H   UNL     1      41.446 -15.659   3.730  1.00  0.00     0.169 HD
HETATM   18  O   UNL     1      43.075 -13.306   2.341  1.00  0.00    -0.271 OA
BRANCH  16  19
HETATM   19  C   UNL     1      42.883 -14.787   4.932  1.00  0.00     0.047 A 
HETATM   20  C   UNL     1      43.469 -15.937   5.524  1.00  0.00     0.019 A 
HETATM   21  C   UNL     1      44.187 -15.798   6.715  1.00  0.00     0.044 A 
HETATM   22  C   UNL     1      43.504 -17.327   5.191  1.00  0.00     0.033 A 
HETATM   23  N   UNL     1      44.636 -17.050   7.075  1.00  0.00    -0.365 N 
HETATM   24  C   UNL     1      44.362 -14.568   7.355  1.00  0.00     0.030 A 
HETATM   25  H   UNL     1      45.185 -17.244   7.901  1.00  0.00     0.165 HD
HETATM   26  C   UNL     1      44.225 -17.981   6.162  1.00  0.00     0.089 A 
HETATM   27  C   UNL     1      43.781 -13.447   6.761  1.00  0.00     0.005 A 
HETATM   28  C   UNL     1      43.053 -13.553   5.575  1.00  0.00     0.030 A 
ENDBRANCH  16  19
ENDBRANCH   1  15
TORSDOF 5
ENDMDL
MODEL 5
REMARK VINA RESULT:      -7.8      5.235      8.934
REMARK  5 active torsions:
REMARK  status: ('A' for Active; 'I' for Inactive)
REMARK    1  A    between atoms: C_5  and  C_6 
REMARK    2  A    between atoms: C_9  and  O_10 
REMARK    3  A    between atoms: O_10  and  C_11 
REMARK    4  A    between atoms: C_11  and  C_12 
REMARK       I    between atoms: C_12  and  N_13 
REMARK    5  A    between atoms: N_13  and  C_14 
ROOT
HETATM    1  C   UNL     1      45.418 -13.084   7.898  1.00  0.00     0.278 C 
ENDROOT
BRANCH   1   2
HETATM    2  O   UNL     1      44.473 -14.134   8.082  1.00  0.00    -0.342 OA
BRANCH   2   3
HETATM    3  C   UNL     1      44.193 -14.898   6.983  1.00  0.00     0.069 A 
HETATM    4  C   UNL     1      44.370 -16.272   7.148  1.00  0.00     0.038 A 
HETATM    5  C   UNL     1      44.077 -17.153   6.104  1.00  0.00     0.018 A 
HETATM    6  C   UNL     1      43.578 -16.673   4.885  1.00  0.00     0.015 A 
HETATM    7  C   UNL     1      43.384 -15.291   4.738  1.00  0.00     0.018 A 
HETATM    8  C   UNL     1      43.687 -14.406   5.781  1.00  0.00     0.038 A 
BRANCH   6   9
HETATM    9  C   UNL     1      43.260 -17.595   3.803  1.00  0.00     0.198 A 
HETATM   10  N   UNL     1      42.370 -17.287   2.796  1.00  0.00    -0.136 NA
HETATM   11  N   UNL     1      42.330 -18.334   1.984  1.00  0.00     0.024 NA
HETATM   12  N   UNL     1      43.180 -19.215   2.527  1.00  0.00    -0.196 N 
HETATM   13  C   UNL     1      43.450 -20.489   1.919  1.00  0.00     0.200 C 
HETATM   14  N   UNL     1      43.793 -18.823   3.658  1.00  0.00    -0.137 NA
ENDBRANCH   6   9
ENDBRANCH   2   3
ENDBRANCH   1   2
BRANCH   1  15
HETATM   15  C   UNL     1      45.236 -11.883   8.834  1.00  0.00     0.246 C 
HETATM   16  N   UNL     1      44.031 -11.899   9.509  1.00  0.00    -0.324 N 
HETATM   17  H   UNL     1      43.417 -12.675   9.286  1.00  0.00     0.169 HD
HETATM   18  O   UNL     1      46.108 -11.021   8.913  1.00  0.00    -0.271 OA
BRANCH  16  19
HETATM   19  C   UNL     1      43.536 -10.963  10.437  1.00  0.00     0.047 A 
HETATM   20  C   UNL     1      42.498 -10.087  10.022  1.00  0.00     0.019 A 
HETATM   21  C   UNL     1      41.990  -9.155  10.931  1.00  0.00     0.044 A 
HETATM   22  C   UNL     1      41.787  -9.888   8.798  1.00  0.00     0.033 A 
HETATM   23  N   UNL     1      41.013  -8.434  10.280  1.00  0.00    -0.365 N 
HETATM   24  C   UNL     1      42.455  -9.046  12.244  1.00  0.00     0.030 A 
HETATM   25  H   UNL     1      40.476  -7.689  10.702  1.00  0.00     0.165 HD
HETATM   26  C   UNL     1      40.885  -8.867   8.989  1.00  0.00     0.089 A 
HETATM   27  C   UNL     1      43.475  -9.913  12.638  1.00  0.00     0.005 A 
HETATM   28  C   UNL     1      44.008 -10.851  11.753  1.00  0.00     0.030 A 
ENDBRANCH  16  19
ENDBRANCH   1  15
TORSDOF 5
ENDMDL
MODEL 6
REMARK VINA RESULT:      -7.7      3.480      5.010
REMARK  5 active torsions:
REMARK  status: ('A' for Active; 'I' for Inactive)
REMARK    1  A    between atoms: C_5  and  C_6 
REMARK    2  A    between atoms: C_9  and  O_10 
REMARK    3  A    between atoms: O_10  and  C_11 
REMARK    4  A    between atoms: C_11  and  C_12 
REMARK       I    between atoms: C_12  and  N_13 
REMARK    5  A    between atoms: N_13  and  C_14 
ROOT
HETATM    1  C   UNL     1      41.882 -16.620   0.583  1.00  0.00     0.278 C 
ENDROOT
BRANCH   1   2
HETATM    2  O   UNL     1      40.654 -16.684   1.303  1.00  0.00    -0.342 OA
BRANCH   2   3
HETATM    3  C   UNL     1      40.494 -15.775   2.312  1.00  0.00     0.069 A 
HETATM    4  C   UNL     1      39.782 -14.624   1.974  1.00  0.00     0.038 A 
HETATM    5  C   UNL     1      39.524 -13.644   2.936  1.00  0.00     0.018 A 
HETATM    6  C   UNL     1      39.954 -13.813   4.259  1.00  0.00     0.015 A 
HETATM    7  C   UNL     1      40.651 -14.985   4.592  1.00  0.00     0.018 A 
HETATM    8  C   UNL     1      40.918 -15.964   3.626  1.00  0.00     0.038 A 
BRANCH   6   9
HETATM    9  C   UNL     1      39.671 -12.797   5.263  1.00  0.00     0.198 A 
HETATM   10  N   UNL     1      39.247 -11.526   4.940  1.00  0.00    -0.136 NA
HETATM   11  N   UNL     1      39.074 -10.875   6.082  1.00  0.00     0.024 NA
HETATM   12  N   UNL     1      39.397 -11.766   7.030  1.00  0.00    -0.196 N 
HETATM   13  C   UNL     1      39.308 -11.455   8.430  1.00  0.00     0.200 C 
HETATM   14  N   UNL     1      39.777 -12.979   6.593  1.00  0.00    -0.137 NA
ENDBRANCH   6   9
ENDBRANCH   2   3
ENDBRANCH   1   2
BRANCH   1  15
HETATM   15  C   UNL     1      43.007 -17.495   1.150  1.00  0.00     0.246 C 
HETATM   16  N   UNL     1      42.546 -18.656   1.738  1.00  0.00    -0.324 N 
HETATM   17  H   UNL     1      41.538 -18.771   1.746  1.00  0.00     0.169 HD
HETATM   18  O   UNL     1      44.177 -17.130   1.069  1.00  0.00    -0.271 OA
BRANCH  16  19
HETATM   19  C   UNL     1      43.291 -19.680   2.354  1.00  0.00     0.047 A 
HETATM   20  C   UNL     1      43.814 -19.443   3.654  1.00  0.00     0.019 A 
HETATM   21  C   UNL     1      44.551 -20.449   4.284  1.00  0.00     0.044 A 
HETATM   22  C   UNL     1      43.787 -18.335   4.557  1.00  0.00     0.033 A 
HETATM   23  N   UNL     1      44.943 -19.965   5.513  1.00  0.00    -0.365 N 
HETATM   24  C   UNL     1      44.798 -21.691   3.693  1.00  0.00     0.030 A 
HETATM   25  H   UNL     1      45.493 -20.485   6.182  1.00  0.00     0.165 HD
HETATM   26  C   UNL     1      44.490 -18.686   5.685  1.00  0.00     0.089 A 
HETATM   27  C   UNL     1      44.278 -21.909   2.417  1.00  0.00     0.005 A 
HETATM   28  C   UNL     1      43.542 -20.924   1.757  1.00  0.00     0.030 A 
ENDBRANCH  16  19
ENDBRANCH   1  15
TORSDOF 5
ENDMDL
MODEL 7
REMARK VINA RESULT:      -7.6      2.391      3.742
REMARK  5 active torsions:
REMARK  status: ('A' for Active; 'I' for Inactive)
REMARK    1  A    between atoms: C_5  and  C_6 
REMARK    2  A    between atoms: C_9  and  O_10 
REMARK    3  A    between atoms: O_10  and  C_11 
REMARK    4  A    between atoms: C_11  and  C_12 
REMARK       I    between atoms: C_12  and  N_13 
REMARK    5  A    between atoms: N_13  and  C_14 
ROOT
HETATM    1  C   UNL     1      43.256 -16.541   5.645  1.00  0.00     0.278 C 
ENDROOT
BRANCH   1   2
HETATM    2  O   UNL     1      42.320 -15.498   5.387  1.00  0.00    -0.342 OA
BRANCH   2   3
HETATM    3  C   UNL     1      41.967 -15.308   4.080  1.00  0.00     0.069 A 
HETATM    4  C   UNL     1      40.598 -15.357   3.817  1.00  0.00     0.038 A 
HETATM    5  C   UNL     1      40.118 -15.138   2.524  1.00  0.00     0.018 A 
HETATM    6  C   UNL     1      41.001 -14.843   1.476  1.00  0.00     0.015 A 
HETATM    7  C   UNL     1      42.374 -14.776   1.757  1.00  0.00     0.018 A 
HETATM    8  C   UNL     1      42.857 -15.004   3.052  1.00  0.00     0.038 A 
BRANCH   6   9
HETATM    9  C   UNL     1      40.497 -14.601   0.131  1.00  0.00     0.198 A 
HETATM   10  N   UNL     1      39.232 -14.109  -0.115  1.00  0.00    -0.136 NA
HETATM   11  N   UNL     1      39.111 -14.000  -1.431  1.00  0.00     0.024 NA
HETATM   12  N   UNL     1      40.286 -14.425  -1.914  1.00  0.00    -0.196 N 
HETATM   13  C   UNL     1      40.575 -14.431  -3.322  1.00  0.00     0.200 C 
HETATM   14  N   UNL     1      41.194 -14.813  -1.001  1.00  0.00    -0.137 NA
ENDBRANCH   6   9
ENDBRANCH   2   3
ENDBRANCH   1   2
BRANCH   1  15
HETATM   15  C   UNL     1      42.936 -17.876   4.960  1.00  0.00     0.246 C 
HETATM   16  N   UNL     1      43.964 -18.336   4.162  1.00  0.00    -0.324 N 
HETATM   17  H   UNL     1      44.778 -17.732   4.107  1.00  0.00     0.169 HD
HETATM   18  O   UNL     1      41.847 -18.417   5.136  1.00  0.00    -0.271 OA
BRANCH  16  19
HETATM   19  C   UNL     1      44.014 -19.514   3.392  1.00  0.00     0.047 A 
HETATM   20  C   UNL     1      44.390 -20.723   4.036  1.00  0.00     0.019 A 
HETATM   21  C   UNL     1      44.439 -21.904   3.291  1.00  0.00     0.044 A 
HETATM   22  C   UNL     1      44.777 -21.069   5.368  1.00  0.00     0.033 A 
HETATM   23  N   UNL     1      44.834 -22.913   4.141  1.00  0.00    -0.365 N 
HETATM   24  C   UNL     1      44.129 -21.954   1.928  1.00  0.00     0.030 A 
HETATM   25  H   UNL     1      44.955 -23.878   3.866  1.00  0.00     0.165 HD
HETATM   26  C   UNL     1      45.045 -22.418   5.399  1.00  0.00     0.089 A 
HETATM   27  C   UNL     1      43.762 -20.759   1.310  1.00  0.00     0.005 A 
HETATM   28  C   UNL     1      43.708 -19.561   2.025  1.00  0.00     0.030 A 
ENDBRANCH  16  19
ENDBRANCH   1  15
TORSDOF 5
ENDMDL
MODEL 8
REMARK VINA RESULT:      -7.6      4.716      6.931
REMARK  5 active torsions:
REMARK  status: ('A' for Active; 'I' for Inactive)
REMARK    1  A    between atoms: C_5  and  C_6 
REMARK    2  A    between atoms: C_9  and  O_10 
REMARK    3  A    between atoms: O_10  and  C_11 
REMARK    4  A    between atoms: C_11  and  C_12 
REMARK       I    between atoms: C_12  and  N_13 
REMARK    5  A    between atoms: N_13  and  C_14 
ROOT
HETATM    1  C   UNL     1      41.565 -15.790   1.323  1.00  0.00     0.278 C 
ENDROOT
BRANCH   1   2
HETATM    2  O   UNL     1      41.941 -15.176   0.094  1.00  0.00    -0.342 OA
BRANCH   2   3
HETATM    3  C   UNL     1      40.949 -15.015  -0.833  1.00  0.00     0.069 A 
HETATM    4  C   UNL     1      39.889 -14.197  -0.440  1.00  0.00     0.038 A 
HETATM    5  C   UNL     1      38.838 -13.930  -1.321  1.00  0.00     0.018 A 
HETATM    6  C   UNL     1      38.844 -14.459  -2.619  1.00  0.00     0.015 A 
HETATM    7  C   UNL     1      39.925 -15.263  -3.010  1.00  0.00     0.018 A 
HETATM    8  C   UNL     1      40.975 -15.539  -2.124  1.00  0.00     0.038 A 
BRANCH   6   9
HETATM    9  C   UNL     1      37.754 -14.167  -3.539  1.00  0.00     0.198 A 
HETATM   10  N   UNL     1      37.125 -15.140  -4.286  1.00  0.00    -0.136 NA
HETATM   11  N   UNL     1      36.184 -14.534  -4.996  1.00  0.00     0.024 NA
HETATM   12  N   UNL     1      36.283 -13.243  -4.655  1.00  0.00    -0.196 N 
HETATM   13  C   UNL     1      35.402 -12.242  -5.191  1.00  0.00     0.200 C 
HETATM   14  N   UNL     1      37.237 -12.942  -3.756  1.00  0.00    -0.137 NA
ENDBRANCH   6   9
ENDBRANCH   2   3
ENDBRANCH   1   2
BRANCH   1  15
HETATM   15  C   UNL     1      42.731 -16.351   2.147  1.00  0.00     0.246 C 
HETATM   16  N   UNL     1      42.489 -17.620   2.634  1.00  0.00    -0.324 N 
HETATM   17  H   UNL     1      41.577 -18.006   2.413  1.00  0.00     0.169 HD
HETATM   18  O   UNL     1      43.741 -15.676   2.329  1.00  0.00    -0.271 OA
BRANCH  16  19
HETATM   19  C   UNL     1      43.330 -18.429   3.422  1.00  0.00     0.047 A 
HETATM   20  C   UNL     1      43.686 -19.712   2.927  1.00  0.00     0.019 A 
HETATM   21  C   UNL     1      44.525 -20.527   3.691  1.00  0.00     0.044 A 
HETATM   22  C   UNL     1      43.366 -20.453   1.747  1.00  0.00     0.033 A 
HETATM   23  N   UNL     1      44.703 -21.703   2.996  1.00  0.00    -0.365 N 
HETATM   24  C   UNL     1      45.040 -20.135   4.930  1.00  0.00     0.030 A 
HETATM   25  H   UNL     1      45.267 -22.477   3.318  1.00  0.00     0.165 HD
HETATM   26  C   UNL     1      44.004 -21.670   1.821  1.00  0.00     0.089 A 
HETATM   27  C   UNL     1      44.682 -18.873   5.403  1.00  0.00     0.005 A 
HETATM   28  C   UNL     1      43.841 -18.036   4.667  1.00  0.00     0.030 A 
ENDBRANCH  16  19
ENDBRANCH   1  15
TORSDOF 5
ENDMDL
MODEL 9
REMARK VINA RESULT:      -7.6      5.281      8.750
REMARK  5 active torsions:
REMARK  status: ('A' for Active; 'I' for Inactive)
REMARK    1  A    between atoms: C_5  and  C_6 
REMARK    2  A    between atoms: C_9  and  O_10 
REMARK    3  A    between atoms: O_10  and  C_11 
REMARK    4  A    between atoms: C_11  and  C_12 
REMARK       I    between atoms: C_12  and  N_13 
REMARK    5  A    between atoms: N_13  and  C_14 
ROOT
HETATM    1  C   UNL     1      45.517 -12.956   7.898  1.00  0.00     0.278 C 
ENDROOT
BRANCH   1   2
HETATM    2  O   UNL     1      44.709 -14.101   8.154  1.00  0.00    -0.342 OA
BRANCH   2   3
HETATM    3  C   UNL     1      44.214 -14.753   7.059  1.00  0.00     0.069 A 
HETATM    4  C   UNL     1      43.896 -13.939   5.971  1.00  0.00     0.038 A 
HETATM    5  C   UNL     1      43.419 -14.499   4.784  1.00  0.00     0.018 A 
HETATM    6  C   UNL     1      43.275 -15.888   4.659  1.00  0.00     0.015 A 
HETATM    7  C   UNL     1      43.618 -16.698   5.752  1.00  0.00     0.018 A 
HETATM    8  C   UNL     1      44.088 -16.136   6.946  1.00  0.00     0.038 A 
BRANCH   6   9
HETATM    9  C   UNL     1      42.791 -16.471   3.415  1.00  0.00     0.198 A 
HETATM   10  N   UNL     1      42.614 -17.828   3.245  1.00  0.00    -0.136 NA
HETATM   11  N   UNL     1      42.155 -18.005   2.014  1.00  0.00     0.024 NA
HETATM   12  N   UNL     1      42.078 -16.770   1.501  1.00  0.00    -0.196 N 
HETATM   13  C   UNL     1      41.586 -16.523   0.173  1.00  0.00     0.200 C 
HETATM   14  N   UNL     1      42.458 -15.769   2.316  1.00  0.00    -0.137 NA
ENDBRANCH   6   9
ENDBRANCH   2   3
ENDBRANCH   1   2
BRANCH   1  15
HETATM   15  C   UNL     1      45.279 -11.775   8.847  1.00  0.00     0.246 C 
HETATM   16  N   UNL     1      44.079 -11.857   9.525  1.00  0.00    -0.324 N 
HETATM   17  H   UNL     1      43.502 -12.660   9.295  1.00  0.00     0.169 HD
HETATM   18  O   UNL     1      46.109 -10.872   8.933  1.00  0.00    -0.271 OA
BRANCH  16  19
HETATM   19  C   UNL     1      43.542 -10.957  10.466  1.00  0.00     0.047 A 
HETATM   20  C   UNL     1      42.404 -10.194  10.093  1.00  0.00     0.019 A 
HETATM   21  C   UNL     1      41.853  -9.300  11.015  1.00  0.00     0.044 A 
HETATM   22  C   UNL     1      41.614 -10.089   8.906  1.00  0.00     0.033 A 
HETATM   23  N   UNL     1      40.777  -8.690  10.407  1.00  0.00    -0.365 N 
HETATM   24  C   UNL     1      42.372  -9.121  12.300  1.00  0.00     0.030 A 
HETATM   25  H   UNL     1      40.192  -7.993  10.846  1.00  0.00     0.165 HD
HETATM   26  C   UNL     1      40.627  -9.158   9.130  1.00  0.00     0.089 A 
HETATM   27  C   UNL     1      43.490  -9.876  12.652  1.00  0.00     0.005 A 
HETATM   28  C   UNL     1      44.068 -10.775  11.753  1.00  0.00     0.030 A 
ENDBRANCH  16  19
ENDBRANCH   1  15
TORSDOF 5
ENDMDL
MODEL 10
REMARK VINA RESULT:      -7.4      4.907      8.909
REMARK  5 active torsions:
REMARK  status: ('A' for Active; 'I' for Inactive)
REMARK    1  A    between atoms: C_5  and  C_6 
REMARK    2  A    between atoms: C_9  and  O_10 
REMARK    3  A    between atoms: O_10  and  C_11 
REMARK    4  A    between atoms: C_11  and  C_12 
REMARK       I    between atoms: C_12  and  N_13 
REMARK    5  A    between atoms: N_13  and  C_14 
ROOT
HETATM    1  C   UNL     1      45.150 -13.549   7.587  1.00  0.00     0.278 C 
ENDROOT
BRANCH   1   2
HETATM    2  O   UNL     1      44.263 -14.641   7.814  1.00  0.00    -0.342 OA
BRANCH   2   3
HETATM    3  C   UNL     1      44.109 -15.522   6.780  1.00  0.00     0.069 A 
HETATM    4  C   UNL     1      44.680 -16.780   6.976  1.00  0.00     0.038 A 
HETATM    5  C   UNL     1      44.551 -17.774   6.003  1.00  0.00     0.018 A 
HETATM    6  C   UNL     1      43.828 -17.531   4.827  1.00  0.00     0.015 A 
HETATM    7  C   UNL     1      43.240 -16.269   4.650  1.00  0.00     0.018 A 
HETATM    8  C   UNL     1      43.376 -15.269   5.622  1.00  0.00     0.038 A 
BRANCH   6   9
HETATM    9  C   UNL     1      43.683 -18.574   3.820  1.00  0.00     0.198 A 
HETATM   10  N   UNL     1      42.826 -18.463   2.747  1.00  0.00    -0.136 NA
HETATM   11  N   UNL     1      42.955 -19.573   2.034  1.00  0.00     0.024 NA
HETATM   12  N   UNL     1      43.868 -20.295   2.696  1.00  0.00    -0.196 N 
HETATM   13  C   UNL     1      44.319 -21.575   2.222  1.00  0.00     0.200 C 
HETATM   14  N   UNL     1      44.363 -19.737   3.815  1.00  0.00    -0.137 NA
ENDBRANCH   6   9
ENDBRANCH   2   3
ENDBRANCH   1   2
BRANCH   1  15
HETATM   15  C   UNL     1      44.768 -12.249   8.306  1.00  0.00     0.246 C 
HETATM   16  N   UNL     1      43.403 -12.073   8.419  1.00  0.00    -0.324 N 
HETATM   17  H   UNL     1      42.833 -12.799   7.997  1.00  0.00     0.169 HD
HETATM   18  O   UNL     1      45.641 -11.479   8.700  1.00  0.00    -0.271 OA
BRANCH  16  19
HETATM   19  C   UNL     1      42.705 -11.004   9.013  1.00  0.00     0.047 A 
HETATM   20  C   UNL     1      42.755 -10.871  10.426  1.00  0.00     0.019 A 
HETATM   21  C   UNL     1      42.074  -9.813  11.035  1.00  0.00     0.044 A 
HETATM   22  C   UNL     1      43.368 -11.617  11.481  1.00  0.00     0.033 A 
HETATM   23  N   UNL     1      42.276  -9.919  12.393  1.00  0.00    -0.365 N 
HETATM   24  C   UNL     1      41.342  -8.867  10.311  1.00  0.00     0.030 A 
HETATM   25  H   UNL     1      41.894  -9.282  13.079  1.00  0.00     0.165 HD
HETATM   26  C   UNL     1      43.053 -11.009  12.674  1.00  0.00     0.089 A 
HETATM   27  C   UNL     1      41.302  -9.011   8.924  1.00  0.00     0.005 A 
HETATM   28  C   UNL     1      41.967 -10.059   8.286  1.00  0.00     0.030 A 
ENDBRANCH  16  19
ENDBRANCH   1  15
TORSDOF 5
ENDMDL
