MODEL 1
REMARK VINA RESULT:      -8.5      0.000      0.000
REMARK  9 active torsions:
REMARK  status: ('A' for Active; 'I' for Inactive)
REMARK    1  A    between atoms: C_4  and  C_5 
REMARK    2  A    between atoms: C_11  and  C_12 
REMARK    3  A    between atoms: C_15  and  C_16 
REMARK    4  A    between atoms: C_16  and  N_17 
REMARK    5  A    between atoms: N_17  and  C_18 
REMARK    6  A    between atoms: C_18  and  N_19 
REMARK    7  A    between atoms: N_19  and  C_20 
REMARK    8  A    between atoms: C_22  and  C_23 
REMARK    9  A    between atoms: C_23  and  O_24 
ROOT
HETATM    1  C   UNL     1      41.071 -15.167   4.048  1.00  0.00     0.067 C 
HETATM    2  C   UNL     1      41.795 -13.858   3.625  1.00  0.00     0.001 C 
HETATM    3  C   UNL     1      43.162 -13.724   4.336  1.00  0.00     0.040 C 
HETATM    4  C   UNL     1      42.972 -13.611   5.857  1.00  0.00     0.206 C 
HETATM    5  N   UNL     1      41.499 -13.905   6.162  1.00  0.00    -0.065 N 
HETATM    6  H   UNL     1      41.382 -13.946   7.185  1.00  0.00     0.280 HD
HETATM    7  C   UNL     1      41.022 -15.230   5.590  1.00  0.00     0.246 C 
HETATM    8  C   UNL     1      40.917 -12.676   4.100  1.00  0.00     0.033 C 
HETATM    9  C   UNL     1      40.646 -12.777   5.607  1.00  0.00     0.236 C 
ENDROOT
BRANCH   4  10
HETATM   10  C   UNL     1      43.938 -14.451   6.718  1.00  0.00     0.155 C 
BRANCH  10  11
HETATM   11  N   UNL     1      45.198 -13.794   7.047  1.00  0.00    -0.365 N 
HETATM   12  H   UNL     1      45.840 -13.629   6.280  1.00  0.00     0.161 HD
BRANCH  11  13
HETATM   13  C   UNL     1      45.399 -12.940   8.099  1.00  0.00     0.172 C 
HETATM   14  S   UNL     1      46.668 -11.862   8.189  1.00  0.00    -0.041 SA
BRANCH  13  15
HETATM   15  N   UNL     1      44.413 -12.906   9.048  1.00  0.00    -0.333 N 
HETATM   16  H   UNL     1      43.936 -13.794   9.186  1.00  0.00     0.168 HD
BRANCH  15  17
HETATM   17  C   UNL     1      43.882 -11.809   9.766  1.00  0.00     0.035 A 
HETATM   18  C   UNL     1      42.806 -11.048   9.303  1.00  0.00     0.047 A 
HETATM   19  C   UNL     1      42.346  -9.934  10.017  1.00  0.00     0.041 A 
HETATM   20  C   UNL     1      42.925  -9.613  11.244  1.00  0.00     0.018 A 
HETATM   21  C   UNL     1      43.959 -10.408  11.746  1.00  0.00     0.003 A 
HETATM   22  C   UNL     1      44.431 -11.503  11.012  1.00  0.00     0.029 A 
BRANCH  19  23
HETATM   23  C   UNL     1      41.276  -9.124   9.383  1.00  0.00     0.293 C 
HETATM   24  O   UNL     1      41.105  -7.942   9.648  1.00  0.00    -0.259 OA
BRANCH  23  25
HETATM   25  O   UNL     1      40.574  -9.866   8.497  1.00  0.00    -0.323 OA
HETATM   26  C   UNL     1      39.234 -10.146   8.908  1.00  0.00     0.213 C 
ENDBRANCH  23  25
ENDBRANCH  19  23
ENDBRANCH  15  17
ENDBRANCH  13  15
ENDBRANCH  11  13
ENDBRANCH  10  11
ENDBRANCH   4  10
BRANCH   1  27
HETATM   27  C   UNL     1      41.617 -16.426   3.429  1.00  0.00     0.038 A 
HETATM   28  N   UNL     1      41.526 -16.709   2.082  1.00  0.00    -0.277 N 
HETATM   29  C   UNL     1      40.942 -15.910   1.027  1.00  0.00     0.179 C 
HETATM   30  N   UNL     1      42.066 -17.886   1.745  1.00  0.00    -0.172 NA
HETATM   31  C   UNL     1      42.627 -18.342   2.868  1.00  0.00     0.096 A 
HETATM   32  C   UNL     1      42.356 -17.475   3.951  1.00  0.00     0.062 A 
BRANCH  31  33
HETATM   33  C   UNL     1      43.445 -19.598   2.893  1.00  0.00     0.035 A 
HETATM   34  S   UNL     1      44.513 -20.035   4.154  1.00  0.00    -0.100 SA
HETATM   35  C   UNL     1      44.990 -21.463   3.340  1.00  0.00     0.050 A 
HETATM   36  C   UNL     1      44.342 -21.610   2.133  1.00  0.00     0.008 A 
HETATM   37  C   UNL     1      43.441 -20.535   1.879  1.00  0.00     0.022 A 
ENDBRANCH  31  33
ENDBRANCH   1  27
TORSDOF 9
ENDMDL
MODEL 2
REMARK VINA RESULT:      -8.5      4.825      8.212
REMARK  9 active torsions:
REMARK  status: ('A' for Active; 'I' for Inactive)
REMARK    1  A    between atoms: C_4  and  C_5 
REMARK    2  A    between atoms: C_11  and  C_12 
REMARK    3  A    between atoms: C_15  and  C_16 
REMARK    4  A    between atoms: C_16  and  N_17 
REMARK    5  A    between atoms: N_17  and  C_18 
REMARK    6  A    between atoms: C_18  and  N_19 
REMARK    7  A    between atoms: N_19  and  C_20 
REMARK    8  A    between atoms: C_22  and  C_23 
REMARK    9  A    between atoms: C_23  and  O_24 
ROOT
HETATM    1  C   UNL     1      42.690 -15.150   4.082  1.00  0.00     0.067 C 
HETATM    2  C   UNL     1      41.139 -15.065   4.041  1.00  0.00     0.001 C 
HETATM    3  C   UNL     1      40.596 -15.477   2.652  1.00  0.00     0.040 C 
HETATM    4  C   UNL     1      41.086 -14.504   1.569  1.00  0.00     0.206 C 
HETATM    5  N   UNL     1      42.137 -13.590   2.210  1.00  0.00    -0.065 N 
HETATM    6  H   UNL     1      42.557 -13.010   1.469  1.00  0.00     0.280 HD
HETATM    7  C   UNL     1      43.262 -14.355   2.888  1.00  0.00     0.246 C 
HETATM    8  C   UNL     1      40.756 -13.582   4.257  1.00  0.00     0.033 C 
HETATM    9  C   UNL     1      41.454 -12.689   3.224  1.00  0.00     0.236 C 
ENDROOT
BRANCH   4  10
HETATM   10  C   UNL     1      41.578 -15.150   0.258  1.00  0.00     0.155 C 
BRANCH  10  11
HETATM   11  N   UNL     1      40.594 -15.183  -0.818  1.00  0.00    -0.365 N 
HETATM   12  H   UNL     1      39.631 -14.995  -0.562  1.00  0.00     0.161 HD
BRANCH  11  13
HETATM   13  C   UNL     1      40.851 -14.927  -2.139  1.00  0.00     0.172 C 
HETATM   14  S   UNL     1      39.769 -15.232  -3.371  1.00  0.00    -0.041 SA
BRANCH  13  15
HETATM   15  N   UNL     1      42.018 -14.264  -2.412  1.00  0.00    -0.333 N 
HETATM   16  H   UNL     1      42.855 -14.831  -2.301  1.00  0.00     0.168 HD
BRANCH  15  17
HETATM   17  C   UNL     1      42.240 -12.897  -2.696  1.00  0.00     0.035 A 
HETATM   18  C   UNL     1      42.874 -12.029  -1.805  1.00  0.00     0.047 A 
HETATM   19  C   UNL     1      43.024 -10.668  -2.102  1.00  0.00     0.041 A 
HETATM   20  C   UNL     1      42.593 -10.178  -3.334  1.00  0.00     0.018 A 
HETATM   21  C   UNL     1      42.015 -11.053  -4.258  1.00  0.00     0.003 A 
HETATM   22  C   UNL     1      41.844 -12.406  -3.942  1.00  0.00     0.029 A 
BRANCH  19  23
HETATM   23  C   UNL     1      43.607  -9.809  -1.041  1.00  0.00     0.293 C 
HETATM   24  O   UNL     1      44.496  -8.999  -1.268  1.00  0.00    -0.259 OA
BRANCH  23  25
HETATM   25  O   UNL     1      43.009 -10.043   0.149  1.00  0.00    -0.323 OA
HETATM   26  C   UNL     1      41.901  -9.183   0.422  1.00  0.00     0.213 C 
ENDBRANCH  23  25
ENDBRANCH  19  23
ENDBRANCH  15  17
ENDBRANCH  13  15
ENDBRANCH  11  13
ENDBRANCH  10  11
ENDBRANCH   4  10
BRANCH   1  27
HETATM   27  C   UNL     1      43.250 -16.544   4.177  1.00  0.00     0.038 A 
HETATM   28  N   UNL     1      43.797 -17.064   5.333  1.00  0.00    -0.277 N 
HETATM   29  C   UNL     1      43.932 -16.439   6.630  1.00  0.00     0.179 C 
HETATM   30  N   UNL     1      44.246 -18.317   5.196  1.00  0.00    -0.172 NA
HETATM   31  C   UNL     1      43.890 -18.678   3.961  1.00  0.00     0.096 A 
HETATM   32  C   UNL     1      43.284 -17.598   3.278  1.00  0.00     0.062 A 
BRANCH  31  33
HETATM   33  C   UNL     1      44.110 -20.068   3.446  1.00  0.00     0.035 A 
HETATM   34  S   UNL     1      44.778 -21.347   4.362  1.00  0.00    -0.100 SA
HETATM   35  C   UNL     1      44.699 -22.423   3.034  1.00  0.00     0.050 A 
HETATM   36  C   UNL     1      44.166 -21.824   1.914  1.00  0.00     0.008 A 
HETATM   37  C   UNL     1      43.817 -20.462   2.156  1.00  0.00     0.022 A 
ENDBRANCH  31  33
ENDBRANCH   1  27
TORSDOF 9
ENDMDL
MODEL 3
REMARK VINA RESULT:      -8.4      4.582      8.071
REMARK  9 active torsions:
REMARK  status: ('A' for Active; 'I' for Inactive)
REMARK    1  A    between atoms: C_4  and  C_5 
REMARK    2  A    between atoms: C_11  and  C_12 
REMARK    3  A    between atoms: C_15  and  C_16 
REMARK    4  A    between atoms: C_16  and  N_17 
REMARK    5  A    between atoms: N_17  and  C_18 
REMARK    6  A    between atoms: C_18  and  N_19 
REMARK    7  A    between atoms: N_19  and  C_20 
REMARK    8  A    between atoms: C_22  and  C_23 
REMARK    9  A    between atoms: C_23  and  O_24 
ROOT
HETATM    1  C   UNL     1      43.017 -14.971   4.530  1.00  0.00     0.067 C 
HETATM    2  C   UNL     1      41.702 -14.715   5.317  1.00  0.00     0.001 C 
HETATM    3  C   UNL     1      40.469 -15.183   4.509  1.00  0.00     0.040 C 
HETATM    4  C   UNL     1      40.332 -14.369   3.213  1.00  0.00     0.206 C 
HETATM    5  N   UNL     1      41.604 -13.528   3.058  1.00  0.00    -0.065 N 
HETATM    6  H   UNL     1      41.577 -13.066   2.138  1.00  0.00     0.280 HD
HETATM    7  C   UNL     1      42.878 -14.353   3.121  1.00  0.00     0.246 C 
HETATM    8  C   UNL     1      41.571 -13.185   5.503  1.00  0.00     0.033 C 
HETATM    9  C   UNL     1      41.631 -12.470   4.148  1.00  0.00     0.236 C 
ENDROOT
BRANCH   4  10
HETATM   10  C   UNL     1      39.995 -15.178   1.944  1.00  0.00     0.155 C 
BRANCH  10  11
HETATM   11  N   UNL     1      38.651 -14.967   1.419  1.00  0.00    -0.365 N 
HETATM   12  H   UNL     1      37.879 -15.245   2.015  1.00  0.00     0.161 HD
BRANCH  11  13
HETATM   13  C   UNL     1      38.295 -14.012   0.504  1.00  0.00     0.172 C 
HETATM   14  S   UNL     1      37.598 -12.551   0.910  1.00  0.00    -0.041 SA
BRANCH  13  15
HETATM   15  N   UNL     1      38.665 -14.247  -0.793  1.00  0.00    -0.333 N 
HETATM   16  H   UNL     1      38.001 -14.808  -1.321  1.00  0.00     0.168 HD
BRANCH  15  17
HETATM   17  C   UNL     1      39.873 -13.940  -1.462  1.00  0.00     0.035 A 
HETATM   18  C   UNL     1      40.699 -12.878  -1.090  1.00  0.00     0.047 A 
HETATM   19  C   UNL     1      41.858 -12.573  -1.815  1.00  0.00     0.041 A 
HETATM   20  C   UNL     1      42.235 -13.380  -2.888  1.00  0.00     0.018 A 
HETATM   21  C   UNL     1      41.448 -14.484  -3.227  1.00  0.00     0.003 A 
HETATM   22  C   UNL     1      40.276 -14.765  -2.514  1.00  0.00     0.029 A 
BRANCH  19  23
HETATM   23  C   UNL     1      42.604 -11.355  -1.409  1.00  0.00     0.293 C 
HETATM   24  O   UNL     1      43.235 -11.292  -0.362  1.00  0.00    -0.259 OA
BRANCH  23  25
HETATM   25  O   UNL     1      42.491 -10.388  -2.346  1.00  0.00    -0.323 OA
HETATM   26  C   UNL     1      42.553  -9.060  -1.822  1.00  0.00     0.213 C 
ENDBRANCH  23  25
ENDBRANCH  19  23
ENDBRANCH  15  17
ENDBRANCH  13  15
ENDBRANCH  11  13
ENDBRANCH  10  11
ENDBRANCH   4  10
BRANCH   1  27
HETATM   27  C   UNL     1      43.471 -16.406   4.495  1.00  0.00     0.038 A 
HETATM   28  N   UNL     1      43.983 -17.065   5.595  1.00  0.00    -0.277 N 
HETATM   29  C   UNL     1      44.171 -16.569   6.940  1.00  0.00     0.179 C 
HETATM   30  N   UNL     1      44.336 -18.331   5.343  1.00  0.00    -0.172 NA
HETATM   31  C   UNL     1      43.947 -18.554   4.085  1.00  0.00     0.096 A 
HETATM   32  C   UNL     1      43.421 -17.376   3.507  1.00  0.00     0.062 A 
BRANCH  31  33
HETATM   33  C   UNL     1      44.059 -19.906   3.447  1.00  0.00     0.035 A 
HETATM   34  S   UNL     1      44.791 -21.265   4.180  1.00  0.00    -0.100 SA
HETATM   35  C   UNL     1      44.519 -22.236   2.797  1.00  0.00     0.050 A 
HETATM   36  C   UNL     1      43.874 -21.541   1.797  1.00  0.00     0.008 A 
HETATM   37  C   UNL     1      43.601 -20.194   2.178  1.00  0.00     0.022 A 
ENDBRANCH  31  33
ENDBRANCH   1  27
TORSDOF 9
ENDMDL
MODEL 4
REMARK VINA RESULT:      -8.4      1.804      2.649
REMARK  9 active torsions:
REMARK  status: ('A' for Active; 'I' for Inactive)
REMARK    1  A    between atoms: C_4  and  C_5 
REMARK    2  A    between atoms: C_11  and  C_12 
REMARK    3  A    between atoms: C_15  and  C_16 
REMARK    4  A    between atoms: C_16  and  N_17 
REMARK    5  A    between atoms: N_17  and  C_18 
REMARK    6  A    between atoms: C_18  and  N_19 
REMARK    7  A    between atoms: N_19  and  C_20 
REMARK    8  A    between atoms: C_22  and  C_23 
REMARK    9  A    between atoms: C_23  and  O_24 
ROOT
HETATM    1  C   UNL     1      40.444 -14.649   2.478  1.00  0.00     0.067 C 
HETATM    2  C   UNL     1      41.228 -13.341   2.176  1.00  0.00     0.001 C 
HETATM    3  C   UNL     1      42.222 -13.013   3.314  1.00  0.00     0.040 C 
HETATM    4  C   UNL     1      41.471 -12.743   4.627  1.00  0.00     0.206 C 
HETATM    5  N   UNL     1      40.002 -13.121   4.406  1.00  0.00    -0.065 N 
HETATM    6  H   UNL     1      39.510 -13.055   5.309  1.00  0.00     0.280 HD
HETATM    7  C   UNL     1      39.821 -14.538   3.887  1.00  0.00     0.246 C 
HETATM    8  C   UNL     1      40.195 -12.190   2.126  1.00  0.00     0.033 C 
HETATM    9  C   UNL     1      39.382 -12.140   3.426  1.00  0.00     0.236 C 
ENDROOT
BRANCH   4  10
HETATM   10  C   UNL     1      42.070 -13.394   5.890  1.00  0.00     0.155 C 
BRANCH  10  11
HETATM   11  N   UNL     1      43.138 -14.355   5.639  1.00  0.00    -0.365 N 
HETATM   12  H   UNL     1      43.597 -14.302   4.737  1.00  0.00     0.161 HD
BRANCH  11  13
HETATM   13  C   UNL     1      43.921 -14.942   6.598  1.00  0.00     0.172 C 
HETATM   14  S   UNL     1      43.593 -16.427   7.282  1.00  0.00    -0.041 SA
BRANCH  13  15
HETATM   15  N   UNL     1      45.097 -14.306   6.892  1.00  0.00    -0.333 N 
HETATM   16  H   UNL     1      45.918 -14.727   6.463  1.00  0.00     0.168 HD
BRANCH  15  17
HETATM   17  C   UNL     1      45.355 -13.244   7.790  1.00  0.00     0.035 A 
HETATM   18  C   UNL     1      44.497 -12.913   8.841  1.00  0.00     0.047 A 
HETATM   19  C   UNL     1      44.761 -11.818   9.673  1.00  0.00     0.041 A 
HETATM   20  C   UNL     1      45.931 -11.081   9.496  1.00  0.00     0.018 A 
HETATM   21  C   UNL     1      46.828 -11.446   8.488  1.00  0.00     0.003 A 
HETATM   22  C   UNL     1      46.542 -12.525   7.642  1.00  0.00     0.029 A 
BRANCH  19  23
HETATM   23  C   UNL     1      43.729 -11.480  10.685  1.00  0.00     0.293 C 
HETATM   24  O   UNL     1      43.576 -12.133  11.709  1.00  0.00    -0.259 OA
BRANCH  23  25
HETATM   25  O   UNL     1      43.037 -10.378  10.317  1.00  0.00    -0.323 OA
HETATM   26  C   UNL     1      41.723 -10.654   9.827  1.00  0.00     0.213 C 
ENDBRANCH  23  25
ENDBRANCH  19  23
ENDBRANCH  15  17
ENDBRANCH  13  15
ENDBRANCH  11  13
ENDBRANCH  10  11
ENDBRANCH   4  10
BRANCH   1  27
HETATM   27  C   UNL     1      41.226 -15.921   2.284  1.00  0.00     0.038 A 
HETATM   28  N   UNL     1      41.594 -16.402   1.044  1.00  0.00    -0.277 N 
HETATM   29  C   UNL     1      41.345 -15.827  -0.260  1.00  0.00     0.179 C 
HETATM   30  N   UNL     1      42.274 -17.554   1.098  1.00  0.00    -0.172 NA
HETATM   31  C   UNL     1      42.461 -17.783   2.400  1.00  0.00     0.096 A 
HETATM   32  C   UNL     1      41.806 -16.803   3.181  1.00  0.00     0.062 A 
BRANCH  31  33
HETATM   33  C   UNL     1      43.288 -18.932   2.892  1.00  0.00     0.035 A 
HETATM   34  S   UNL     1      43.969 -19.036   4.456  1.00  0.00    -0.100 SA
HETATM   35  C   UNL     1      44.718 -20.533   4.098  1.00  0.00     0.050 A 
HETATM   36  C   UNL     1      44.448 -20.952   2.814  1.00  0.00     0.008 A 
HETATM   37  C   UNL     1      43.613 -20.028   2.119  1.00  0.00     0.022 A 
ENDBRANCH  31  33
ENDBRANCH   1  27
TORSDOF 9
ENDMDL
MODEL 5
REMARK VINA RESULT:      -8.4      1.391      2.051
REMARK  9 active torsions:
REMARK  status: ('A' for Active; 'I' for Inactive)
REMARK    1  A    between atoms: C_4  and  C_5 
REMARK    2  A    between atoms: C_11  and  C_12 
REMARK    3  A    between atoms: C_15  and  C_16 
REMARK    4  A    between atoms: C_16  and  N_17 
REMARK    5  A    between atoms: N_17  and  C_18 
REMARK    6  A    between atoms: C_18  and  N_19 
REMARK    7  A    between atoms: N_19  and  C_20 
REMARK    8  A    between atoms: C_22  and  C_23 
REMARK    9  A    between atoms: C_23  and  O_24 
ROOT
HETATM    1  C   UNL     1      41.098 -15.031   4.198  1.00  0.00     0.067 C 
HETATM    2  C   UNL     1      41.839 -13.747   3.732  1.00  0.00     0.001 C 
HETATM    3  C   UNL     1      43.252 -13.664   4.356  1.00  0.00     0.040 C 
HETATM    4  C   UNL     1      43.162 -13.548   5.885  1.00  0.00     0.206 C 
HETATM    5  N   UNL     1      41.702 -13.790   6.282  1.00  0.00    -0.065 N 
HETATM    6  H   UNL     1      41.647 -13.831   7.310  1.00  0.00     0.280 HD
HETATM    7  C   UNL     1      41.143 -15.096   5.741  1.00  0.00     0.246 C 
HETATM    8  C   UNL     1      41.035 -12.537   4.262  1.00  0.00     0.033 C 
HETATM    9  C   UNL     1      40.856 -12.632   5.782  1.00  0.00     0.236 C 
ENDROOT
BRANCH   4  10
HETATM   10  C   UNL     1      44.149 -14.423   6.684  1.00  0.00     0.155 C 
BRANCH  10  11
HETATM   11  N   UNL     1      45.373 -13.747   7.099  1.00  0.00    -0.365 N 
HETATM   12  H   UNL     1      46.060 -13.562   6.377  1.00  0.00     0.161 HD
BRANCH  11  13
HETATM   13  C   UNL     1      45.490 -12.901   8.170  1.00  0.00     0.172 C 
HETATM   14  S   UNL     1      46.691 -11.752   8.319  1.00  0.00    -0.041 SA
BRANCH  13  15
HETATM   15  N   UNL     1      44.475 -12.941   9.088  1.00  0.00    -0.333 N 
HETATM   16  H   UNL     1      44.218 -13.879   9.385  1.00  0.00     0.168 HD
BRANCH  15  17
HETATM   17  C   UNL     1      43.656 -11.898   9.581  1.00  0.00     0.035 A 
HETATM   18  C   UNL     1      43.528 -11.613  10.942  1.00  0.00     0.047 A 
HETATM   19  C   UNL     1      42.663 -10.608  11.393  1.00  0.00     0.041 A 
HETATM   20  C   UNL     1      41.964  -9.832  10.470  1.00  0.00     0.018 A 
HETATM   21  C   UNL     1      42.136 -10.067   9.103  1.00  0.00     0.003 A 
HETATM   22  C   UNL     1      42.982 -11.093   8.662  1.00  0.00     0.029 A 
BRANCH  19  23
HETATM   23  C   UNL     1      42.511 -10.462  12.863  1.00  0.00     0.293 C 
HETATM   24  O   UNL     1      41.627 -11.032  13.489  1.00  0.00    -0.259 OA
BRANCH  23  25
HETATM   25  O   UNL     1      43.470  -9.655  13.368  1.00  0.00    -0.323 OA
HETATM   26  C   UNL     1      42.964  -8.560  14.135  1.00  0.00     0.213 C 
ENDBRANCH  23  25
ENDBRANCH  19  23
ENDBRANCH  15  17
ENDBRANCH  13  15
ENDBRANCH  11  13
ENDBRANCH  10  11
ENDBRANCH   4  10
BRANCH   1  27
HETATM   27  C   UNL     1      41.560 -16.307   3.546  1.00  0.00     0.038 A 
HETATM   28  N   UNL     1      41.295 -16.624   2.229  1.00  0.00    -0.277 N 
HETATM   29  C   UNL     1      40.579 -15.850   1.239  1.00  0.00     0.179 C 
HETATM   30  N   UNL     1      41.787 -17.811   1.855  1.00  0.00    -0.172 NA
HETATM   31  C   UNL     1      42.489 -18.240   2.907  1.00  0.00     0.096 A 
HETATM   32  C   UNL     1      42.360 -17.345   3.995  1.00  0.00     0.062 A 
BRANCH  31  33
HETATM   33  C   UNL     1      43.303 -19.497   2.858  1.00  0.00     0.035 A 
HETATM   34  S   UNL     1      44.476 -19.939   4.020  1.00  0.00    -0.100 SA
HETATM   35  C   UNL     1      44.878 -21.366   3.164  1.00  0.00     0.050 A 
HETATM   36  C   UNL     1      44.127 -21.509   2.018  1.00  0.00     0.008 A 
HETATM   37  C   UNL     1      43.209 -20.431   1.846  1.00  0.00     0.022 A 
ENDBRANCH  31  33
ENDBRANCH   1  27
TORSDOF 9
ENDMDL
MODEL 6
REMARK VINA RESULT:      -8.4      4.441      8.004
REMARK  9 active torsions:
REMARK  status: ('A' for Active; 'I' for Inactive)
REMARK    1  A    between atoms: C_4  and  C_5 
REMARK    2  A    between atoms: C_11  and  C_12 
REMARK    3  A    between atoms: C_15  and  C_16 
REMARK    4  A    between atoms: C_16  and  N_17 
REMARK    5  A    between atoms: N_17  and  C_18 
REMARK    6  A    between atoms: C_18  and  N_19 
REMARK    7  A    between atoms: N_19  and  C_20 
REMARK    8  A    between atoms: C_22  and  C_23 
REMARK    9  A    between atoms: C_23  and  O_24 
ROOT
HETATM    1  C   UNL     1      42.470 -15.013   5.762  1.00  0.00     0.067 C 
HETATM    2  C   UNL     1      40.960 -14.832   5.446  1.00  0.00     0.001 C 
HETATM    3  C   UNL     1      40.715 -14.769   3.920  1.00  0.00     0.040 C 
HETATM    4  C   UNL     1      41.408 -13.540   3.311  1.00  0.00     0.206 C 
HETATM    5  N   UNL     1      42.299 -12.927   4.396  1.00  0.00    -0.065 N 
HETATM    6  H   UNL     1      42.857 -12.173   3.970  1.00  0.00     0.280 HD
HETATM    7  C   UNL     1      43.268 -13.925   5.010  1.00  0.00     0.246 C 
HETATM    8  C   UNL     1      40.530 -13.467   6.033  1.00  0.00     0.033 C 
HETATM    9  C   UNL     1      41.418 -12.341   5.487  1.00  0.00     0.236 C 
ENDROOT
BRANCH   4  10
HETATM   10  C   UNL     1      42.161 -13.781   1.987  1.00  0.00     0.155 C 
BRANCH  10  11
HETATM   11  N   UNL     1      42.505 -15.173   1.720  1.00  0.00    -0.365 N 
HETATM   12  H   UNL     1      42.884 -15.707   2.494  1.00  0.00     0.161 HD
BRANCH  11  13
HETATM   13  C   UNL     1      41.925 -15.966   0.765  1.00  0.00     0.172 C 
HETATM   14  S   UNL     1      41.069 -17.357   1.107  1.00  0.00    -0.041 SA
BRANCH  13  15
HETATM   15  N   UNL     1      41.960 -15.492  -0.519  1.00  0.00    -0.333 N 
HETATM   16  H   UNL     1      42.896 -15.296  -0.866  1.00  0.00     0.168 HD
BRANCH  15  17
HETATM   17  C   UNL     1      40.900 -15.120  -1.378  1.00  0.00     0.035 A 
HETATM   18  C   UNL     1      39.944 -14.161  -1.034  1.00  0.00     0.047 A 
HETATM   19  C   UNL     1      38.877 -13.862  -1.891  1.00  0.00     0.041 A 
HETATM   20  C   UNL     1      38.797 -14.481  -3.137  1.00  0.00     0.018 A 
HETATM   21  C   UNL     1      39.785 -15.394  -3.517  1.00  0.00     0.003 A 
HETATM   22  C   UNL     1      40.833 -15.708  -2.642  1.00  0.00     0.029 A 
BRANCH  19  23
HETATM   23  C   UNL     1      37.853 -12.915  -1.383  1.00  0.00     0.293 C 
HETATM   24  O   UNL     1      37.379 -12.027  -2.079  1.00  0.00    -0.259 OA
BRANCH  23  25
HETATM   25  O   UNL     1      37.535 -13.195  -0.099  1.00  0.00    -0.323 OA
HETATM   26  C   UNL     1      36.760 -12.179   0.542  1.00  0.00     0.213 C 
ENDBRANCH  23  25
ENDBRANCH  19  23
ENDBRANCH  15  17
ENDBRANCH  13  15
ENDBRANCH  11  13
ENDBRANCH  10  11
ENDBRANCH   4  10
BRANCH   1  27
HETATM   27  C   UNL     1      43.010 -16.399   5.527  1.00  0.00     0.038 A 
HETATM   28  N   UNL     1      43.394 -17.246   6.547  1.00  0.00    -0.277 N 
HETATM   29  C   UNL     1      43.352 -17.018   7.975  1.00  0.00     0.179 C 
HETATM   30  N   UNL     1      43.855 -18.426   6.118  1.00  0.00    -0.172 NA
HETATM   31  C   UNL     1      43.669 -18.408   4.796  1.00  0.00     0.096 A 
HETATM   32  C   UNL     1      43.163 -17.156   4.377  1.00  0.00     0.062 A 
BRANCH  31  33
HETATM   33  C   UNL     1      43.954 -19.605   3.939  1.00  0.00     0.035 A 
HETATM   34  S   UNL     1      44.836 -20.976   4.450  1.00  0.00    -0.100 SA
HETATM   35  C   UNL     1      44.703 -21.714   2.912  1.00  0.00     0.050 A 
HETATM   36  C   UNL     1      43.992 -20.935   2.025  1.00  0.00     0.008 A 
HETATM   37  C   UNL     1      43.551 -19.718   2.623  1.00  0.00     0.022 A 
ENDBRANCH  31  33
ENDBRANCH   1  27
TORSDOF 9
ENDMDL
MODEL 7
REMARK VINA RESULT:      -8.2      5.169      9.100
REMARK  9 active torsions:
REMARK  status: ('A' for Active; 'I' for Inactive)
REMARK    1  A    between atoms: C_4  and  C_5 
REMARK    2  A    between atoms: C_11  and  C_12 
REMARK    3  A    between atoms: C_15  and  C_16 
REMARK    4  A    between atoms: C_16  and  N_17 
REMARK    5  A    between atoms: N_17  and  C_18 
REMARK    6  A    between atoms: C_18  and  N_19 
REMARK    7  A    between atoms: N_19  and  C_20 
REMARK    8  A    between atoms: C_22  and  C_23 
REMARK    9  A    between atoms: C_23  and  O_24 
ROOT
HETATM    1  C   UNL     1      42.691 -14.772   4.534  1.00  0.00     0.067 C 
HETATM    2  C   UNL     1      41.173 -14.640   4.840  1.00  0.00     0.001 C 
HETATM    3  C   UNL     1      40.323 -15.003   3.600  1.00  0.00     0.040 C 
HETATM    4  C   UNL     1      40.593 -14.018   2.452  1.00  0.00     0.206 C 
HETATM    5  N   UNL     1      41.790 -13.151   2.858  1.00  0.00    -0.065 N 
HETATM    6  H   UNL     1      42.055 -12.566   2.052  1.00  0.00     0.280 HD
HETATM    7  C   UNL     1      43.010 -13.966   3.255  1.00  0.00     0.246 C 
HETATM    8  C   UNL     1      40.899 -13.152   5.161  1.00  0.00     0.033 C 
HETATM    9  C   UNL     1      41.381 -12.255   4.014  1.00  0.00     0.236 C 
ENDROOT
BRANCH   4  10
HETATM   10  C   UNL     1      40.759 -14.646   1.053  1.00  0.00     0.155 C 
BRANCH  10  11
HETATM   11  N   UNL     1      41.744 -13.992   0.198  1.00  0.00    -0.365 N 
HETATM   12  H   UNL     1      42.596 -14.507   0.007  1.00  0.00     0.161 HD
BRANCH  11  13
HETATM   13  C   UNL     1      41.466 -13.053  -0.759  1.00  0.00     0.172 C 
HETATM   14  S   UNL     1      41.340 -11.419  -0.448  1.00  0.00    -0.041 SA
BRANCH  13  15
HETATM   15  N   UNL     1      41.424 -13.500  -2.053  1.00  0.00    -0.333 N 
HETATM   16  H   UNL     1      42.143 -13.105  -2.655  1.00  0.00     0.168 HD
BRANCH  15  17
HETATM   17  C   UNL     1      40.470 -14.319  -2.699  1.00  0.00     0.035 A 
HETATM   18  C   UNL     1      39.234 -13.842  -3.141  1.00  0.00     0.047 A 
HETATM   19  C   UNL     1      38.293 -14.700  -3.726  1.00  0.00     0.041 A 
HETATM   20  C   UNL     1      38.615 -16.040  -3.934  1.00  0.00     0.018 A 
HETATM   21  C   UNL     1      39.875 -16.512  -3.554  1.00  0.00     0.003 A 
HETATM   22  C   UNL     1      40.798 -15.654  -2.944  1.00  0.00     0.029 A 
BRANCH  19  23
HETATM   23  C   UNL     1      36.967 -14.119  -4.054  1.00  0.00     0.293 C 
HETATM   24  O   UNL     1      36.129 -14.727  -4.708  1.00  0.00    -0.259 OA
BRANCH  23  25
HETATM   25  O   UNL     1      36.839 -12.883  -3.522  1.00  0.00    -0.323 OA
HETATM   26  C   UNL     1      35.906 -12.048  -4.210  1.00  0.00     0.213 C 
ENDBRANCH  23  25
ENDBRANCH  19  23
ENDBRANCH  15  17
ENDBRANCH  13  15
ENDBRANCH  11  13
ENDBRANCH  10  11
ENDBRANCH   4  10
BRANCH   1  27
HETATM   27  C   UNL     1      43.210 -16.183   4.478  1.00  0.00     0.038 A 
HETATM   28  N   UNL     1      43.765 -16.830   5.564  1.00  0.00    -0.277 N 
HETATM   29  C   UNL     1      43.946 -16.340   6.913  1.00  0.00     0.179 C 
HETATM   30  N   UNL     1      44.173 -18.076   5.294  1.00  0.00    -0.172 NA
HETATM   31  C   UNL     1      43.780 -18.302   4.038  1.00  0.00     0.096 A 
HETATM   32  C   UNL     1      43.194 -17.144   3.479  1.00  0.00     0.062 A 
BRANCH  31  33
HETATM   33  C   UNL     1      43.948 -19.641   3.384  1.00  0.00     0.035 A 
HETATM   34  S   UNL     1      44.789 -20.958   4.073  1.00  0.00    -0.100 SA
HETATM   35  C   UNL     1      44.520 -21.934   2.694  1.00  0.00     0.050 A 
HETATM   36  C   UNL     1      43.794 -21.273   1.727  1.00  0.00     0.008 A 
HETATM   37  C   UNL     1      43.455 -19.948   2.131  1.00  0.00     0.022 A 
ENDBRANCH  31  33
ENDBRANCH   1  27
TORSDOF 9
ENDMDL
MODEL 8
REMARK VINA RESULT:      -8.2      5.514      8.938
REMARK  9 active torsions:
REMARK  status: ('A' for Active; 'I' for Inactive)
REMARK    1  A    between atoms: C_4  and  C_5 
REMARK    2  A    between atoms: C_11  and  C_12 
REMARK    3  A    between atoms: C_15  and  C_16 
REMARK    4  A    between atoms: C_16  and  N_17 
REMARK    5  A    between atoms: N_17  and  C_18 
REMARK    6  A    between atoms: C_18  and  N_19 
REMARK    7  A    between atoms: N_19  and  C_20 
REMARK    8  A    between atoms: C_22  and  C_23 
REMARK    9  A    between atoms: C_23  and  O_24 
ROOT
HETATM    1  C   UNL     1      42.605 -15.019   3.880  1.00  0.00     0.067 C 
HETATM    2  C   UNL     1      41.065 -14.867   4.020  1.00  0.00     0.001 C 
HETATM    3  C   UNL     1      40.340 -15.346   2.740  1.00  0.00     0.040 C 
HETATM    4  C   UNL     1      40.727 -14.470   1.539  1.00  0.00     0.206 C 
HETATM    5  N   UNL     1      41.882 -13.564   1.981  1.00  0.00    -0.065 N 
HETATM    6  H   UNL     1      42.228 -13.054   1.155  1.00  0.00     0.280 HD
HETATM    7  C   UNL     1      43.053 -14.332   2.571  1.00  0.00     0.246 C 
HETATM    8  C   UNL     1      40.766 -13.357   4.174  1.00  0.00     0.033 C 
HETATM    9  C   UNL     1      41.364 -12.567   3.003  1.00  0.00     0.236 C 
ENDROOT
BRANCH   4  10
HETATM   10  C   UNL     1      41.029 -15.223   0.228  1.00  0.00     0.155 C 
BRANCH  10  11
HETATM   11  N   UNL     1      40.259 -14.779  -0.928  1.00  0.00    -0.365 N 
HETATM   12  H   UNL     1      39.552 -14.072  -0.761  1.00  0.00     0.161 HD
BRANCH  11  13
HETATM   13  C   UNL     1      40.691 -14.799  -2.228  1.00  0.00     0.172 C 
HETATM   14  S   UNL     1      39.785 -15.387  -3.499  1.00  0.00    -0.041 SA
BRANCH  13  15
HETATM   15  N   UNL     1      41.885 -14.176  -2.479  1.00  0.00    -0.333 N 
HETATM   16  H   UNL     1      42.685 -14.804  -2.506  1.00  0.00     0.168 HD
BRANCH  15  17
HETATM   17  C   UNL     1      42.186 -12.798  -2.578  1.00  0.00     0.035 A 
HETATM   18  C   UNL     1      41.848 -12.025  -3.691  1.00  0.00     0.047 A 
HETATM   19  C   UNL     1      42.216 -10.676  -3.774  1.00  0.00     0.041 A 
HETATM   20  C   UNL     1      42.872 -10.071  -2.703  1.00  0.00     0.018 A 
HETATM   21  C   UNL     1      43.155 -10.821  -1.558  1.00  0.00     0.003 A 
HETATM   22  C   UNL     1      42.810 -12.177  -1.495  1.00  0.00     0.029 A 
BRANCH  19  23
HETATM   23  C   UNL     1      41.913  -9.974  -5.047  1.00  0.00     0.293 C 
HETATM   24  O   UNL     1      41.138 -10.431  -5.878  1.00  0.00    -0.259 OA
BRANCH  23  25
HETATM   25  O   UNL     1      42.583  -8.803  -5.121  1.00  0.00    -0.323 OA
HETATM   26  C   UNL     1      42.998  -8.455  -6.444  1.00  0.00     0.213 C 
ENDBRANCH  23  25
ENDBRANCH  19  23
ENDBRANCH  15  17
ENDBRANCH  13  15
ENDBRANCH  11  13
ENDBRANCH  10  11
ENDBRANCH   4  10
BRANCH   1  27
HETATM   27  C   UNL     1      43.121 -16.427   4.006  1.00  0.00     0.038 A 
HETATM   28  N   UNL     1      43.516 -16.985   5.205  1.00  0.00    -0.277 N 
HETATM   29  C   UNL     1      43.509 -16.392   6.524  1.00  0.00     0.179 C 
HETATM   30  N   UNL     1      43.953 -18.245   5.091  1.00  0.00    -0.172 NA
HETATM   31  C   UNL     1      43.738 -18.570   3.814  1.00  0.00     0.096 A 
HETATM   32  C   UNL     1      43.240 -17.461   3.091  1.00  0.00     0.062 A 
BRANCH  31  33
HETATM   33  C   UNL     1      43.990 -19.953   3.295  1.00  0.00     0.035 A 
HETATM   34  S   UNL     1      44.812 -21.178   4.157  1.00  0.00    -0.100 SA
HETATM   35  C   UNL     1      44.673 -22.278   2.853  1.00  0.00     0.050 A 
HETATM   36  C   UNL     1      44.004 -21.726   1.782  1.00  0.00     0.008 A 
HETATM   37  C   UNL     1      43.602 -20.383   2.042  1.00  0.00     0.022 A 
ENDBRANCH  31  33
ENDBRANCH   1  27
TORSDOF 9
ENDMDL
MODEL 9
REMARK VINA RESULT:      -8.1      5.484      9.369
REMARK  9 active torsions:
REMARK  status: ('A' for Active; 'I' for Inactive)
REMARK    1  A    between atoms: C_4  and  C_5 
REMARK    2  A    between atoms: C_11  and  C_12 
REMARK    3  A    between atoms: C_15  and  C_16 
REMARK    4  A    between atoms: C_16  and  N_17 
REMARK    5  A    between atoms: N_17  and  C_18 
REMARK    6  A    between atoms: C_18  and  N_19 
REMARK    7  A    between atoms: N_19  and  C_20 
REMARK    8  A    between atoms: C_22  and  C_23 
REMARK    9  A    between atoms: C_23  and  O_24 
ROOT
HETATM    1  C   UNL     1      39.834 -14.802   2.927  1.00  0.00     0.067 C 
HETATM    2  C   UNL     1      39.132 -15.079   1.569  1.00  0.00     0.001 C 
HETATM    3  C   UNL     1      40.082 -14.793   0.383  1.00  0.00     0.040 C 
HETATM    4  C   UNL     1      40.467 -13.306   0.345  1.00  0.00     0.206 C 
HETATM    5  N   UNL     1      39.958 -12.663   1.640  1.00  0.00    -0.065 N 
HETATM    6  H   UNL     1      40.309 -11.696   1.682  1.00  0.00     0.280 HD
HETATM    7  C   UNL     1      40.436 -13.380   2.892  1.00  0.00     0.246 C 
HETATM    8  C   UNL     1      37.950 -14.088   1.455  1.00  0.00     0.033 C 
HETATM    9  C   UNL     1      38.439 -12.643   1.617  1.00  0.00     0.236 C 
ENDROOT
BRANCH   4  10
HETATM   10  C   UNL     1      41.956 -13.004   0.076  1.00  0.00     0.155 C 
BRANCH  10  11
HETATM   11  N   UNL     1      42.204 -12.004  -0.956  1.00  0.00    -0.365 N 
HETATM   12  H   UNL     1      42.823 -11.239  -0.711  1.00  0.00     0.161 HD
BRANCH  11  13
HETATM   13  C   UNL     1      42.141 -12.222  -2.307  1.00  0.00     0.172 C 
HETATM   14  S   UNL     1      42.292 -11.016  -3.449  1.00  0.00    -0.041 SA
BRANCH  13  15
HETATM   15  N   UNL     1      42.079 -13.530  -2.707  1.00  0.00    -0.333 N 
HETATM   16  H   UNL     1      42.987 -13.960  -2.867  1.00  0.00     0.168 HD
BRANCH  15  17
HETATM   17  C   UNL     1      40.959 -14.322  -3.049  1.00  0.00     0.035 A 
HETATM   18  C   UNL     1      39.720 -13.778  -3.392  1.00  0.00     0.047 A 
HETATM   19  C   UNL     1      38.619 -14.600  -3.669  1.00  0.00     0.041 A 
HETATM   20  C   UNL     1      38.774 -15.985  -3.667  1.00  0.00     0.018 A 
HETATM   21  C   UNL     1      40.027 -16.537  -3.389  1.00  0.00     0.003 A 
HETATM   22  C   UNL     1      41.115 -15.709  -3.085  1.00  0.00     0.029 A 
BRANCH  19  23
HETATM   23  C   UNL     1      37.320 -13.924  -3.907  1.00  0.00     0.293 C 
HETATM   24  O   UNL     1      37.039 -12.846  -3.401  1.00  0.00    -0.259 OA
BRANCH  23  25
HETATM   25  O   UNL     1      36.548 -14.649  -4.748  1.00  0.00    -0.323 OA
HETATM   26  C   UNL     1      35.264 -14.074  -5.000  1.00  0.00     0.213 C 
ENDBRANCH  23  25
ENDBRANCH  19  23
ENDBRANCH  15  17
ENDBRANCH  13  15
ENDBRANCH  11  13
ENDBRANCH  10  11
ENDBRANCH   4  10
BRANCH   1  27
HETATM   27  C   UNL     1      40.830 -15.847   3.355  1.00  0.00     0.038 A 
HETATM   28  N   UNL     1      41.212 -16.037   4.668  1.00  0.00    -0.277 N 
HETATM   29  C   UNL     1      40.761 -15.336   5.851  1.00  0.00     0.179 C 
HETATM   30  N   UNL     1      42.116 -17.010   4.827  1.00  0.00    -0.172 NA
HETATM   31  C   UNL     1      42.253 -17.553   3.615  1.00  0.00     0.096 A 
HETATM   32  C   UNL     1      41.487 -16.848   2.659  1.00  0.00     0.062 A 
BRANCH  31  33
HETATM   33  C   UNL     1      43.103 -18.766   3.381  1.00  0.00     0.035 A 
HETATM   34  S   UNL     1      44.162 -19.445   4.538  1.00  0.00    -0.100 SA
HETATM   35  C   UNL     1      44.690 -20.649   3.441  1.00  0.00     0.050 A 
HETATM   36  C   UNL     1      44.065 -20.542   2.218  1.00  0.00     0.008 A 
HETATM   37  C   UNL     1      43.140 -19.457   2.187  1.00  0.00     0.022 A 
ENDBRANCH  31  33
ENDBRANCH   1  27
TORSDOF 9
ENDMDL
MODEL 10
REMARK VINA RESULT:      -8.1      4.952      8.083
REMARK  9 active torsions:
REMARK  status: ('A' for Active; 'I' for Inactive)
REMARK    1  A    between atoms: C_4  and  C_5 
REMARK    2  A    between atoms: C_11  and  C_12 
REMARK    3  A    between atoms: C_15  and  C_16 
REMARK    4  A    between atoms: C_16  and  N_17 
REMARK    5  A    between atoms: N_17  and  C_18 
REMARK    6  A    between atoms: C_18  and  N_19 
REMARK    7  A    between atoms: N_19  and  C_20 
REMARK    8  A    between atoms: C_22  and  C_23 
REMARK    9  A    between atoms: C_23  and  O_24 
ROOT
HETATM    1  C   UNL     1      41.171 -14.961   0.394  1.00  0.00     0.067 C 
HETATM    2  C   UNL     1      40.115 -14.594   1.474  1.00  0.00     0.001 C 
HETATM    3  C   UNL     1      40.768 -13.838   2.655  1.00  0.00     0.040 C 
HETATM    4  C   UNL     1      41.789 -14.735   3.373  1.00  0.00     0.206 C 
HETATM    5  N   UNL     1      41.976 -15.996   2.522  1.00  0.00    -0.065 N 
HETATM    6  H   UNL     1      42.741 -16.552   2.930  1.00  0.00     0.280 HD
HETATM    7  C   UNL     1      42.345 -15.694   1.079  1.00  0.00     0.246 C 
HETATM    8  C   UNL     1      39.556 -15.922   2.037  1.00  0.00     0.033 C 
HETATM    9  C   UNL     1      40.693 -16.809   2.557  1.00  0.00     0.236 C 
ENDROOT
BRANCH   4  10
HETATM   10  C   UNL     1      43.127 -14.064   3.745  1.00  0.00     0.155 C 
BRANCH  10  11
HETATM   11  N   UNL     1      43.207 -13.571   5.116  1.00  0.00    -0.365 N 
HETATM   12  H   UNL     1      42.530 -12.869   5.389  1.00  0.00     0.161 HD
BRANCH  11  13
HETATM   13  C   UNL     1      43.705 -14.270   6.184  1.00  0.00     0.172 C 
HETATM   14  S   UNL     1      45.024 -13.780   7.080  1.00  0.00    -0.041 SA
BRANCH  13  15
HETATM   15  N   UNL     1      42.977 -15.356   6.589  1.00  0.00    -0.333 N 
HETATM   16  H   UNL     1      42.094 -15.123   7.037  1.00  0.00     0.168 HD
BRANCH  15  17
HETATM   17  C   UNL     1      43.321 -16.728   6.595  1.00  0.00     0.035 A 
HETATM   18  C   UNL     1      43.589 -17.449   5.429  1.00  0.00     0.047 A 
HETATM   19  C   UNL     1      43.871 -18.820   5.473  1.00  0.00     0.041 A 
HETATM   20  C   UNL     1      43.950 -19.470   6.705  1.00  0.00     0.018 A 
HETATM   21  C   UNL     1      43.747 -18.742   7.880  1.00  0.00     0.003 A 
HETATM   22  C   UNL     1      43.438 -17.377   7.825  1.00  0.00     0.029 A 
BRANCH  19  23
HETATM   23  C   UNL     1      44.026 -19.516   4.172  1.00  0.00     0.293 C 
HETATM   24  O   UNL     1      44.702 -20.530   4.047  1.00  0.00    -0.259 OA
BRANCH  23  25
HETATM   25  O   UNL     1      43.319 -18.890   3.204  1.00  0.00    -0.323 OA
HETATM   26  C   UNL     1      43.902 -18.988   1.903  1.00  0.00     0.213 C 
ENDBRANCH  23  25
ENDBRANCH  19  23
ENDBRANCH  15  17
ENDBRANCH  13  15
ENDBRANCH  11  13
ENDBRANCH  10  11
ENDBRANCH   4  10
BRANCH   1  27
HETATM   27  C   UNL     1      41.623 -13.815  -0.471  1.00  0.00     0.038 A 
HETATM   28  N   UNL     1      41.618 -13.860  -1.851  1.00  0.00    -0.277 N 
HETATM   29  C   UNL     1      41.192 -14.935  -2.719  1.00  0.00     0.179 C 
HETATM   30  N   UNL     1      42.071 -12.739  -2.424  1.00  0.00    -0.172 NA
HETATM   31  C   UNL     1      42.273 -11.892  -1.411  1.00  0.00     0.096 A 
HETATM   32  C   UNL     1      42.028 -12.525  -0.172  1.00  0.00     0.062 A 
BRANCH  31  33
HETATM   33  C   UNL     1      42.679 -10.467  -1.639  1.00  0.00     0.035 A 
HETATM   34  S   UNL     1      42.146  -9.503  -2.945  1.00  0.00    -0.100 SA
HETATM   35  C   UNL     1      43.100  -8.176  -2.438  1.00  0.00     0.050 A 
HETATM   36  C   UNL     1      43.806  -8.457  -1.289  1.00  0.00     0.008 A 
HETATM   37  C   UNL     1      43.555  -9.781  -0.822  1.00  0.00     0.022 A 
ENDBRANCH  31  33
ENDBRANCH   1  27
TORSDOF 9
ENDMDL
