MODEL 1
REMARK VINA RESULT:      -8.8      0.000      0.000
REMARK  9 active torsions:
REMARK  status: ('A' for Active; 'I' for Inactive)
REMARK    1  A    between atoms: O_2  and  C_3 
REMARK    2  A    between atoms: C_6  and  N_7 
REMARK    3  A    between atoms: N_10  and  C_12 
REMARK    4  A    between atoms: C_12  and  C_13 
REMARK    5  A    between atoms: C_13  and  C_14 
REMARK    6  A    between atoms: C_14  and  N_15 
REMARK       I    between atoms: N_15  and  C_16 
REMARK    7  A    between atoms: C_16  and  C_17 
REMARK    8  A    between atoms: C_17  and  C_18 
REMARK    9  A    between atoms: C_18  and  C_19 
ROOT
HETATM    1  N   UNL     1      40.346 -15.081   3.509  1.00  0.00    -0.361 N 
HETATM    2  C   UNL     1      39.818 -15.591   2.341  1.00  0.00     0.217 C 
HETATM    3  O   UNL     1      38.757 -15.199   1.860  1.00  0.00    -0.274 OA
HETATM    4  H   UNL     1      41.101 -15.600   3.944  1.00  0.00     0.162 HD
ENDROOT
BRANCH   1   5
HETATM    5  C   UNL     1      39.533 -14.252   4.375  1.00  0.00     0.124 C 
BRANCH   5   6
HETATM    6  C   UNL     1      39.528 -12.788   3.941  1.00  0.00     0.047 C 
BRANCH   6   7
HETATM    7  C   UNL     1      40.948 -12.307   3.678  1.00  0.00     0.236 C 
BRANCH   7   8
HETATM    8  N   UNL     1      41.048 -11.684   2.302  1.00  0.00    -0.068 N 
HETATM    9  C   UNL     1      42.210 -12.243   1.466  1.00  0.00     0.254 C 
HETATM   10  C   UNL     1      42.273 -11.536   0.094  1.00  0.00     0.150 C 
HETATM   11  N   UNL     1      40.981 -11.608  -0.614  1.00  0.00    -0.378 N 
HETATM   12  C   UNL     1      39.835 -11.095   0.165  1.00  0.00     0.150 C 
HETATM   13  C   UNL     1      39.732 -11.820   1.524  1.00  0.00     0.254 C 
HETATM   14  H   UNL     1      41.217 -10.677   2.417  1.00  0.00     0.280 HD
BRANCH  11  15
HETATM   15  C   UNL     1      40.721 -12.639  -1.519  1.00  0.00     0.030 A 
HETATM   16  C   UNL     1      39.433 -13.114  -1.800  1.00  0.00     0.032 A 
HETATM   17  C   UNL     1      39.217 -14.149  -2.720  1.00  0.00     0.039 A 
HETATM   18  C   UNL     1      40.281 -14.756  -3.380  1.00  0.00     0.068 A 
HETATM   19  C   UNL     1      41.572 -14.331  -3.092  1.00  0.00     0.039 A 
HETATM   20  C   UNL     1      41.781 -13.293  -2.172  1.00  0.00     0.032 A 
BRANCH  18  21
HETATM   21  O   UNL     1      39.931 -15.744  -4.254  1.00  0.00    -0.356 OA
HETATM   22  C   UNL     1      38.575 -16.177  -4.230  1.00  0.00     0.210 C 
ENDBRANCH  18  21
ENDBRANCH  11  15
ENDBRANCH   7   8
ENDBRANCH   6   7
ENDBRANCH   5   6
ENDBRANCH   1   5
BRANCH   2  23
HETATM   23  C   UNL     1      40.627 -16.708   1.717  1.00  0.00     0.105 C 
BRANCH  23  24
HETATM   24  C   UNL     1      41.832 -16.215   0.907  1.00  0.00     0.046 C 
BRANCH  24  25
HETATM   25  C   UNL     1      43.209 -16.634   1.426  1.00  0.00     0.203 A 
HETATM   26  N   UNL     1      43.404 -18.094   1.299  1.00  0.00    -0.257 NA
HETATM   27  C   UNL     1      43.735 -18.477   2.496  1.00  0.00     0.147 A 
HETATM   28  N   UNL     1      43.779 -17.531   3.481  1.00  0.00    -0.239 N 
HETATM   29  C   UNL     1      44.054 -19.865   2.842  1.00  0.00     0.037 A 
HETATM   30  C   UNL     1      44.060 -17.806   4.823  1.00  0.00     0.187 A 
HETATM   31  C   UNL     1      43.443 -16.329   2.895  1.00  0.00     0.257 A 
HETATM   32  S   UNL     1      44.043 -16.728   6.107  1.00  0.00    -0.040 SA
HETATM   33  N   UNL     1      44.376 -19.115   5.116  1.00  0.00    -0.332 N 
HETATM   34  C   UNL     1      44.380 -20.143   4.167  1.00  0.00     0.048 A 
HETATM   35  H   UNL     1      44.605 -19.329   6.080  1.00  0.00     0.168 HD
HETATM   36  C   UNL     1      44.704 -21.444   4.547  1.00  0.00     0.030 A 
HETATM   37  C   UNL     1      44.698 -22.463   3.591  1.00  0.00     0.002 A 
HETATM   38  C   UNL     1      44.368 -22.182   2.263  1.00  0.00     0.001 A 
HETATM   39  C   UNL     1      44.045 -20.879   1.883  1.00  0.00     0.017 A 
HETATM   40  O   UNL     1      43.308 -15.218   3.390  1.00  0.00    -0.270 OA
ENDBRANCH  24  25
ENDBRANCH  23  24
ENDBRANCH   2  23
TORSDOF 9
ENDMDL
MODEL 2
REMARK VINA RESULT:      -8.7      3.083      7.469
REMARK  9 active torsions:
REMARK  status: ('A' for Active; 'I' for Inactive)
REMARK    1  A    between atoms: O_2  and  C_3 
REMARK    2  A    between atoms: C_6  and  N_7 
REMARK    3  A    between atoms: N_10  and  C_12 
REMARK    4  A    between atoms: C_12  and  C_13 
REMARK    5  A    between atoms: C_13  and  C_14 
REMARK    6  A    between atoms: C_14  and  N_15 
REMARK       I    between atoms: N_15  and  C_16 
REMARK    7  A    between atoms: C_16  and  C_17 
REMARK    8  A    between atoms: C_17  and  C_18 
REMARK    9  A    between atoms: C_18  and  C_19 
ROOT
HETATM    1  N   UNL     1      39.344 -11.660   4.501  1.00  0.00    -0.361 N 
HETATM    2  C   UNL     1      38.671 -10.457   4.416  1.00  0.00     0.217 C 
HETATM    3  O   UNL     1      38.234  -9.865   5.401  1.00  0.00    -0.274 OA
HETATM    4  H   UNL     1      39.478 -12.179   3.641  1.00  0.00     0.162 HD
ENDROOT
BRANCH   1   5
HETATM    5  C   UNL     1      39.320 -12.421   5.733  1.00  0.00     0.124 C 
BRANCH   5   6
HETATM    6  C   UNL     1      40.021 -13.771   5.595  1.00  0.00     0.047 C 
BRANCH   6   7
HETATM    7  C   UNL     1      41.532 -13.593   5.646  1.00  0.00     0.236 C 
BRANCH   7   8
HETATM    8  N   UNL     1      42.179 -14.777   6.334  1.00  0.00    -0.068 N 
HETATM    9  C   UNL     1      41.376 -16.079   6.183  1.00  0.00     0.254 C 
HETATM   10  C   UNL     1      42.075 -17.230   6.940  1.00  0.00     0.150 C 
HETATM   11  N   UNL     1      43.481 -17.381   6.522  1.00  0.00    -0.378 N 
HETATM   12  C   UNL     1      44.282 -16.145   6.635  1.00  0.00     0.150 C 
HETATM   13  C   UNL     1      43.620 -14.993   5.850  1.00  0.00     0.254 C 
HETATM   14  H   UNL     1      42.236 -14.572   7.339  1.00  0.00     0.280 HD
BRANCH  11  15
HETATM   15  C   UNL     1      43.830 -18.270   5.502  1.00  0.00     0.030 A 
HETATM   16  C   UNL     1      43.527 -18.054   4.152  1.00  0.00     0.032 A 
HETATM   17  C   UNL     1      43.901 -18.972   3.160  1.00  0.00     0.039 A 
HETATM   18  C   UNL     1      44.577 -20.144   3.486  1.00  0.00     0.068 A 
HETATM   19  C   UNL     1      44.856 -20.402   4.821  1.00  0.00     0.039 A 
HETATM   20  C   UNL     1      44.481 -19.478   5.809  1.00  0.00     0.032 A 
BRANCH  18  21
HETATM   21  O   UNL     1      44.888 -20.944   2.424  1.00  0.00    -0.356 OA
HETATM   22  C   UNL     1      43.821 -21.676   1.833  1.00  0.00     0.210 C 
ENDBRANCH  18  21
ENDBRANCH  11  15
ENDBRANCH   7   8
ENDBRANCH   6   7
ENDBRANCH   5   6
ENDBRANCH   1   5
BRANCH   2  23
HETATM   23  C   UNL     1      38.474  -9.943   3.006  1.00  0.00     0.105 C 
BRANCH  23  24
HETATM   24  C   UNL     1      39.617 -10.309   2.052  1.00  0.00     0.046 C 
BRANCH  24  25
HETATM   25  C   UNL     1      39.299 -11.371   0.998  1.00  0.00     0.203 A 
HETATM   26  N   UNL     1      39.314 -12.727   1.587  1.00  0.00    -0.257 NA
HETATM   27  C   UNL     1      40.138 -13.393   0.834  1.00  0.00     0.147 A 
HETATM   28  N   UNL     1      40.751 -12.726  -0.188  1.00  0.00    -0.239 N 
HETATM   29  C   UNL     1      40.448 -14.811   1.032  1.00  0.00     0.037 A 
HETATM   30  C   UNL     1      41.704 -13.296  -1.039  1.00  0.00     0.187 A 
HETATM   31  C   UNL     1      40.289 -11.427  -0.152  1.00  0.00     0.257 A 
HETATM   32  S   UNL     1      42.570 -12.530  -2.253  1.00  0.00    -0.040 SA
HETATM   33  N   UNL     1      41.960 -14.636  -0.844  1.00  0.00    -0.332 N 
HETATM   34  C   UNL     1      41.362 -15.402   0.162  1.00  0.00     0.048 A 
HETATM   35  H   UNL     1      42.632 -15.072  -1.466  1.00  0.00     0.168 HD
HETATM   36  C   UNL     1      41.682 -16.751   0.298  1.00  0.00     0.030 A 
HETATM   37  C   UNL     1      41.081 -17.503   1.310  1.00  0.00     0.002 A 
HETATM   38  C   UNL     1      40.167 -16.908   2.183  1.00  0.00     0.001 A 
HETATM   39  C   UNL     1      39.846 -15.558   2.046  1.00  0.00     0.017 A 
HETATM   40  O   UNL     1      40.588 -10.461  -0.841  1.00  0.00    -0.270 OA
ENDBRANCH  24  25
ENDBRANCH  23  24
ENDBRANCH   2  23
TORSDOF 9
ENDMDL
MODEL 3
REMARK VINA RESULT:      -8.5      4.778      8.131
REMARK  9 active torsions:
REMARK  status: ('A' for Active; 'I' for Inactive)
REMARK    1  A    between atoms: O_2  and  C_3 
REMARK    2  A    between atoms: C_6  and  N_7 
REMARK    3  A    between atoms: N_10  and  C_12 
REMARK    4  A    between atoms: C_12  and  C_13 
REMARK    5  A    between atoms: C_13  and  C_14 
REMARK    6  A    between atoms: C_14  and  N_15 
REMARK       I    between atoms: N_15  and  C_16 
REMARK    7  A    between atoms: C_16  and  C_17 
REMARK    8  A    between atoms: C_17  and  C_18 
REMARK    9  A    between atoms: C_18  and  C_19 
ROOT
HETATM    1  N   UNL     1      40.433 -14.834   3.508  1.00  0.00    -0.361 N 
HETATM    2  C   UNL     1      39.974 -15.472   2.372  1.00  0.00     0.217 C 
HETATM    3  O   UNL     1      39.007 -15.073   1.727  1.00  0.00    -0.274 OA
HETATM    4  H   UNL     1      41.090 -15.340   4.092  1.00  0.00     0.162 HD
ENDROOT
BRANCH   1   5
HETATM    5  C   UNL     1      39.621 -13.824   4.153  1.00  0.00     0.124 C 
BRANCH   5   6
HETATM    6  C   UNL     1      39.915 -13.709   5.648  1.00  0.00     0.047 C 
BRANCH   6   7
HETATM    7  C   UNL     1      41.123 -12.814   5.884  1.00  0.00     0.236 C 
BRANCH   7   8
HETATM    8  N   UNL     1      40.711 -11.555   6.618  1.00  0.00    -0.068 N 
HETATM    9  C   UNL     1      39.599 -11.793   7.652  1.00  0.00     0.254 C 
HETATM   10  C   UNL     1      39.205 -10.463   8.331  1.00  0.00     0.150 C 
HETATM   11  N   UNL     1      40.377  -9.778   8.908  1.00  0.00    -0.378 N 
HETATM   12  C   UNL     1      41.476  -9.547   7.947  1.00  0.00     0.150 C 
HETATM   13  C   UNL     1      41.911 -10.874   7.289  1.00  0.00     0.254 C 
HETATM   14  H   UNL     1      40.344 -10.888   5.928  1.00  0.00     0.280 HD
BRANCH  11  15
HETATM   15  C   UNL     1      40.735  -9.981  10.243  1.00  0.00     0.030 A 
HETATM   16  C   UNL     1      41.625  -9.152  10.938  1.00  0.00     0.032 A 
HETATM   17  C   UNL     1      41.952  -9.390  12.280  1.00  0.00     0.039 A 
HETATM   18  C   UNL     1      41.414 -10.472  12.969  1.00  0.00     0.068 A 
HETATM   19  C   UNL     1      40.558 -11.332  12.293  1.00  0.00     0.039 A 
HETATM   20  C   UNL     1      40.232 -11.087  10.950  1.00  0.00     0.032 A 
BRANCH  18  21
HETATM   21  O   UNL     1      41.810 -10.583  14.271  1.00  0.00    -0.356 OA
HETATM   22  C   UNL     1      42.506  -9.475  14.830  1.00  0.00     0.210 C 
ENDBRANCH  18  21
ENDBRANCH  11  15
ENDBRANCH   7   8
ENDBRANCH   6   7
ENDBRANCH   5   6
ENDBRANCH   1   5
BRANCH   2  23
HETATM   23  C   UNL     1      40.732 -16.730   2.005  1.00  0.00     0.105 C 
BRANCH  23  24
HETATM   24  C   UNL     1      41.925 -16.480   1.075  1.00  0.00     0.046 C 
BRANCH  24  25
HETATM   25  C   UNL     1      43.298 -16.877   1.620  1.00  0.00     0.203 A 
HETATM   26  N   UNL     1      43.497 -18.340   1.545  1.00  0.00    -0.257 NA
HETATM   27  C   UNL     1      43.819 -18.680   2.757  1.00  0.00     0.147 A 
HETATM   28  N   UNL     1      43.853 -17.702   3.709  1.00  0.00    -0.239 N 
HETATM   29  C   UNL     1      44.138 -20.055   3.153  1.00  0.00     0.037 A 
HETATM   30  C   UNL     1      44.123 -17.930   5.062  1.00  0.00     0.187 A 
HETATM   31  C   UNL     1      43.518 -16.521   3.079  1.00  0.00     0.257 A 
HETATM   32  S   UNL     1      44.092 -16.807   6.308  1.00  0.00    -0.040 SA
HETATM   33  N   UNL     1      44.439 -19.227   5.403  1.00  0.00    -0.332 N 
HETATM   34  C   UNL     1      44.453 -20.287   4.490  1.00  0.00     0.048 A 
HETATM   35  H   UNL     1      44.660 -19.407   6.376  1.00  0.00     0.168 HD
HETATM   36  C   UNL     1      44.776 -21.574   4.917  1.00  0.00     0.030 A 
HETATM   37  C   UNL     1      44.781 -22.624   3.996  1.00  0.00     0.002 A 
HETATM   38  C   UNL     1      44.462 -22.390   2.657  1.00  0.00     0.001 A 
HETATM   39  C   UNL     1      44.140 -21.102   2.229  1.00  0.00     0.017 A 
HETATM   40  O   UNL     1      43.377 -15.394   3.534  1.00  0.00    -0.270 OA
ENDBRANCH  24  25
ENDBRANCH  23  24
ENDBRANCH   2  23
TORSDOF 9
ENDMDL
MODEL 4
REMARK VINA RESULT:      -8.2      6.305      9.861
REMARK  9 active torsions:
REMARK  status: ('A' for Active; 'I' for Inactive)
REMARK    1  A    between atoms: O_2  and  C_3 
REMARK    2  A    between atoms: C_6  and  N_7 
REMARK    3  A    between atoms: N_10  and  C_12 
REMARK    4  A    between atoms: C_12  and  C_13 
REMARK    5  A    between atoms: C_13  and  C_14 
REMARK    6  A    between atoms: C_14  and  N_15 
REMARK       I    between atoms: N_15  and  C_16 
REMARK    7  A    between atoms: C_16  and  C_17 
REMARK    8  A    between atoms: C_17  and  C_18 
REMARK    9  A    between atoms: C_18  and  C_19 
ROOT
HETATM    1  N   UNL     1      40.034 -11.476   8.009  1.00  0.00    -0.361 N 
HETATM    2  C   UNL     1      39.121 -10.442   8.063  1.00  0.00     0.217 C 
HETATM    3  O   UNL     1      38.735  -9.840   7.063  1.00  0.00    -0.274 OA
HETATM    4  H   UNL     1      40.455 -11.770   8.884  1.00  0.00     0.162 HD
ENDROOT
BRANCH   1   5
HETATM    5  C   UNL     1      40.793 -11.715   6.800  1.00  0.00     0.124 C 
BRANCH   5   6
HETATM    6  C   UNL     1      40.116 -12.730   5.880  1.00  0.00     0.047 C 
BRANCH   6   7
HETATM    7  C   UNL     1      41.156 -13.470   5.049  1.00  0.00     0.236 C 
BRANCH   7   8
HETATM    8  N   UNL     1      41.797 -14.572   5.866  1.00  0.00    -0.068 N 
HETATM    9  C   UNL     1      41.039 -15.907   5.784  1.00  0.00     0.254 C 
HETATM   10  C   UNL     1      41.726 -16.969   6.670  1.00  0.00     0.150 C 
HETATM   11  N   UNL     1      43.157 -17.110   6.339  1.00  0.00    -0.378 N 
HETATM   12  C   UNL     1      43.917 -15.843   6.390  1.00  0.00     0.150 C 
HETATM   13  C   UNL     1      43.266 -14.781   5.478  1.00  0.00     0.254 C 
HETATM   14  H   UNL     1      41.793 -14.284   6.853  1.00  0.00     0.280 HD
BRANCH  11  15
HETATM   15  C   UNL     1      43.585 -18.068   5.417  1.00  0.00     0.030 A 
HETATM   16  C   UNL     1      43.183 -18.082   4.075  1.00  0.00     0.032 A 
HETATM   17  C   UNL     1      43.642 -19.061   3.182  1.00  0.00     0.039 A 
HETATM   18  C   UNL     1      44.505 -20.068   3.603  1.00  0.00     0.068 A 
HETATM   19  C   UNL     1      44.890 -20.099   4.937  1.00  0.00     0.039 A 
HETATM   20  C   UNL     1      44.429 -19.116   5.825  1.00  0.00     0.032 A 
BRANCH  18  21
HETATM   21  O   UNL     1      44.880 -20.950   2.632  1.00  0.00    -0.356 OA
HETATM   22  C   UNL     1      43.842 -21.528   1.848  1.00  0.00     0.210 C 
ENDBRANCH  18  21
ENDBRANCH  11  15
ENDBRANCH   7   8
ENDBRANCH   6   7
ENDBRANCH   5   6
ENDBRANCH   1   5
BRANCH   2  23
HETATM   23  C   UNL     1      38.663 -10.076   9.458  1.00  0.00     0.105 C 
BRANCH  23  24
HETATM   24  C   UNL     1      38.977  -8.626   9.848  1.00  0.00     0.046 C 
BRANCH  24  25
HETATM   25  C   UNL     1      40.389  -8.361  10.374  1.00  0.00     0.203 A 
HETATM   26  N   UNL     1      41.385  -9.195   9.668  1.00  0.00    -0.257 NA
HETATM   27  C   UNL     1      42.021  -9.807  10.621  1.00  0.00     0.147 A 
HETATM   28  N   UNL     1      41.624  -9.577  11.907  1.00  0.00    -0.239 N 
HETATM   29  C   UNL     1      43.132 -10.734  10.386  1.00  0.00     0.037 A 
HETATM   30  C   UNL     1      42.175 -10.209  13.026  1.00  0.00     0.187 A 
HETATM   31  C   UNL     1      40.577  -8.679  11.846  1.00  0.00     0.257 A 
HETATM   32  S   UNL     1      41.686 -10.056  14.623  1.00  0.00    -0.040 SA
HETATM   33  N   UNL     1      43.230 -11.059  12.778  1.00  0.00    -0.332 N 
HETATM   34  C   UNL     1      43.719 -11.335  11.497  1.00  0.00     0.048 A 
HETATM   35  H   UNL     1      43.657 -11.509  13.580  1.00  0.00     0.168 HD
HETATM   36  C   UNL     1      44.788 -12.215  11.330  1.00  0.00     0.030 A 
HETATM   37  C   UNL     1      45.262 -12.487  10.045  1.00  0.00     0.002 A 
HETATM   38  C   UNL     1      44.670 -11.884   8.932  1.00  0.00     0.001 A 
HETATM   39  C   UNL     1      43.602 -11.004   9.099  1.00  0.00     0.017 A 
HETATM   40  O   UNL     1      39.879  -8.217  12.738  1.00  0.00    -0.270 OA
ENDBRANCH  24  25
ENDBRANCH  23  24
ENDBRANCH   2  23
TORSDOF 9
ENDMDL
MODEL 5
REMARK VINA RESULT:      -8.2      6.226     10.296
REMARK  9 active torsions:
REMARK  status: ('A' for Active; 'I' for Inactive)
REMARK    1  A    between atoms: O_2  and  C_3 
REMARK    2  A    between atoms: C_6  and  N_7 
REMARK    3  A    between atoms: N_10  and  C_12 
REMARK    4  A    between atoms: C_12  and  C_13 
REMARK    5  A    between atoms: C_13  and  C_14 
REMARK    6  A    between atoms: C_14  and  N_15 
REMARK       I    between atoms: N_15  and  C_16 
REMARK    7  A    between atoms: C_16  and  C_17 
REMARK    8  A    between atoms: C_17  and  C_18 
REMARK    9  A    between atoms: C_18  and  C_19 
ROOT
HETATM    1  N   UNL     1      40.444 -11.247   6.043  1.00  0.00    -0.361 N 
HETATM    2  C   UNL     1      39.889  -9.996   6.220  1.00  0.00     0.217 C 
HETATM    3  O   UNL     1      38.676  -9.802   6.247  1.00  0.00    -0.274 OA
HETATM    4  H   UNL     1      41.433 -11.290   5.820  1.00  0.00     0.162 HD
ENDROOT
BRANCH   1   5
HETATM    5  C   UNL     1      39.621 -12.353   5.599  1.00  0.00     0.124 C 
BRANCH   5   6
HETATM    6  C   UNL     1      40.452 -13.522   5.075  1.00  0.00     0.047 C 
BRANCH   6   7
HETATM    7  C   UNL     1      41.901 -13.388   5.523  1.00  0.00     0.236 C 
BRANCH   7   8
HETATM    8  N   UNL     1      42.342 -14.634   6.260  1.00  0.00    -0.068 N 
HETATM    9  C   UNL     1      41.436 -15.847   5.996  1.00  0.00     0.254 C 
HETATM   10  C   UNL     1      41.924 -17.068   6.808  1.00  0.00     0.150 C 
HETATM   11  N   UNL     1      43.347 -17.358   6.551  1.00  0.00    -0.378 N 
HETATM   12  C   UNL     1      44.249 -16.210   6.777  1.00  0.00     0.150 C 
HETATM   13  C   UNL     1      43.800 -14.992   5.940  1.00  0.00     0.254 C 
HETATM   14  H   UNL     1      42.302 -14.442   7.268  1.00  0.00     0.280 HD
BRANCH  11  15
HETATM   15  C   UNL     1      43.720 -18.272   5.563  1.00  0.00     0.030 A 
HETATM   16  C   UNL     1      43.419 -18.108   4.205  1.00  0.00     0.032 A 
HETATM   17  C   UNL     1      43.820 -19.049   3.246  1.00  0.00     0.039 A 
HETATM   18  C   UNL     1      44.520 -20.194   3.613  1.00  0.00     0.068 A 
HETATM   19  C   UNL     1      44.799 -20.401   4.958  1.00  0.00     0.039 A 
HETATM   20  C   UNL     1      44.398 -19.454   5.912  1.00  0.00     0.032 A 
BRANCH  18  21
HETATM   21  O   UNL     1      44.854 -21.022   2.580  1.00  0.00    -0.356 OA
HETATM   22  C   UNL     1      43.787 -21.530   1.788  1.00  0.00     0.210 C 
ENDBRANCH  18  21
ENDBRANCH  11  15
ENDBRANCH   7   8
ENDBRANCH   6   7
ENDBRANCH   5   6
ENDBRANCH   1   5
BRANCH   2  23
HETATM   23  C   UNL     1      40.894  -8.870   6.335  1.00  0.00     0.105 C 
BRANCH  23  24
HETATM   24  C   UNL     1      41.310  -8.562   7.778  1.00  0.00     0.046 C 
BRANCH  24  25
HETATM   25  C   UNL     1      41.086  -9.682   8.797  1.00  0.00     0.203 A 
HETATM   26  N   UNL     1      40.702  -9.134  10.115  1.00  0.00    -0.257 NA
HETATM   27  C   UNL     1      41.557  -9.660  10.940  1.00  0.00     0.147 A 
HETATM   28  N   UNL     1      42.523 -10.478  10.426  1.00  0.00    -0.239 N 
HETATM   29  C   UNL     1      41.542  -9.415  12.385  1.00  0.00     0.037 A 
HETATM   30  C   UNL     1      43.542 -11.064  11.184  1.00  0.00     0.187 A 
HETATM   31  C   UNL     1      42.311 -10.538   9.064  1.00  0.00     0.257 A 
HETATM   32  S   UNL     1      44.816 -11.999  10.623  1.00  0.00    -0.040 SA
HETATM   33  N   UNL     1      43.491 -10.834  12.541  1.00  0.00    -0.332 N 
HETATM   34  C   UNL     1      42.525 -10.030  13.156  1.00  0.00     0.048 A 
HETATM   35  H   UNL     1      44.209 -11.269  13.109  1.00  0.00     0.168 HD
HETATM   36  C   UNL     1      42.548  -9.841  14.537  1.00  0.00     0.030 A 
HETATM   37  C   UNL     1      41.581  -9.032  15.138  1.00  0.00     0.002 A 
HETATM   38  C   UNL     1      40.597  -8.413  14.362  1.00  0.00     0.001 A 
HETATM   39  C   UNL     1      40.574  -8.604  12.980  1.00  0.00     0.017 A 
HETATM   40  O   UNL     1      42.948 -11.108   8.189  1.00  0.00    -0.270 OA
ENDBRANCH  24  25
ENDBRANCH  23  24
ENDBRANCH   2  23
TORSDOF 9
ENDMDL
MODEL 6
REMARK VINA RESULT:      -8.2      5.575      9.064
REMARK  9 active torsions:
REMARK  status: ('A' for Active; 'I' for Inactive)
REMARK    1  A    between atoms: O_2  and  C_3 
REMARK    2  A    between atoms: C_6  and  N_7 
REMARK    3  A    between atoms: N_10  and  C_12 
REMARK    4  A    between atoms: C_12  and  C_13 
REMARK    5  A    between atoms: C_13  and  C_14 
REMARK    6  A    between atoms: C_14  and  N_15 
REMARK       I    between atoms: N_15  and  C_16 
REMARK    7  A    between atoms: C_16  and  C_17 
REMARK    8  A    between atoms: C_17  and  C_18 
REMARK    9  A    between atoms: C_18  and  C_19 
ROOT
HETATM    1  N   UNL     1      42.529 -13.274   5.627  1.00  0.00    -0.361 N 
HETATM    2  C   UNL     1      43.675 -13.964   5.287  1.00  0.00     0.217 C 
HETATM    3  O   UNL     1      44.377 -13.659   4.326  1.00  0.00    -0.274 OA
HETATM    4  H   UNL     1      41.901 -13.714   6.291  1.00  0.00     0.162 HD
ENDROOT
BRANCH   1   5
HETATM    5  C   UNL     1      41.946 -12.327   4.699  1.00  0.00     0.124 C 
BRANCH   5   6
HETATM    6  C   UNL     1      40.541 -11.897   5.113  1.00  0.00     0.047 C 
BRANCH   6   7
HETATM    7  C   UNL     1      40.296 -12.220   6.580  1.00  0.00     0.236 C 
BRANCH   7   8
HETATM    8  N   UNL     1      40.130 -10.946   7.381  1.00  0.00    -0.068 N 
HETATM    9  C   UNL     1      39.165 -11.097   8.567  1.00  0.00     0.254 C 
HETATM   10  C   UNL     1      39.015  -9.752   9.312  1.00  0.00     0.150 C 
HETATM   11  N   UNL     1      40.325  -9.205   9.714  1.00  0.00    -0.378 N 
HETATM   12  C   UNL     1      41.288  -9.062   8.603  1.00  0.00     0.150 C 
HETATM   13  C   UNL     1      41.481 -10.408   7.872  1.00  0.00     0.254 C 
HETATM   14  H   UNL     1      39.737 -10.227   6.761  1.00  0.00     0.280 HD
BRANCH  11  15
HETATM   15  C   UNL     1      40.853  -9.478  10.978  1.00  0.00     0.030 A 
HETATM   16  C   UNL     1      40.322 -10.441  11.846  1.00  0.00     0.032 A 
HETATM   17  C   UNL     1      40.888 -10.686  13.105  1.00  0.00     0.039 A 
HETATM   18  C   UNL     1      41.994  -9.966  13.547  1.00  0.00     0.068 A 
HETATM   19  C   UNL     1      42.518  -8.979  12.722  1.00  0.00     0.039 A 
HETATM   20  C   UNL     1      41.948  -8.741  11.462  1.00  0.00     0.032 A 
BRANCH  18  21
HETATM   21  O   UNL     1      42.449 -10.310  14.787  1.00  0.00    -0.356 OA
HETATM   22  C   UNL     1      41.996  -9.523  15.882  1.00  0.00     0.210 C 
ENDBRANCH  18  21
ENDBRANCH  11  15
ENDBRANCH   7   8
ENDBRANCH   6   7
ENDBRANCH   5   6
ENDBRANCH   1   5
BRANCH   2  23
HETATM   23  C   UNL     1      43.978 -15.158   6.167  1.00  0.00     0.105 C 
BRANCH  23  24
HETATM   24  C   UNL     1      42.754 -15.693   6.920  1.00  0.00     0.046 C 
BRANCH  24  25
HETATM   25  C   UNL     1      41.994 -16.837   6.244  1.00  0.00     0.203 A 
HETATM   26  N   UNL     1      42.901 -17.958   5.919  1.00  0.00    -0.257 NA
HETATM   27  C   UNL     1      42.711 -18.165   4.651  1.00  0.00     0.147 A 
HETATM   28  N   UNL     1      41.834 -17.349   3.994  1.00  0.00    -0.239 N 
HETATM   29  C   UNL     1      43.392 -19.218   3.892  1.00  0.00     0.037 A 
HETATM   30  C   UNL     1      41.576 -17.414   2.621  1.00  0.00     0.187 A 
HETATM   31  C   UNL     1      41.341 -16.460   4.927  1.00  0.00     0.257 A 
HETATM   32  S   UNL     1      40.592 -16.397   1.722  1.00  0.00    -0.040 SA
HETATM   33  N   UNL     1      42.213 -18.426   1.936  1.00  0.00    -0.332 N 
HETATM   34  C   UNL     1      43.107 -19.322   2.532  1.00  0.00     0.048 A 
HETATM   35  H   UNL     1      42.021 -18.504   0.944  1.00  0.00     0.168 HD
HETATM   36  C   UNL     1      43.718 -20.314   1.767  1.00  0.00     0.030 A 
HETATM   37  C   UNL     1      44.614 -21.199   2.373  1.00  0.00     0.002 A 
HETATM   38  C   UNL     1      44.898 -21.090   3.736  1.00  0.00     0.001 A 
HETATM   39  C   UNL     1      44.287 -20.098   4.502  1.00  0.00     0.017 A 
HETATM   40  O   UNL     1      40.566 -15.523   4.794  1.00  0.00    -0.270 OA
ENDBRANCH  24  25
ENDBRANCH  23  24
ENDBRANCH   2  23
TORSDOF 9
ENDMDL
MODEL 7
REMARK VINA RESULT:      -8.0      5.291      9.463
REMARK  9 active torsions:
REMARK  status: ('A' for Active; 'I' for Inactive)
REMARK    1  A    between atoms: O_2  and  C_3 
REMARK    2  A    between atoms: C_6  and  N_7 
REMARK    3  A    between atoms: N_10  and  C_12 
REMARK    4  A    between atoms: C_12  and  C_13 
REMARK    5  A    between atoms: C_13  and  C_14 
REMARK    6  A    between atoms: C_14  and  N_15 
REMARK       I    between atoms: N_15  and  C_16 
REMARK    7  A    between atoms: C_16  and  C_17 
REMARK    8  A    between atoms: C_17  and  C_18 
REMARK    9  A    between atoms: C_18  and  C_19 
ROOT
HETATM    1  N   UNL     1      41.554 -12.658   5.143  1.00  0.00    -0.361 N 
HETATM    2  C   UNL     1      40.736 -11.600   4.799  1.00  0.00     0.217 C 
HETATM    3  O   UNL     1      40.696 -11.128   3.665  1.00  0.00    -0.274 OA
HETATM    4  H   UNL     1      41.683 -12.843   6.132  1.00  0.00     0.162 HD
ENDROOT
BRANCH   1   5
HETATM    5  C   UNL     1      42.613 -13.079   4.250  1.00  0.00     0.124 C 
BRANCH   5   6
HETATM    6  C   UNL     1      43.685 -13.899   4.965  1.00  0.00     0.047 C 
BRANCH   6   7
HETATM    7  C   UNL     1      43.382 -13.985   6.455  1.00  0.00     0.236 C 
BRANCH   7   8
HETATM    8  N   UNL     1      43.166 -15.425   6.867  1.00  0.00    -0.068 N 
HETATM    9  C   UNL     1      42.122 -16.152   6.004  1.00  0.00     0.254 C 
HETATM   10  C   UNL     1      41.927 -17.600   6.505  1.00  0.00     0.150 C 
HETATM   11  N   UNL     1      43.207 -18.328   6.577  1.00  0.00    -0.378 N 
HETATM   12  C   UNL     1      44.244 -17.651   7.384  1.00  0.00     0.150 C 
HETATM   13  C   UNL     1      44.482 -16.215   6.871  1.00  0.00     0.254 C 
HETATM   14  H   UNL     1      42.817 -15.433   7.833  1.00  0.00     0.280 HD
BRANCH  11  15
HETATM   15  C   UNL     1      43.648 -19.103   5.501  1.00  0.00     0.030 A 
HETATM   16  C   UNL     1      43.397 -18.778   4.162  1.00  0.00     0.032 A 
HETATM   17  C   UNL     1      43.864 -19.582   3.112  1.00  0.00     0.039 A 
HETATM   18  C   UNL     1      44.584 -20.746   3.366  1.00  0.00     0.068 A 
HETATM   19  C   UNL     1      44.815 -21.111   4.686  1.00  0.00     0.039 A 
HETATM   20  C   UNL     1      44.347 -20.301   5.731  1.00  0.00     0.032 A 
BRANCH  18  21
HETATM   21  O   UNL     1      44.985 -21.430   2.255  1.00  0.00    -0.356 OA
HETATM   22  C   UNL     1      43.964 -21.987   1.435  1.00  0.00     0.210 C 
ENDBRANCH  18  21
ENDBRANCH  11  15
ENDBRANCH   7   8
ENDBRANCH   6   7
ENDBRANCH   5   6
ENDBRANCH   1   5
BRANCH   2  23
HETATM   23  C   UNL     1      39.919 -11.037   5.942  1.00  0.00     0.105 C 
BRANCH  23  24
HETATM   24  C   UNL     1      39.964  -9.507   6.034  1.00  0.00     0.046 C 
BRANCH  24  25
HETATM   25  C   UNL     1      40.699  -8.927   7.245  1.00  0.00     0.203 A 
HETATM   26  N   UNL     1      41.902  -9.723   7.569  1.00  0.00    -0.257 NA
HETATM   27  C   UNL     1      41.756 -10.025   8.824  1.00  0.00     0.147 A 
HETATM   28  N   UNL     1      40.621  -9.603   9.456  1.00  0.00    -0.239 N 
HETATM   29  C   UNL     1      42.738 -10.798   9.590  1.00  0.00     0.037 A 
HETATM   30  C   UNL     1      40.302  -9.904  10.784  1.00  0.00     0.187 A 
HETATM   31  C   UNL     1      39.880  -8.908   8.523  1.00  0.00     0.257 A 
HETATM   32  S   UNL     1      38.895  -9.508  11.606  1.00  0.00    -0.040 SA
HETATM   33  N   UNL     1      41.252 -10.614  11.486  1.00  0.00    -0.332 N 
HETATM   34  C   UNL     1      42.452 -11.065  10.926  1.00  0.00     0.048 A 
HETATM   35  H   UNL     1      41.048 -10.821  12.457  1.00  0.00     0.168 HD
HETATM   36  C   UNL     1      43.359 -11.785  11.703  1.00  0.00     0.030 A 
HETATM   37  C   UNL     1      44.551 -12.235  11.130  1.00  0.00     0.002 A 
HETATM   38  C   UNL     1      44.834 -11.968   9.789  1.00  0.00     0.001 A 
HETATM   39  C   UNL     1      43.928 -11.246   9.012  1.00  0.00     0.017 A 
HETATM   40  O   UNL     1      38.776  -8.388   8.617  1.00  0.00    -0.270 OA
ENDBRANCH  24  25
ENDBRANCH  23  24
ENDBRANCH   2  23
TORSDOF 9
ENDMDL
MODEL 8
REMARK VINA RESULT:      -7.9      3.360      6.762
REMARK  9 active torsions:
REMARK  status: ('A' for Active; 'I' for Inactive)
REMARK    1  A    between atoms: O_2  and  C_3 
REMARK    2  A    between atoms: C_6  and  N_7 
REMARK    3  A    between atoms: N_10  and  C_12 
REMARK    4  A    between atoms: C_12  and  C_13 
REMARK    5  A    between atoms: C_13  and  C_14 
REMARK    6  A    between atoms: C_14  and  N_15 
REMARK       I    between atoms: N_15  and  C_16 
REMARK    7  A    between atoms: C_16  and  C_17 
REMARK    8  A    between atoms: C_17  and  C_18 
REMARK    9  A    between atoms: C_18  and  C_19 
ROOT
HETATM    1  N   UNL     1      41.716 -13.649   0.451  1.00  0.00    -0.361 N 
HETATM    2  C   UNL     1      41.047 -14.602  -0.290  1.00  0.00     0.217 C 
HETATM    3  O   UNL     1      40.173 -14.320  -1.107  1.00  0.00    -0.274 OA
HETATM    4  H   UNL     1      42.259 -13.974   1.244  1.00  0.00     0.162 HD
ENDROOT
BRANCH   1   5
HETATM    5  C   UNL     1      41.221 -12.289   0.505  1.00  0.00     0.124 C 
BRANCH   5   6
HETATM    6  C   UNL     1      41.374 -11.670   1.893  1.00  0.00     0.047 C 
BRANCH   6   7
HETATM    7  C   UNL     1      41.171 -12.725   2.971  1.00  0.00     0.236 C 
BRANCH   7   8
HETATM    8  N   UNL     1      40.256 -12.201   4.057  1.00  0.00    -0.068 N 
HETATM    9  C   UNL     1      40.126 -13.157   5.253  1.00  0.00     0.254 C 
HETATM   10  C   UNL     1      39.149 -12.577   6.300  1.00  0.00     0.150 C 
HETATM   11  N   UNL     1      39.536 -11.213   6.706  1.00  0.00    -0.378 N 
HETATM   12  C   UNL     1      39.689 -10.267   5.581  1.00  0.00     0.150 C 
HETATM   13  C   UNL     1      40.694 -10.813   4.544  1.00  0.00     0.254 C 
HETATM   14  H   UNL     1      39.316 -12.088   3.657  1.00  0.00     0.280 HD
BRANCH  11  15
HETATM   15  C   UNL     1      40.349 -11.005   7.823  1.00  0.00     0.030 A 
HETATM   16  C   UNL     1      41.733 -10.801   7.743  1.00  0.00     0.032 A 
HETATM   17  C   UNL     1      42.511 -10.591   8.891  1.00  0.00     0.039 A 
HETATM   18  C   UNL     1      41.935 -10.593  10.158  1.00  0.00     0.068 A 
HETATM   19  C   UNL     1      40.571 -10.830  10.268  1.00  0.00     0.039 A 
HETATM   20  C   UNL     1      39.798 -11.037   9.116  1.00  0.00     0.032 A 
BRANCH  18  21
HETATM   21  O   UNL     1      42.803 -10.369  11.187  1.00  0.00    -0.356 OA
HETATM   22  C   UNL     1      44.190 -10.518  10.905  1.00  0.00     0.210 C 
ENDBRANCH  18  21
ENDBRANCH  11  15
ENDBRANCH   7   8
ENDBRANCH   6   7
ENDBRANCH   5   6
ENDBRANCH   1   5
BRANCH   2  23
HETATM   23  C   UNL     1      41.444 -16.031   0.013  1.00  0.00     0.105 C 
BRANCH  23  24
HETATM   24  C   UNL     1      41.666 -16.305   1.505  1.00  0.00     0.046 C 
BRANCH  24  25
HETATM   25  C   UNL     1      43.081 -16.721   1.910  1.00  0.00     0.203 A 
HETATM   26  N   UNL     1      43.290 -18.170   1.701  1.00  0.00    -0.257 NA
HETATM   27  C   UNL     1      43.709 -18.601   2.852  1.00  0.00     0.147 A 
HETATM   28  N   UNL     1      43.805 -17.702   3.876  1.00  0.00    -0.239 N 
HETATM   29  C   UNL     1      44.072 -19.997   3.110  1.00  0.00     0.037 A 
HETATM   30  C   UNL     1      44.181 -18.033   5.182  1.00  0.00     0.187 A 
HETATM   31  C   UNL     1      43.410 -16.480   3.372  1.00  0.00     0.257 A 
HETATM   32  S   UNL     1      44.235 -17.016   6.513  1.00  0.00    -0.040 SA
HETATM   33  N   UNL     1      44.537 -19.348   5.390  1.00  0.00    -0.332 N 
HETATM   34  C   UNL     1      44.493 -20.331   4.395  1.00  0.00     0.048 A 
HETATM   35  H   UNL     1      44.835 -19.602   6.325  1.00  0.00     0.168 HD
HETATM   36  C   UNL     1      44.862 -21.642   4.689  1.00  0.00     0.030 A 
HETATM   37  C   UNL     1      44.807 -22.615   3.689  1.00  0.00     0.002 A 
HETATM   38  C   UNL     1      44.382 -22.278   2.401  1.00  0.00     0.001 A 
HETATM   39  C   UNL     1      44.014 -20.966   2.106  1.00  0.00     0.017 A 
HETATM   40  O   UNL     1      43.291 -15.396   3.927  1.00  0.00    -0.270 OA
ENDBRANCH  24  25
ENDBRANCH  23  24
ENDBRANCH   2  23
TORSDOF 9
ENDMDL
MODEL 9
REMARK VINA RESULT:      -7.7      2.055      3.083
REMARK  9 active torsions:
REMARK  status: ('A' for Active; 'I' for Inactive)
REMARK    1  A    between atoms: O_2  and  C_3 
REMARK    2  A    between atoms: C_6  and  N_7 
REMARK    3  A    between atoms: N_10  and  C_12 
REMARK    4  A    between atoms: C_12  and  C_13 
REMARK    5  A    between atoms: C_13  and  C_14 
REMARK    6  A    between atoms: C_14  and  N_15 
REMARK       I    between atoms: N_15  and  C_16 
REMARK    7  A    between atoms: C_16  and  C_17 
REMARK    8  A    between atoms: C_17  and  C_18 
REMARK    9  A    between atoms: C_18  and  C_19 
ROOT
HETATM    1  N   UNL     1      42.396 -12.961   4.427  1.00  0.00    -0.361 N 
HETATM    2  C   UNL     1      43.544 -13.727   4.450  1.00  0.00     0.217 C 
HETATM    3  O   UNL     1      44.367 -13.724   3.538  1.00  0.00    -0.274 OA
HETATM    4  H   UNL     1      41.676 -13.181   5.107  1.00  0.00     0.162 HD
ENDROOT
BRANCH   1   5
HETATM    5  C   UNL     1      41.967 -12.329   3.197  1.00  0.00     0.124 C 
BRANCH   5   6
HETATM    6  C   UNL     1      40.526 -11.829   3.272  1.00  0.00     0.047 C 
BRANCH   6   7
HETATM    7  C   UNL     1      40.463 -10.341   2.957  1.00  0.00     0.236 C 
BRANCH   7   8
HETATM    8  N   UNL     1      39.858 -10.117   1.587  1.00  0.00    -0.068 N 
HETATM    9  C   UNL     1      40.903 -10.097   0.460  1.00  0.00     0.254 C 
HETATM   10  C   UNL     1      40.220  -9.826  -0.899  1.00  0.00     0.150 C 
HETATM   11  N   UNL     1      39.127 -10.782  -1.158  1.00  0.00    -0.378 N 
HETATM   12  C   UNL     1      38.111 -10.844  -0.087  1.00  0.00     0.150 C 
HETATM   13  C   UNL     1      38.771 -11.154   1.273  1.00  0.00     0.254 C 
HETATM   14  H   UNL     1      39.396  -9.199   1.586  1.00  0.00     0.280 HD
BRANCH  11  15
HETATM   15  C   UNL     1      39.363 -11.957  -1.875  1.00  0.00     0.030 A 
HETATM   16  C   UNL     1      38.618 -13.131  -1.702  1.00  0.00     0.032 A 
HETATM   17  C   UNL     1      38.886 -14.287  -2.448  1.00  0.00     0.039 A 
HETATM   18  C   UNL     1      39.919 -14.316  -3.381  1.00  0.00     0.068 A 
HETATM   19  C   UNL     1      40.698 -13.178  -3.546  1.00  0.00     0.039 A 
HETATM   20  C   UNL     1      40.422 -12.023  -2.798  1.00  0.00     0.032 A 
BRANCH  18  21
HETATM   21  O   UNL     1      40.066 -15.501  -4.042  1.00  0.00    -0.356 OA
HETATM   22  C   UNL     1      38.876 -16.197  -4.394  1.00  0.00     0.210 C 
ENDBRANCH  18  21
ENDBRANCH  11  15
ENDBRANCH   7   8
ENDBRANCH   6   7
ENDBRANCH   5   6
ENDBRANCH   1   5
BRANCH   2  23
HETATM   23  C   UNL     1      43.690 -14.608   5.673  1.00  0.00     0.105 C 
BRANCH  23  24
HETATM   24  C   UNL     1      42.353 -15.003   6.310  1.00  0.00     0.046 C 
BRANCH  24  25
HETATM   25  C   UNL     1      41.693 -16.270   5.761  1.00  0.00     0.203 A 
HETATM   26  N   UNL     1      42.663 -17.384   5.687  1.00  0.00    -0.257 NA
HETATM   27  C   UNL     1      42.588 -17.790   4.455  1.00  0.00     0.147 A 
HETATM   28  N   UNL     1      41.744 -17.125   3.613  1.00  0.00    -0.239 N 
HETATM   29  C   UNL     1      43.368 -18.912   3.925  1.00  0.00     0.037 A 
HETATM   30  C   UNL     1      41.607 -17.410   2.250  1.00  0.00     0.187 A 
HETATM   31  C   UNL     1      41.142 -16.129   4.355  1.00  0.00     0.257 A 
HETATM   32  S   UNL     1      40.669 -16.588   1.129  1.00  0.00    -0.040 SA
HETATM   33  N   UNL     1      42.335 -18.483   1.783  1.00  0.00    -0.332 N 
HETATM   34  C   UNL     1      43.205 -19.235   2.580  1.00  0.00     0.048 A 
HETATM   35  H   UNL     1      42.230 -18.719   0.803  1.00  0.00     0.168 HD
HETATM   36  C   UNL     1      43.912 -20.302   2.028  1.00  0.00     0.030 A 
HETATM   37  C   UNL     1      44.782 -21.041   2.833  1.00  0.00     0.002 A 
HETATM   38  C   UNL     1      44.946 -20.714   4.182  1.00  0.00     0.001 A 
HETATM   39  C   UNL     1      44.237 -19.647   4.733  1.00  0.00     0.017 A 
HETATM   40  O   UNL     1      40.350 -15.260   4.016  1.00  0.00    -0.270 OA
ENDBRANCH  24  25
ENDBRANCH  23  24
ENDBRANCH   2  23
TORSDOF 9
ENDMDL
MODEL 10
REMARK VINA RESULT:      -7.7      1.375      1.592
REMARK  9 active torsions:
REMARK  status: ('A' for Active; 'I' for Inactive)
REMARK    1  A    between atoms: O_2  and  C_3 
REMARK    2  A    between atoms: C_6  and  N_7 
REMARK    3  A    between atoms: N_10  and  C_12 
REMARK    4  A    between atoms: C_12  and  C_13 
REMARK    5  A    between atoms: C_13  and  C_14 
REMARK    6  A    between atoms: C_14  and  N_15 
REMARK       I    between atoms: N_15  and  C_16 
REMARK    7  A    between atoms: C_16  and  C_17 
REMARK    8  A    between atoms: C_17  and  C_18 
REMARK    9  A    between atoms: C_18  and  C_19 
ROOT
HETATM    1  N   UNL     1      39.353 -13.136   3.253  1.00  0.00    -0.361 N 
HETATM    2  C   UNL     1      40.577 -13.566   2.782  1.00  0.00     0.217 C 
HETATM    3  O   UNL     1      41.636 -13.010   3.069  1.00  0.00    -0.274 OA
HETATM    4  H   UNL     1      38.524 -13.511   2.804  1.00  0.00     0.162 HD
ENDROOT
BRANCH   1   5
HETATM    5  C   UNL     1      39.230 -11.838   3.882  1.00  0.00     0.124 C 
BRANCH   5   6
HETATM    6  C   UNL     1      38.769 -10.759   2.904  1.00  0.00     0.047 C 
BRANCH   6   7
HETATM    7  C   UNL     1      39.901  -9.784   2.616  1.00  0.00     0.236 C 
BRANCH   7   8
HETATM    8  N   UNL     1      40.107  -9.640   1.123  1.00  0.00    -0.068 N 
HETATM    9  C   UNL     1      41.419 -10.270   0.629  1.00  0.00     0.254 C 
HETATM   10  C   UNL     1      41.579 -10.052  -0.892  1.00  0.00     0.150 C 
HETATM   11  N   UNL     1      40.402 -10.537  -1.638  1.00  0.00    -0.378 N 
HETATM   12  C   UNL     1      39.118  -9.968  -1.179  1.00  0.00     0.150 C 
HETATM   13  C   UNL     1      38.922 -10.212   0.332  1.00  0.00     0.254 C 
HETATM   14  H   UNL     1      40.151  -8.638   0.900  1.00  0.00     0.280 HD
BRANCH  11  15
HETATM   15  C   UNL     1      40.371 -11.835  -2.153  1.00  0.00     0.030 A 
HETATM   16  C   UNL     1      39.381 -12.772  -1.827  1.00  0.00     0.032 A 
HETATM   17  C   UNL     1      39.385 -14.064  -2.373  1.00  0.00     0.039 A 
HETATM   18  C   UNL     1      40.387 -14.469  -3.250  1.00  0.00     0.068 A 
HETATM   19  C   UNL     1      41.401 -13.572  -3.561  1.00  0.00     0.039 A 
HETATM   20  C   UNL     1      41.390 -12.280  -3.013  1.00  0.00     0.032 A 
BRANCH  18  21
HETATM   21  O   UNL     1      40.267 -15.747  -3.712  1.00  0.00    -0.356 OA
HETATM   22  C   UNL     1      38.970 -16.168  -4.118  1.00  0.00     0.210 C 
ENDBRANCH  18  21
ENDBRANCH  11  15
ENDBRANCH   7   8
ENDBRANCH   6   7
ENDBRANCH   5   6
ENDBRANCH   1   5
BRANCH   2  23
HETATM   23  C   UNL     1      40.513 -14.754   1.846  1.00  0.00     0.105 C 
BRANCH  23  24
HETATM   24  C   UNL     1      40.872 -16.086   2.517  1.00  0.00     0.046 C 
BRANCH  24  25
HETATM   25  C   UNL     1      42.359 -16.444   2.548  1.00  0.00     0.203 A 
HETATM   26  N   UNL     1      42.585 -17.820   2.056  1.00  0.00    -0.257 NA
HETATM   27  C   UNL     1      43.261 -18.391   3.008  1.00  0.00     0.147 A 
HETATM   28  N   UNL     1      43.532 -17.659   4.128  1.00  0.00    -0.239 N 
HETATM   29  C   UNL     1      43.735 -19.776   2.943  1.00  0.00     0.037 A 
HETATM   30  C   UNL     1      44.195 -18.160   5.254  1.00  0.00     0.187 A 
HETATM   31  C   UNL     1      42.982 -16.409   3.931  1.00  0.00     0.257 A 
HETATM   32  S   UNL     1      44.485 -17.364   6.700  1.00  0.00    -0.040 SA
HETATM   33  N   UNL     1      44.648 -19.458   5.157  1.00  0.00    -0.332 N 
HETATM   34  C   UNL     1      44.437 -20.272   4.040  1.00  0.00     0.048 A 
HETATM   35  H   UNL     1      45.151 -19.831   5.955  1.00  0.00     0.168 HD
HETATM   36  C   UNL     1      44.921 -21.579   4.024  1.00  0.00     0.030 A 
HETATM   37  C   UNL     1      44.698 -22.383   2.904  1.00  0.00     0.002 A 
HETATM   38  C   UNL     1      43.992 -21.885   1.807  1.00  0.00     0.001 A 
HETATM   39  C   UNL     1      43.508 -20.577   1.822  1.00  0.00     0.017 A 
HETATM   40  O   UNL     1      42.935 -15.440   4.676  1.00  0.00    -0.270 OA
ENDBRANCH  24  25
ENDBRANCH  23  24
ENDBRANCH   2  23
TORSDOF 9
ENDMDL
