MODEL 1
REMARK VINA RESULT:      -7.7      0.000      0.000
REMARK  6 active torsions:
REMARK  status: ('A' for Active; 'I' for Inactive)
REMARK    1  A    between atoms: C_2  and  C_3 
REMARK    2  A    between atoms: C_3  and  O_4 
REMARK    3  A    between atoms: C_3  and  C_12 
REMARK    4  A    between atoms: O_4  and  C_5 
REMARK    5  A    between atoms: C_12  and  N_13 
REMARK       I    between atoms: N_13  and  C_14 
REMARK       I    between atoms: C_14  and  N_15 
REMARK    6  A    between atoms: N_15  and  C_16 
ROOT
HETATM    1  N   UNL     1      41.670 -17.716   4.597  1.00  0.00    -0.340 N 
HETATM    2  C   UNL     1      41.273 -16.569   3.954  1.00  0.00     0.320 C 
HETATM    3  N   UNL     1      40.457 -16.853   2.882  1.00  0.00    -0.307 N 
HETATM    4  O   UNL     1      41.603 -15.443   4.299  1.00  0.00    -0.247 OA
HETATM    5  H   UNL     1      41.417 -18.596   4.175  1.00  0.00     0.164 HD
HETATM    6  H   UNL     1      39.866 -17.660   2.992  1.00  0.00     0.170 HD
ENDROOT
BRANCH   1   7
HETATM    7  C   UNL     1      42.311 -17.777   5.906  1.00  0.00     0.156 C 
BRANCH   7   8
HETATM    8  C   UNL     1      43.742 -18.348   6.017  1.00  0.00     0.146 C 
BRANCH   8   9
HETATM    9  C   UNL     1      44.772 -17.352   6.577  1.00  0.00     0.029 C 
HETATM   10  C   UNL     1      44.254 -15.928   6.733  1.00  0.00     0.007 C 
ENDBRANCH   8   9
BRANCH   8  11
HETATM   11  O   UNL     1      44.129 -18.731   4.685  1.00  0.00    -0.343 OA
BRANCH  11  12
HETATM   12  C   UNL     1      44.344 -20.048   4.380  1.00  0.00     0.091 A 
HETATM   13  C   UNL     1      44.203 -20.407   3.028  1.00  0.00     0.067 A 
HETATM   14 CL   UNL     1      43.799 -19.232   1.822  1.00  0.00    -0.081 Cl
HETATM   15  C   UNL     1      44.386 -21.730   2.614  1.00  0.00     0.026 A 
HETATM   16  C   UNL     1      44.710 -22.714   3.544  1.00  0.00     0.002 A 
HETATM   17  C   UNL     1      44.863 -22.369   4.885  1.00  0.00     0.003 A 
HETATM   18  C   UNL     1      44.688 -21.044   5.299  1.00  0.00     0.038 A 
ENDBRANCH  11  12
ENDBRANCH   8  11
ENDBRANCH   7   8
ENDBRANCH   1   7
BRANCH   3  19
HETATM   19  C   UNL     1      40.115 -15.929   1.867  1.00  0.00     0.059 A 
HETATM   20  C   UNL     1      40.964 -15.741   0.763  1.00  0.00    -0.032 A 
HETATM   21  C   UNL     1      42.198 -16.567   0.542  1.00  0.00     0.050 C 
HETATM   22  C   UNL     1      40.615 -14.773  -0.189  1.00  0.00     0.028 A 
HETATM   23  C   UNL     1      39.457 -14.031  -0.012  1.00  0.00     0.117 A 
HETATM   24  N   UNL     1      38.626 -14.185   1.033  1.00  0.00    -0.271 NA
HETATM   25  C   UNL     1      38.968 -15.132   1.943  1.00  0.00     0.146 A 
ENDBRANCH   3  19
TORSDOF 6
ENDMDL
MODEL 2
REMARK VINA RESULT:      -7.6      0.948      1.481
REMARK  6 active torsions:
REMARK  status: ('A' for Active; 'I' for Inactive)
REMARK    1  A    between atoms: C_2  and  C_3 
REMARK    2  A    between atoms: C_3  and  O_4 
REMARK    3  A    between atoms: C_3  and  C_12 
REMARK    4  A    between atoms: O_4  and  C_5 
REMARK    5  A    between atoms: C_12  and  N_13 
REMARK       I    between atoms: N_13  and  C_14 
REMARK       I    between atoms: C_14  and  N_15 
REMARK    6  A    between atoms: N_15  and  C_16 
ROOT
HETATM    1  N   UNL     1      41.719 -17.768   4.631  1.00  0.00    -0.340 N 
HETATM    2  C   UNL     1      41.755 -16.732   3.731  1.00  0.00     0.320 C 
HETATM    3  N   UNL     1      40.806 -16.890   2.746  1.00  0.00    -0.307 N 
HETATM    4  O   UNL     1      42.532 -15.790   3.804  1.00  0.00    -0.247 OA
HETATM    5  H   UNL     1      41.103 -18.540   4.426  1.00  0.00     0.164 HD
HETATM    6  H   UNL     1      39.955 -17.343   3.037  1.00  0.00     0.170 HD
ENDROOT
BRANCH   1   7
HETATM    7  C   UNL     1      42.393 -17.793   5.925  1.00  0.00     0.156 C 
BRANCH   7   8
HETATM    8  C   UNL     1      43.826 -18.359   6.016  1.00  0.00     0.146 C 
BRANCH   8   9
HETATM    9  C   UNL     1      44.846 -17.385   6.632  1.00  0.00     0.029 C 
HETATM   10  C   UNL     1      44.326 -15.967   6.830  1.00  0.00     0.007 C 
ENDBRANCH   8   9
BRANCH   8  11
HETATM   11  O   UNL     1      44.224 -18.672   4.669  1.00  0.00    -0.343 OA
BRANCH  11  12
HETATM   12  C   UNL     1      44.382 -19.975   4.281  1.00  0.00     0.091 A 
HETATM   13  C   UNL     1      44.189 -20.247   2.915  1.00  0.00     0.067 A 
HETATM   14 CL   UNL     1      43.793 -18.989   1.794  1.00  0.00    -0.081 Cl
HETATM   15  C   UNL     1      44.311 -21.548   2.418  1.00  0.00     0.026 A 
HETATM   16  C   UNL     1      44.626 -22.597   3.278  1.00  0.00     0.002 A 
HETATM   17  C   UNL     1      44.830 -22.339   4.632  1.00  0.00     0.003 A 
HETATM   18  C   UNL     1      44.716 -21.036   5.129  1.00  0.00     0.038 A 
ENDBRANCH  11  12
ENDBRANCH   8  11
ENDBRANCH   7   8
ENDBRANCH   1   7
BRANCH   3  19
HETATM   19  C   UNL     1      40.772 -16.156   1.537  1.00  0.00     0.059 A 
HETATM   20  C   UNL     1      40.026 -14.969   1.448  1.00  0.00    -0.032 A 
HETATM   21  C   UNL     1      39.328 -14.362   2.631  1.00  0.00     0.050 C 
HETATM   22  C   UNL     1      39.973 -14.305   0.214  1.00  0.00     0.028 A 
HETATM   23  C   UNL     1      40.646 -14.839  -0.875  1.00  0.00     0.117 A 
HETATM   24  N   UNL     1      41.366 -15.974  -0.822  1.00  0.00    -0.271 NA
HETATM   25  C   UNL     1      41.418 -16.601   0.380  1.00  0.00     0.146 A 
ENDBRANCH   3  19
TORSDOF 6
ENDMDL
MODEL 3
REMARK VINA RESULT:      -7.6      1.926      2.490
REMARK  6 active torsions:
REMARK  status: ('A' for Active; 'I' for Inactive)
REMARK    1  A    between atoms: C_2  and  C_3 
REMARK    2  A    between atoms: C_3  and  O_4 
REMARK    3  A    between atoms: C_3  and  C_12 
REMARK    4  A    between atoms: O_4  and  C_5 
REMARK    5  A    between atoms: C_12  and  N_13 
REMARK       I    between atoms: N_13  and  C_14 
REMARK       I    between atoms: C_14  and  N_15 
REMARK    6  A    between atoms: N_15  and  C_16 
ROOT
HETATM    1  N   UNL     1      42.678 -16.838   4.776  1.00  0.00    -0.340 N 
HETATM    2  C   UNL     1      42.925 -16.237   3.566  1.00  0.00     0.320 C 
HETATM    3  N   UNL     1      41.831 -15.526   3.127  1.00  0.00    -0.307 N 
HETATM    4  O   UNL     1      43.985 -16.325   2.963  1.00  0.00    -0.247 OA
HETATM    5  H   UNL     1      41.740 -16.778   5.141  1.00  0.00     0.164 HD
HETATM    6  H   UNL     1      41.271 -15.106   3.851  1.00  0.00     0.170 HD
ENDROOT
BRANCH   1   7
HETATM    7  C   UNL     1      43.682 -17.440   5.646  1.00  0.00     0.156 C 
BRANCH   7   8
HETATM    8  C   UNL     1      43.660 -18.967   5.876  1.00  0.00     0.146 C 
BRANCH   8   9
HETATM    9  C   UNL     1      43.884 -19.383   7.340  1.00  0.00     0.029 C 
HETATM   10  C   UNL     1      43.507 -20.826   7.652  1.00  0.00     0.007 C 
ENDBRANCH   8   9
BRANCH   8  11
HETATM   11  O   UNL     1      44.711 -19.514   5.061  1.00  0.00    -0.343 OA
BRANCH  11  12
HETATM   12  C   UNL     1      44.411 -20.206   3.918  1.00  0.00     0.091 A 
HETATM   13  C   UNL     1      44.706 -21.580   3.923  1.00  0.00     0.067 A 
HETATM   14 CL   UNL     1      45.392 -22.347   5.316  1.00  0.00    -0.081 Cl
HETATM   15  C   UNL     1      44.452 -22.373   2.801  1.00  0.00     0.026 A 
HETATM   16  C   UNL     1      43.902 -21.806   1.655  1.00  0.00     0.002 A 
HETATM   17  C   UNL     1      43.595 -20.446   1.640  1.00  0.00     0.003 A 
HETATM   18  C   UNL     1      43.841 -19.653   2.766  1.00  0.00     0.038 A 
ENDBRANCH  11  12
ENDBRANCH   8  11
ENDBRANCH   7   8
ENDBRANCH   1   7
BRANCH   3  19
HETATM   19  C   UNL     1      41.667 -15.035   1.810  1.00  0.00     0.059 A 
HETATM   20  C   UNL     1      41.319 -15.908   0.766  1.00  0.00    -0.032 A 
HETATM   21  C   UNL     1      40.996 -17.356   0.996  1.00  0.00     0.050 C 
HETATM   22  C   UNL     1      41.225 -15.389  -0.533  1.00  0.00     0.028 A 
HETATM   23  C   UNL     1      41.485 -14.044  -0.749  1.00  0.00     0.117 A 
HETATM   24  N   UNL     1      41.823 -13.184   0.229  1.00  0.00    -0.271 NA
HETATM   25  C   UNL     1      41.900 -13.696   1.483  1.00  0.00     0.146 A 
ENDBRANCH   3  19
TORSDOF 6
ENDMDL
MODEL 4
REMARK VINA RESULT:      -7.4      2.267      3.461
REMARK  6 active torsions:
REMARK  status: ('A' for Active; 'I' for Inactive)
REMARK    1  A    between atoms: C_2  and  C_3 
REMARK    2  A    between atoms: C_3  and  O_4 
REMARK    3  A    between atoms: C_3  and  C_12 
REMARK    4  A    between atoms: O_4  and  C_5 
REMARK    5  A    between atoms: C_12  and  N_13 
REMARK       I    between atoms: N_13  and  C_14 
REMARK       I    between atoms: C_14  and  N_15 
REMARK    6  A    between atoms: N_15  and  C_16 
ROOT
HETATM    1  N   UNL     1      42.105 -16.558   0.198  1.00  0.00    -0.340 N 
HETATM    2  C   UNL     1      41.511 -15.321   0.271  1.00  0.00     0.320 C 
HETATM    3  N   UNL     1      40.356 -15.274  -0.477  1.00  0.00    -0.307 N 
HETATM    4  O   UNL     1      41.957 -14.387   0.922  1.00  0.00    -0.247 OA
HETATM    5  H   UNL     1      41.705 -17.227  -0.441  1.00  0.00     0.164 HD
HETATM    6  H   UNL     1      39.839 -16.136  -0.524  1.00  0.00     0.170 HD
ENDROOT
BRANCH   1   7
HETATM    7  C   UNL     1      43.181 -17.036   1.060  1.00  0.00     0.156 C 
BRANCH   7   8
HETATM    8  C   UNL     1      42.856 -18.055   2.173  1.00  0.00     0.146 C 
BRANCH   8   9
HETATM    9  C   UNL     1      42.036 -17.473   3.337  1.00  0.00     0.029 C 
HETATM   10  C   UNL     1      42.694 -16.296   4.047  1.00  0.00     0.007 C 
ENDBRANCH   8   9
BRANCH   8  11
HETATM   11  O   UNL     1      44.122 -18.524   2.672  1.00  0.00    -0.343 OA
BRANCH  11  12
HETATM   12  C   UNL     1      44.286 -19.841   3.010  1.00  0.00     0.091 A 
HETATM   13  C   UNL     1      44.687 -20.101   4.331  1.00  0.00     0.067 A 
HETATM   14 CL   UNL     1      44.936 -18.817   5.466  1.00  0.00    -0.081 Cl
HETATM   15  C   UNL     1      44.899 -21.411   4.773  1.00  0.00     0.026 A 
HETATM   16  C   UNL     1      44.713 -22.480   3.901  1.00  0.00     0.002 A 
HETATM   17  C   UNL     1      44.306 -22.236   2.591  1.00  0.00     0.003 A 
HETATM   18  C   UNL     1      44.086 -20.926   2.150  1.00  0.00     0.038 A 
ENDBRANCH  11  12
ENDBRANCH   8  11
ENDBRANCH   7   8
ENDBRANCH   1   7
BRANCH   3  19
HETATM   19  C   UNL     1      39.676 -14.086  -0.831  1.00  0.00     0.059 A 
HETATM   20  C   UNL     1      38.540 -13.678  -0.111  1.00  0.00    -0.032 A 
HETATM   21  C   UNL     1      38.058 -14.398   1.115  1.00  0.00     0.050 C 
HETATM   22  C   UNL     1      37.862 -12.525  -0.533  1.00  0.00     0.028 A 
HETATM   23  C   UNL     1      38.323 -11.833  -1.642  1.00  0.00     0.117 A 
HETATM   24  N   UNL     1      39.404 -12.199  -2.353  1.00  0.00    -0.271 NA
HETATM   25  C   UNL     1      40.058 -13.310  -1.929  1.00  0.00     0.146 A 
ENDBRANCH   3  19
TORSDOF 6
ENDMDL
MODEL 5
REMARK VINA RESULT:      -7.3      2.526      3.426
REMARK  6 active torsions:
REMARK  status: ('A' for Active; 'I' for Inactive)
REMARK    1  A    between atoms: C_2  and  C_3 
REMARK    2  A    between atoms: C_3  and  O_4 
REMARK    3  A    between atoms: C_3  and  C_12 
REMARK    4  A    between atoms: O_4  and  C_5 
REMARK    5  A    between atoms: C_12  and  N_13 
REMARK       I    between atoms: N_13  and  C_14 
REMARK       I    between atoms: C_14  and  N_15 
REMARK    6  A    between atoms: N_15  and  C_16 
ROOT
HETATM    1  N   UNL     1      41.620 -16.354   1.530  1.00  0.00    -0.340 N 
HETATM    2  C   UNL     1      41.020 -15.477   0.659  1.00  0.00     0.320 C 
HETATM    3  N   UNL     1      41.797 -15.268  -0.458  1.00  0.00    -0.307 N 
HETATM    4  O   UNL     1      39.932 -14.955   0.857  1.00  0.00    -0.247 OA
HETATM    5  H   UNL     1      42.558 -16.653   1.313  1.00  0.00     0.164 HD
HETATM    6  H   UNL     1      42.344 -16.059  -0.756  1.00  0.00     0.170 HD
ENDROOT
BRANCH   1   7
HETATM    7  C   UNL     1      40.974 -16.995   2.669  1.00  0.00     0.156 C 
BRANCH   7   8
HETATM    8  C   UNL     1      41.845 -17.511   3.835  1.00  0.00     0.146 C 
BRANCH   8   9
HETATM    9  C   UNL     1      42.001 -16.509   4.992  1.00  0.00     0.029 C 
HETATM   10  C   UNL     1      43.222 -15.605   4.885  1.00  0.00     0.007 C 
ENDBRANCH   8   9
BRANCH   8  11
HETATM   11  O   UNL     1      43.140 -17.796   3.277  1.00  0.00    -0.343 OA
BRANCH  11  12
HETATM   12  C   UNL     1      43.527 -19.090   3.052  1.00  0.00     0.091 A 
HETATM   13  C   UNL     1      44.362 -19.670   4.022  1.00  0.00     0.067 A 
HETATM   14 CL   UNL     1      44.851 -18.790   5.431  1.00  0.00    -0.081 Cl
HETATM   15  C   UNL     1      44.825 -20.981   3.879  1.00  0.00     0.026 A 
HETATM   16  C   UNL     1      44.462 -21.732   2.764  1.00  0.00     0.002 A 
HETATM   17  C   UNL     1      43.626 -21.172   1.800  1.00  0.00     0.003 A 
HETATM   18  C   UNL     1      43.155 -19.863   1.947  1.00  0.00     0.038 A 
ENDBRANCH  11  12
ENDBRANCH   8  11
ENDBRANCH   7   8
ENDBRANCH   1   7
BRANCH   3  19
HETATM   19  C   UNL     1      41.597 -14.226  -1.393  1.00  0.00     0.059 A 
HETATM   20  C   UNL     1      41.041 -14.501  -2.654  1.00  0.00    -0.032 A 
HETATM   21  C   UNL     1      40.535 -15.862  -3.035  1.00  0.00     0.050 C 
HETATM   22  C   UNL     1      40.915 -13.448  -3.571  1.00  0.00     0.028 A 
HETATM   23  C   UNL     1      41.346 -12.179  -3.213  1.00  0.00     0.117 A 
HETATM   24  N   UNL     1      41.884 -11.885  -2.016  1.00  0.00    -0.271 NA
HETATM   25  C   UNL     1      41.991 -12.910  -1.133  1.00  0.00     0.146 A 
ENDBRANCH   3  19
TORSDOF 6
ENDMDL
MODEL 6
REMARK VINA RESULT:      -7.2      2.520      3.793
REMARK  6 active torsions:
REMARK  status: ('A' for Active; 'I' for Inactive)
REMARK    1  A    between atoms: C_2  and  C_3 
REMARK    2  A    between atoms: C_3  and  O_4 
REMARK    3  A    between atoms: C_3  and  C_12 
REMARK    4  A    between atoms: O_4  and  C_5 
REMARK    5  A    between atoms: C_12  and  N_13 
REMARK       I    between atoms: N_13  and  C_14 
REMARK       I    between atoms: C_14  and  N_15 
REMARK    6  A    between atoms: N_15  and  C_16 
ROOT
HETATM    1  N   UNL     1      42.100 -14.896   1.393  1.00  0.00    -0.340 N 
HETATM    2  C   UNL     1      41.595 -15.394   0.217  1.00  0.00     0.320 C 
HETATM    3  N   UNL     1      41.091 -14.390  -0.578  1.00  0.00    -0.307 N 
HETATM    4  O   UNL     1      41.601 -16.581  -0.080  1.00  0.00    -0.247 OA
HETATM    5  H   UNL     1      41.961 -13.914   1.578  1.00  0.00     0.164 HD
HETATM    6  H   UNL     1      41.567 -13.506  -0.510  1.00  0.00     0.170 HD
ENDROOT
BRANCH   1   7
HETATM    7  C   UNL     1      42.935 -15.629   2.338  1.00  0.00     0.156 C 
BRANCH   7   8
HETATM    8  C   UNL     1      42.317 -16.792   3.144  1.00  0.00     0.146 C 
BRANCH   8   9
HETATM    9  C   UNL     1      41.337 -16.342   4.241  1.00  0.00     0.029 C 
HETATM   10  C   UNL     1      41.126 -17.360   5.356  1.00  0.00     0.007 C 
ENDBRANCH   8   9
BRANCH   8  11
HETATM   11  O   UNL     1      43.417 -17.494   3.749  1.00  0.00    -0.343 OA
BRANCH  11  12
HETATM   12  C   UNL     1      43.714 -18.774   3.367  1.00  0.00     0.091 A 
HETATM   13  C   UNL     1      44.473 -19.536   4.272  1.00  0.00     0.067 A 
HETATM   14 CL   UNL     1      44.982 -18.883   5.793  1.00  0.00    -0.081 Cl
HETATM   15  C   UNL     1      44.843 -20.850   3.971  1.00  0.00     0.026 A 
HETATM   16  C   UNL     1      44.461 -21.423   2.761  1.00  0.00     0.002 A 
HETATM   17  C   UNL     1      43.699 -20.682   1.860  1.00  0.00     0.003 A 
HETATM   18  C   UNL     1      43.322 -19.370   2.164  1.00  0.00     0.038 A 
ENDBRANCH  11  12
ENDBRANCH   8  11
ENDBRANCH   7   8
ENDBRANCH   1   7
BRANCH   3  19
HETATM   19  C   UNL     1      40.263 -14.598  -1.706  1.00  0.00     0.059 A 
HETATM   20  C   UNL     1      38.901 -14.255  -1.660  1.00  0.00    -0.032 A 
HETATM   21  C   UNL     1      38.282 -13.562  -0.481  1.00  0.00     0.050 C 
HETATM   22  C   UNL     1      38.105 -14.533  -2.780  1.00  0.00     0.028 A 
HETATM   23  C   UNL     1      38.678 -15.140  -3.888  1.00  0.00     0.117 A 
HETATM   24  N   UNL     1      39.976 -15.482  -3.962  1.00  0.00    -0.271 NA
HETATM   25  C   UNL     1      40.738 -15.199  -2.876  1.00  0.00     0.146 A 
ENDBRANCH   3  19
TORSDOF 6
ENDMDL
MODEL 7
REMARK VINA RESULT:      -7.2      2.427      6.750
REMARK  6 active torsions:
REMARK  status: ('A' for Active; 'I' for Inactive)
REMARK    1  A    between atoms: C_2  and  C_3 
REMARK    2  A    between atoms: C_3  and  O_4 
REMARK    3  A    between atoms: C_3  and  C_12 
REMARK    4  A    between atoms: O_4  and  C_5 
REMARK    5  A    between atoms: C_12  and  N_13 
REMARK       I    between atoms: N_13  and  C_14 
REMARK       I    between atoms: C_14  and  N_15 
REMARK    6  A    between atoms: N_15  and  C_16 
ROOT
HETATM    1  N   UNL     1      43.425 -17.291   1.249  1.00  0.00    -0.340 N 
HETATM    2  C   UNL     1      43.169 -18.450   1.940  1.00  0.00     0.320 C 
HETATM    3  N   UNL     1      44.314 -18.956   2.513  1.00  0.00    -0.307 N 
HETATM    4  O   UNL     1      42.060 -18.958   2.033  1.00  0.00    -0.247 OA
HETATM    5  H   UNL     1      44.389 -17.009   1.158  1.00  0.00     0.164 HD
HETATM    6  H   UNL     1      44.985 -18.268   2.812  1.00  0.00     0.170 HD
ENDROOT
BRANCH   1   7
HETATM    7  C   UNL     1      42.420 -16.360   0.748  1.00  0.00     0.156 C 
BRANCH   7   8
HETATM    8  C   UNL     1      41.277 -15.911   1.684  1.00  0.00     0.146 C 
BRANCH   8   9
HETATM    9  C   UNL     1      40.203 -15.053   0.994  1.00  0.00     0.029 C 
HETATM   10  C   UNL     1      38.906 -14.911   1.781  1.00  0.00     0.007 C 
ENDBRANCH   8   9
BRANCH   8  11
HETATM   11  O   UNL     1      41.893 -15.146   2.736  1.00  0.00    -0.343 OA
BRANCH  11  12
HETATM   12  C   UNL     1      41.963 -15.650   4.006  1.00  0.00     0.091 A 
HETATM   13  C   UNL     1      42.909 -15.058   4.861  1.00  0.00     0.067 A 
HETATM   14 CL   UNL     1      43.910 -13.750   4.328  1.00  0.00    -0.081 Cl
HETATM   15  C   UNL     1      43.072 -15.510   6.174  1.00  0.00     0.026 A 
HETATM   16  C   UNL     1      42.294 -16.560   6.653  1.00  0.00     0.002 A 
HETATM   17  C   UNL     1      41.345 -17.149   5.819  1.00  0.00     0.003 A 
HETATM   18  C   UNL     1      41.176 -16.692   4.507  1.00  0.00     0.038 A 
ENDBRANCH  11  12
ENDBRANCH   8  11
ENDBRANCH   7   8
ENDBRANCH   1   7
BRANCH   3  19
HETATM   19  C   UNL     1      44.437 -20.261   3.044  1.00  0.00     0.059 A 
HETATM   20  C   UNL     1      44.670 -20.449   4.417  1.00  0.00    -0.032 A 
HETATM   21  C   UNL     1      44.690 -19.312   5.397  1.00  0.00     0.050 C 
HETATM   22  C   UNL     1      44.845 -21.757   4.890  1.00  0.00     0.028 A 
HETATM   23  C   UNL     1      44.791 -22.817   3.997  1.00  0.00     0.117 A 
HETATM   24  N   UNL     1      44.572 -22.669   2.679  1.00  0.00    -0.271 NA
HETATM   25  C   UNL     1      44.394 -21.400   2.234  1.00  0.00     0.146 A 
ENDBRANCH   3  19
TORSDOF 6
ENDMDL
MODEL 8
REMARK VINA RESULT:      -7.1      1.628      2.515
REMARK  6 active torsions:
REMARK  status: ('A' for Active; 'I' for Inactive)
REMARK    1  A    between atoms: C_2  and  C_3 
REMARK    2  A    between atoms: C_3  and  O_4 
REMARK    3  A    between atoms: C_3  and  C_12 
REMARK    4  A    between atoms: O_4  and  C_5 
REMARK    5  A    between atoms: C_12  and  N_13 
REMARK       I    between atoms: N_13  and  C_14 
REMARK       I    between atoms: C_14  and  N_15 
REMARK    6  A    between atoms: N_15  and  C_16 
ROOT
HETATM    1  N   UNL     1      40.653 -16.350   3.463  1.00  0.00    -0.340 N 
HETATM    2  C   UNL     1      40.526 -15.248   2.654  1.00  0.00     0.320 C 
HETATM    3  N   UNL     1      39.905 -15.565   1.467  1.00  0.00    -0.307 N 
HETATM    4  O   UNL     1      40.913 -14.128   2.960  1.00  0.00    -0.247 OA
HETATM    5  H   UNL     1      40.385 -17.242   3.076  1.00  0.00     0.164 HD
HETATM    6  H   UNL     1      39.213 -16.294   1.524  1.00  0.00     0.170 HD
ENDROOT
BRANCH   1   7
HETATM    7  C   UNL     1      41.018 -16.331   4.875  1.00  0.00     0.156 C 
BRANCH   7   8
HETATM    8  C   UNL     1      42.504 -16.462   5.271  1.00  0.00     0.146 C 
BRANCH   8   9
HETATM    9  C   UNL     1      43.111 -15.178   5.861  1.00  0.00     0.029 C 
HETATM   10  C   UNL     1      44.292 -15.408   6.796  1.00  0.00     0.007 C 
ENDBRANCH   8   9
BRANCH   8  11
HETATM   11  O   UNL     1      43.213 -16.813   4.068  1.00  0.00    -0.343 OA
BRANCH  11  12
HETATM   12  C   UNL     1      43.769 -18.056   3.932  1.00  0.00     0.091 A 
HETATM   13  C   UNL     1      43.761 -18.605   2.638  1.00  0.00     0.067 A 
HETATM   14 CL   UNL     1      43.098 -17.735   1.295  1.00  0.00    -0.081 Cl
HETATM   15  C   UNL     1      44.289 -19.876   2.393  1.00  0.00     0.026 A 
HETATM   16  C   UNL     1      44.833 -20.619   3.438  1.00  0.00     0.002 A 
HETATM   17  C   UNL     1      44.856 -20.082   4.724  1.00  0.00     0.003 A 
HETATM   18  C   UNL     1      44.335 -18.807   4.968  1.00  0.00     0.038 A 
ENDBRANCH  11  12
ENDBRANCH   8  11
ENDBRANCH   7   8
ENDBRANCH   1   7
BRANCH   3  19
HETATM   19  C   UNL     1      39.877 -14.729   0.327  1.00  0.00     0.059 A 
HETATM   20  C   UNL     1      38.700 -14.046  -0.024  1.00  0.00    -0.032 A 
HETATM   21  C   UNL     1      37.466 -14.072   0.830  1.00  0.00     0.050 C 
HETATM   22  C   UNL     1      38.700 -13.275  -1.195  1.00  0.00     0.028 A 
HETATM   23  C   UNL     1      39.848 -13.216  -1.971  1.00  0.00     0.117 A 
HETATM   24  N   UNL     1      40.988 -13.860  -1.664  1.00  0.00    -0.271 NA
HETATM   25  C   UNL     1      40.980 -14.594  -0.523  1.00  0.00     0.146 A 
ENDBRANCH   3  19
TORSDOF 6
ENDMDL
MODEL 9
REMARK VINA RESULT:      -7.0      2.275      3.978
REMARK  6 active torsions:
REMARK  status: ('A' for Active; 'I' for Inactive)
REMARK    1  A    between atoms: C_2  and  C_3 
REMARK    2  A    between atoms: C_3  and  O_4 
REMARK    3  A    between atoms: C_3  and  C_12 
REMARK    4  A    between atoms: O_4  and  C_5 
REMARK    5  A    between atoms: C_12  and  N_13 
REMARK       I    between atoms: N_13  and  C_14 
REMARK       I    between atoms: C_14  and  N_15 
REMARK    6  A    between atoms: N_15  and  C_16 
ROOT
HETATM    1  N   UNL     1      43.061 -17.081   0.631  1.00  0.00    -0.340 N 
HETATM    2  C   UNL     1      42.251 -15.979   0.757  1.00  0.00     0.320 C 
HETATM    3  N   UNL     1      41.174 -16.048  -0.098  1.00  0.00    -0.307 N 
HETATM    4  O   UNL     1      42.465 -15.059   1.535  1.00  0.00    -0.247 OA
HETATM    5  H   UNL     1      42.844 -17.734  -0.106  1.00  0.00     0.164 HD
HETATM    6  H   UNL     1      40.825 -16.975  -0.277  1.00  0.00     0.170 HD
ENDROOT
BRANCH   1   7
HETATM    7  C   UNL     1      44.129 -17.460   1.550  1.00  0.00     0.156 C 
BRANCH   7   8
HETATM    8  C   UNL     1      43.863 -18.562   2.598  1.00  0.00     0.146 C 
BRANCH   8   9
HETATM    9  C   UNL     1      43.156 -19.806   2.034  1.00  0.00     0.029 C 
HETATM   10  C   UNL     1      43.980 -21.086   2.100  1.00  0.00     0.007 C 
ENDBRANCH   8   9
BRANCH   8  11
HETATM   11  O   UNL     1      43.034 -17.965   3.611  1.00  0.00    -0.343 OA
BRANCH  11  12
HETATM   12  C   UNL     1      43.420 -17.992   4.925  1.00  0.00     0.091 A 
HETATM   13  C   UNL     1      42.447 -17.626   5.870  1.00  0.00     0.067 A 
HETATM   14 CL   UNL     1      40.844 -17.184   5.385  1.00  0.00    -0.081 Cl
HETATM   15  C   UNL     1      42.743 -17.606   7.236  1.00  0.00     0.026 A 
HETATM   16  C   UNL     1      44.017 -17.951   7.678  1.00  0.00     0.002 A 
HETATM   17  C   UNL     1      44.989 -18.326   6.752  1.00  0.00     0.003 A 
HETATM   18  C   UNL     1      44.690 -18.354   5.386  1.00  0.00     0.038 A 
ENDBRANCH  11  12
ENDBRANCH   8  11
ENDBRANCH   7   8
ENDBRANCH   1   7
BRANCH   3  19
HETATM   19  C   UNL     1      40.323 -14.961  -0.407  1.00  0.00     0.059 A 
HETATM   20  C   UNL     1      40.326 -14.402  -1.696  1.00  0.00    -0.032 A 
HETATM   21  C   UNL     1      41.128 -14.980  -2.826  1.00  0.00     0.050 C 
HETATM   22  C   UNL     1      39.511 -13.288  -1.942  1.00  0.00     0.028 A 
HETATM   23  C   UNL     1      38.738 -12.771  -0.913  1.00  0.00     0.117 A 
HETATM   24  N   UNL     1      38.715 -13.281   0.331  1.00  0.00    -0.271 NA
HETATM   25  C   UNL     1      39.500 -14.365   0.554  1.00  0.00     0.146 A 
ENDBRANCH   3  19
TORSDOF 6
ENDMDL
MODEL 10
REMARK VINA RESULT:      -6.9      2.621      3.559
REMARK  6 active torsions:
REMARK  status: ('A' for Active; 'I' for Inactive)
REMARK    1  A    between atoms: C_2  and  C_3 
REMARK    2  A    between atoms: C_3  and  O_4 
REMARK    3  A    between atoms: C_3  and  C_12 
REMARK    4  A    between atoms: O_4  and  C_5 
REMARK    5  A    between atoms: C_12  and  N_13 
REMARK       I    between atoms: N_13  and  C_14 
REMARK       I    between atoms: C_14  and  N_15 
REMARK    6  A    between atoms: N_15  and  C_16 
ROOT
HETATM    1  N   UNL     1      42.181 -16.985   0.298  1.00  0.00    -0.340 N 
HETATM    2  C   UNL     1      41.393 -15.918  -0.059  1.00  0.00     0.320 C 
HETATM    3  N   UNL     1      41.710 -15.459  -1.317  1.00  0.00    -0.307 N 
HETATM    4  O   UNL     1      40.520 -15.445   0.655  1.00  0.00    -0.247 OA
HETATM    5  H   UNL     1      42.932 -17.236  -0.327  1.00  0.00     0.164 HD
HETATM    6  H   UNL     1      42.018 -16.162  -1.968  1.00  0.00     0.170 HD
ENDROOT
BRANCH   1   7
HETATM    7  C   UNL     1      41.948 -17.872   1.432  1.00  0.00     0.156 C 
BRANCH   7   8
HETATM    8  C   UNL     1      42.971 -17.901   2.587  1.00  0.00     0.146 C 
BRANCH   8   9
HETATM    9  C   UNL     1      43.828 -16.628   2.698  1.00  0.00     0.029 C 
HETATM   10  C   UNL     1      43.243 -15.550   3.602  1.00  0.00     0.007 C 
ENDBRANCH   8   9
BRANCH   8  11
HETATM   11  O   UNL     1      43.829 -19.029   2.339  1.00  0.00    -0.343 OA
BRANCH  11  12
HETATM   12  C   UNL     1      44.135 -19.900   3.350  1.00  0.00     0.091 A 
HETATM   13  C   UNL     1      44.338 -21.241   2.979  1.00  0.00     0.067 A 
HETATM   14 CL   UNL     1      44.223 -21.745   1.326  1.00  0.00    -0.081 Cl
HETATM   15  C   UNL     1      44.640 -22.213   3.937  1.00  0.00     0.026 A 
HETATM   16  C   UNL     1      44.742 -21.861   5.280  1.00  0.00     0.002 A 
HETATM   17  C   UNL     1      44.554 -20.534   5.659  1.00  0.00     0.003 A 
HETATM   18  C   UNL     1      44.260 -19.558   4.700  1.00  0.00     0.038 A 
ENDBRANCH  11  12
ENDBRANCH   8  11
ENDBRANCH   7   8
ENDBRANCH   1   7
BRANCH   3  19
HETATM   19  C   UNL     1      41.283 -14.220  -1.852  1.00  0.00     0.059 A 
HETATM   20  C   UNL     1      40.410 -14.186  -2.951  1.00  0.00    -0.032 A 
HETATM   21  C   UNL     1      39.801 -15.425  -3.541  1.00  0.00     0.050 C 
HETATM   22  C   UNL     1      40.059 -12.938  -3.486  1.00  0.00     0.028 A 
HETATM   23  C   UNL     1      40.587 -11.785  -2.924  1.00  0.00     0.117 A 
HETATM   24  N   UNL     1      41.427 -11.785  -1.874  1.00  0.00    -0.271 NA
HETATM   25  C   UNL     1      41.750 -12.998  -1.359  1.00  0.00     0.146 A 
ENDBRANCH   3  19
TORSDOF 6
ENDMDL
