MODEL 1
REMARK VINA RESULT:      -8.8      0.000      0.000
REMARK  9 active torsions:
REMARK  status: ('A' for Active; 'I' for Inactive)
REMARK    1  A    between atoms: C_2  and  O_3 
REMARK    2  A    between atoms: O_3  and  C_4 
REMARK    3  A    between atoms: C_4  and  C_5 
REMARK    4  A    between atoms: C_10  and  C_11 
REMARK       I    between atoms: C_11  and  N_12 
REMARK    5  A    between atoms: N_12  and  C_13 
REMARK    6  A    between atoms: C_15  and  C_16 
REMARK    7  A    between atoms: C_16  and  C_17 
REMARK    8  A    between atoms: C_17  and  C_18 
REMARK    9  A    between atoms: C_18  and  C_19 
ROOT
HETATM    1  C   UNL     1      44.353 -13.502   7.460  1.00  0.00     0.725 A 
HETATM    2  N   UNL     1      45.237 -13.267   8.396  1.00  0.00    -0.046 NA
HETATM    3  C   UNL     1      44.805 -12.110   8.983  1.00  0.00     0.165 A 
HETATM    4  N   UNL     1      43.670 -11.617   8.475  1.00  0.00    -0.144 NA
HETATM    5  N   UNL     1      43.406 -12.515   7.510  1.00  0.00    -0.106 N 
HETATM    6  H   UNL     1      42.581 -12.393   6.939  1.00  0.00     0.208 HD
ENDROOT
BRANCH   1   7
HETATM    7  N   UNL     1      44.298 -14.537   6.559  1.00  0.00    -0.152 N 
HETATM    8  C   UNL     1      43.780 -15.767   6.907  1.00  0.00     0.272 C 
HETATM    9  O   UNL     1      43.437 -16.114   8.031  1.00  0.00    -0.267 OA
HETATM   10  H   UNL     1      44.671 -14.417   5.632  1.00  0.00     0.187 HD
BRANCH   8  11
HETATM   11  C   UNL     1      43.687 -16.717   5.779  1.00  0.00     0.063 A 
HETATM   12  C   UNL     1      42.741 -16.742   4.756  1.00  0.00     0.022 A 
HETATM   13  N   UNL     1      42.999 -17.847   3.984  1.00  0.00    -0.354 N 
HETATM   14  C   UNL     1      41.565 -15.885   4.447  1.00  0.00     0.069 C 
HETATM   15  C   UNL     1      44.018 -18.601   4.518  1.00  0.00     0.115 A 
HETATM   16  H   UNL     1      42.455 -18.148   3.184  1.00  0.00     0.166 HD
HETATM   17  C   UNL     1      44.533 -17.875   5.587  1.00  0.00    -0.011 A 
HETATM   18  C   UNL     1      45.707 -18.237   6.438  1.00  0.00     0.052 C 
BRANCH  15  19
HETATM   19  C   UNL     1      44.336 -19.898   3.958  1.00  0.00     0.310 C 
HETATM   20  O   UNL     1      44.600 -20.884   4.634  1.00  0.00    -0.258 OA
BRANCH  19  21
HETATM   21  O   UNL     1      44.373 -19.846   2.600  1.00  0.00    -0.317 OA
BRANCH  21  22
HETATM   22  C   UNL     1      43.459 -20.710   1.911  1.00  0.00     0.175 C 
HETATM   23  C   UNL     1      44.163 -21.969   1.444  1.00  0.00     0.034 C 
ENDBRANCH  21  22
ENDBRANCH  19  21
ENDBRANCH  15  19
ENDBRANCH   8  11
ENDBRANCH   1   7
BRANCH   3  24
HETATM   24  C   UNL     1      45.568 -11.467  10.081  1.00  0.00     0.083 C 
BRANCH  24  25
HETATM   25  C   UNL     1      44.674 -10.566  10.932  1.00  0.00     0.012 C 
BRANCH  25  26
HETATM   26  C   UNL     1      43.749 -11.386  11.832  1.00  0.00     0.041 C 
BRANCH  26  27
HETATM   27  C   UNL     1      42.461 -10.674  12.103  1.00  0.00    -0.030 A 
HETATM   28  C   UNL     1      42.143  -9.871  13.245  1.00  0.00    -0.002 A 
HETATM   29  C   UNL     1      40.832  -9.420  13.087  1.00  0.00     0.042 A 
HETATM   30  C   UNL     1      42.848  -9.488  14.404  1.00  0.00     0.014 A 
HETATM   31  C   UNL     1      40.191  -8.605  14.029  1.00  0.00     0.030 A 
HETATM   32  N   UNL     1      40.370  -9.929  11.896  1.00  0.00    -0.365 N 
HETATM   33  C   UNL     1      40.915  -8.237  15.166  1.00  0.00     0.002 A 
HETATM   34  C   UNL     1      42.225  -8.671  15.354  1.00  0.00     0.001 A 
HETATM   35  H   UNL     1      39.443  -9.770  11.525  1.00  0.00     0.165 HD
HETATM   36  C   UNL     1      41.341 -10.681  11.294  1.00  0.00     0.096 A 
ENDBRANCH  26  27
ENDBRANCH  25  26
ENDBRANCH  24  25
ENDBRANCH   3  24
TORSDOF 9
ENDMDL
MODEL 2
REMARK VINA RESULT:      -8.8      5.882      9.863
REMARK  9 active torsions:
REMARK  status: ('A' for Active; 'I' for Inactive)
REMARK    1  A    between atoms: C_2  and  O_3 
REMARK    2  A    between atoms: O_3  and  C_4 
REMARK    3  A    between atoms: C_4  and  C_5 
REMARK    4  A    between atoms: C_10  and  C_11 
REMARK       I    between atoms: C_11  and  N_12 
REMARK    5  A    between atoms: N_12  and  C_13 
REMARK    6  A    between atoms: C_15  and  C_16 
REMARK    7  A    between atoms: C_16  and  C_17 
REMARK    8  A    between atoms: C_17  and  C_18 
REMARK    9  A    between atoms: C_18  and  C_19 
ROOT
HETATM    1  C   UNL     1      42.600 -14.854   5.621  1.00  0.00     0.725 A 
HETATM    2  N   UNL     1      42.366 -15.982   6.243  1.00  0.00    -0.046 NA
HETATM    3  C   UNL     1      43.375 -16.074   7.162  1.00  0.00     0.165 A 
HETATM    4  N   UNL     1      44.224 -15.039   7.165  1.00  0.00    -0.144 NA
HETATM    5  N   UNL     1      43.712 -14.282   6.179  1.00  0.00    -0.106 N 
HETATM    6  H   UNL     1      44.164 -13.408   5.946  1.00  0.00     0.208 HD
ENDROOT
BRANCH   1   7
HETATM    7  N   UNL     1      41.898 -14.266   4.598  1.00  0.00    -0.152 N 
HETATM    8  C   UNL     1      42.531 -13.811   3.460  1.00  0.00     0.272 C 
HETATM    9  O   UNL     1      43.741 -13.763   3.278  1.00  0.00    -0.267 OA
HETATM   10  H   UNL     1      40.905 -14.129   4.684  1.00  0.00     0.187 HD
BRANCH   8  11
HETATM   11  C   UNL     1      41.605 -13.323   2.417  1.00  0.00     0.063 A 
HETATM   12  C   UNL     1      40.928 -12.107   2.374  1.00  0.00     0.022 A 
HETATM   13  N   UNL     1      40.120 -12.124   1.265  1.00  0.00    -0.354 N 
HETATM   14  C   UNL     1      40.891 -10.938   3.295  1.00  0.00     0.069 C 
HETATM   15  C   UNL     1      40.169 -13.344   0.632  1.00  0.00     0.115 A 
HETATM   16  H   UNL     1      39.480 -11.388   0.989  1.00  0.00     0.166 HD
HETATM   17  C   UNL     1      41.158 -14.084   1.271  1.00  0.00    -0.011 A 
HETATM   18  C   UNL     1      41.643 -15.448   0.897  1.00  0.00     0.052 C 
BRANCH  15  19
HETATM   19  C   UNL     1      39.263 -13.636  -0.459  1.00  0.00     0.310 C 
HETATM   20  O   UNL     1      38.108 -14.012  -0.302  1.00  0.00    -0.258 OA
BRANCH  19  21
HETATM   21  O   UNL     1      39.888 -13.507  -1.659  1.00  0.00    -0.317 OA
BRANCH  21  22
HETATM   22  C   UNL     1      40.226 -14.728  -2.329  1.00  0.00     0.175 C 
HETATM   23  C   UNL     1      41.403 -14.519  -3.261  1.00  0.00     0.034 C 
ENDBRANCH  21  22
ENDBRANCH  19  21
ENDBRANCH  15  19
ENDBRANCH   8  11
ENDBRANCH   1   7
BRANCH   3  24
HETATM   24  C   UNL     1      43.504 -17.252   8.055  1.00  0.00     0.083 C 
BRANCH  24  25
HETATM   25  C   UNL     1      43.623 -18.551   7.258  1.00  0.00     0.012 C 
BRANCH  25  26
HETATM   26  C   UNL     1      44.828 -18.520   6.318  1.00  0.00     0.041 C 
BRANCH  26  27
HETATM   27  C   UNL     1      44.442 -18.829   4.906  1.00  0.00    -0.030 A 
HETATM   28  C   UNL     1      44.474 -20.108   4.264  1.00  0.00    -0.002 A 
HETATM   29  C   UNL     1      44.046 -19.927   2.948  1.00  0.00     0.042 A 
HETATM   30  C   UNL     1      44.832 -21.408   4.678  1.00  0.00     0.014 A 
HETATM   31  C   UNL     1      43.956 -20.978   2.026  1.00  0.00     0.030 A 
HETATM   32  N   UNL     1      43.764 -18.589   2.795  1.00  0.00    -0.365 N 
HETATM   33  C   UNL     1      44.314 -22.255   2.465  1.00  0.00     0.002 A 
HETATM   34  C   UNL     1      44.746 -22.471   3.771  1.00  0.00     0.001 A 
HETATM   35  H   UNL     1      43.439 -18.166   1.938  1.00  0.00     0.165 HD
HETATM   36  C   UNL     1      43.996 -17.920   3.966  1.00  0.00     0.096 A 
ENDBRANCH  26  27
ENDBRANCH  25  26
ENDBRANCH  24  25
ENDBRANCH   3  24
TORSDOF 9
ENDMDL
MODEL 3
REMARK VINA RESULT:      -8.8      3.357     11.264
REMARK  9 active torsions:
REMARK  status: ('A' for Active; 'I' for Inactive)
REMARK    1  A    between atoms: C_2  and  O_3 
REMARK    2  A    between atoms: O_3  and  C_4 
REMARK    3  A    between atoms: C_4  and  C_5 
REMARK    4  A    between atoms: C_10  and  C_11 
REMARK       I    between atoms: C_11  and  N_12 
REMARK    5  A    between atoms: N_12  and  C_13 
REMARK    6  A    between atoms: C_15  and  C_16 
REMARK    7  A    between atoms: C_16  and  C_17 
REMARK    8  A    between atoms: C_17  and  C_18 
REMARK    9  A    between atoms: C_18  and  C_19 
ROOT
HETATM    1  C   UNL     1      42.782 -12.691   6.268  1.00  0.00     0.725 A 
HETATM    2  N   UNL     1      43.544 -13.520   5.601  1.00  0.00    -0.046 NA
HETATM    3  C   UNL     1      42.994 -13.551   4.350  1.00  0.00     0.165 A 
HETATM    4  N   UNL     1      41.930 -12.756   4.188  1.00  0.00    -0.144 NA
HETATM    5  N   UNL     1      41.814 -12.225   5.418  1.00  0.00    -0.106 N 
HETATM    6  H   UNL     1      41.069 -11.566   5.600  1.00  0.00     0.208 HD
ENDROOT
BRANCH   1   7
HETATM    7  N   UNL     1      42.873 -12.290   7.577  1.00  0.00    -0.152 N 
HETATM    8  C   UNL     1      42.499 -11.021   7.969  1.00  0.00     0.272 C 
HETATM    9  O   UNL     1      42.174 -10.103   7.226  1.00  0.00    -0.267 OA
HETATM   10  H   UNL     1      43.252 -12.915   8.269  1.00  0.00     0.187 HD
BRANCH   8  11
HETATM   11  C   UNL     1      42.549 -10.808   9.430  1.00  0.00     0.063 A 
HETATM   12  C   UNL     1      43.676 -10.688  10.241  1.00  0.00     0.022 A 
HETATM   13  N   UNL     1      43.241 -10.586  11.539  1.00  0.00    -0.354 N 
HETATM   14  C   UNL     1      45.135 -10.725   9.953  1.00  0.00     0.069 C 
HETATM   15  C   UNL     1      41.876 -10.733  11.619  1.00  0.00     0.115 A 
HETATM   16  H   UNL     1      43.835 -10.520  12.357  1.00  0.00     0.166 HD
HETATM   17  C   UNL     1      41.402 -10.780  10.312  1.00  0.00    -0.011 A 
HETATM   18  C   UNL     1      39.975 -10.852   9.874  1.00  0.00     0.052 C 
BRANCH  15  19
HETATM   19  C   UNL     1      41.228 -10.832  12.910  1.00  0.00     0.310 C 
HETATM   20  O   UNL     1      40.482 -11.750  13.228  1.00  0.00    -0.258 OA
BRANCH  19  21
HETATM   21  O   UNL     1      41.503  -9.744  13.678  1.00  0.00    -0.317 OA
BRANCH  21  22
HETATM   22  C   UNL     1      42.226  -9.994  14.890  1.00  0.00     0.175 C 
HETATM   23  C   UNL     1      41.415  -9.560  16.095  1.00  0.00     0.034 C 
ENDBRANCH  21  22
ENDBRANCH  19  21
ENDBRANCH  15  19
ENDBRANCH   8  11
ENDBRANCH   1   7
BRANCH   3  24
HETATM   24  C   UNL     1      43.544 -14.424   3.283  1.00  0.00     0.083 C 
BRANCH  24  25
HETATM   25  C   UNL     1      42.503 -15.427   2.787  1.00  0.00     0.012 C 
BRANCH  25  26
HETATM   26  C   UNL     1      42.013 -16.329   3.920  1.00  0.00     0.041 C 
BRANCH  26  27
HETATM   27  C   UNL     1      43.028 -17.366   4.286  1.00  0.00    -0.030 A 
HETATM   28  C   UNL     1      43.366 -18.542   3.543  1.00  0.00    -0.002 A 
HETATM   29  C   UNL     1      44.347 -19.225   4.263  1.00  0.00     0.042 A 
HETATM   30  C   UNL     1      42.924 -19.095   2.323  1.00  0.00     0.014 A 
HETATM   31  C   UNL     1      44.911 -20.430   3.824  1.00  0.00     0.030 A 
HETATM   32  N   UNL     1      44.597 -18.492   5.400  1.00  0.00    -0.365 N 
HETATM   33  C   UNL     1      44.457 -20.953   2.611  1.00  0.00     0.002 A 
HETATM   34  C   UNL     1      43.478 -20.298   1.868  1.00  0.00     0.001 A 
HETATM   35  H   UNL     1      45.263 -18.752   6.114  1.00  0.00     0.165 HD
HETATM   36  C   UNL     1      43.813 -17.372   5.423  1.00  0.00     0.096 A 
ENDBRANCH  26  27
ENDBRANCH  25  26
ENDBRANCH  24  25
ENDBRANCH   3  24
TORSDOF 9
ENDMDL
MODEL 4
REMARK VINA RESULT:      -8.7      6.272      9.858
REMARK  9 active torsions:
REMARK  status: ('A' for Active; 'I' for Inactive)
REMARK    1  A    between atoms: C_2  and  O_3 
REMARK    2  A    between atoms: O_3  and  C_4 
REMARK    3  A    between atoms: C_4  and  C_5 
REMARK    4  A    between atoms: C_10  and  C_11 
REMARK       I    between atoms: C_11  and  N_12 
REMARK    5  A    between atoms: N_12  and  C_13 
REMARK    6  A    between atoms: C_15  and  C_16 
REMARK    7  A    between atoms: C_16  and  C_17 
REMARK    8  A    between atoms: C_17  and  C_18 
REMARK    9  A    between atoms: C_18  and  C_19 
ROOT
HETATM    1  C   UNL     1      41.050 -14.874   3.928  1.00  0.00     0.725 A 
HETATM    2  N   UNL     1      41.202 -16.073   4.431  1.00  0.00    -0.046 NA
HETATM    3  C   UNL     1      41.303 -15.861   5.778  1.00  0.00     0.165 A 
HETATM    4  N   UNL     1      41.195 -14.581   6.152  1.00  0.00    -0.144 NA
HETATM    5  N   UNL     1      41.038 -13.976   4.961  1.00  0.00    -0.106 N 
HETATM    6  H   UNL     1      40.931 -12.971   4.931  1.00  0.00     0.208 HD
ENDROOT
BRANCH   1   7
HETATM    7  N   UNL     1      40.902 -14.497   2.616  1.00  0.00    -0.152 N 
HETATM    8  C   UNL     1      41.938 -13.920   1.912  1.00  0.00     0.272 C 
HETATM    9  O   UNL     1      43.021 -13.577   2.373  1.00  0.00    -0.267 OA
HETATM   10  H   UNL     1      40.013 -14.607   2.158  1.00  0.00     0.187 HD
BRANCH   8  11
HETATM   11  C   UNL     1      41.637 -13.694   0.483  1.00  0.00     0.063 A 
HETATM   12  C   UNL     1      41.507 -12.478  -0.183  1.00  0.00     0.022 A 
HETATM   13  N   UNL     1      41.142 -12.754  -1.477  1.00  0.00    -0.354 N 
HETATM   14  C   UNL     1      41.616 -11.063   0.267  1.00  0.00     0.069 C 
HETATM   15  C   UNL     1      40.935 -14.101  -1.659  1.00  0.00     0.115 A 
HETATM   16  H   UNL     1      40.941 -12.066  -2.193  1.00  0.00     0.166 HD
HETATM   17  C   UNL     1      41.326 -14.727  -0.481  1.00  0.00    -0.011 A 
HETATM   18  C   UNL     1      41.365 -16.197  -0.213  1.00  0.00     0.052 C 
BRANCH  15  19
HETATM   19  C   UNL     1      40.378 -14.591  -2.903  1.00  0.00     0.310 C 
HETATM   20  O   UNL     1      41.057 -14.963  -3.852  1.00  0.00    -0.258 OA
BRANCH  19  21
HETATM   21  O   UNL     1      39.021 -14.512  -2.894  1.00  0.00    -0.317 OA
BRANCH  21  22
HETATM   22  C   UNL     1      38.333 -15.355  -3.826  1.00  0.00     0.175 C 
HETATM   23  C   UNL     1      36.984 -14.766  -4.186  1.00  0.00     0.034 C 
ENDBRANCH  21  22
ENDBRANCH  19  21
ENDBRANCH  15  19
ENDBRANCH   8  11
ENDBRANCH   1   7
BRANCH   3  24
HETATM   24  C   UNL     1      41.535 -16.982   6.723  1.00  0.00     0.083 C 
BRANCH  24  25
HETATM   25  C   UNL     1      42.899 -16.869   7.402  1.00  0.00     0.012 C 
BRANCH  25  26
HETATM   26  C   UNL     1      44.034 -16.853   6.377  1.00  0.00     0.041 C 
BRANCH  26  27
HETATM   27  C   UNL     1      44.185 -18.175   5.692  1.00  0.00    -0.030 A 
HETATM   28  C   UNL     1      44.049 -18.441   4.292  1.00  0.00    -0.002 A 
HETATM   29  C   UNL     1      44.257 -19.808   4.104  1.00  0.00     0.042 A 
HETATM   30  C   UNL     1      43.762 -17.646   3.163  1.00  0.00     0.014 A 
HETATM   31  C   UNL     1      44.196 -20.419   2.845  1.00  0.00     0.030 A 
HETATM   32  N   UNL     1      44.511 -20.352   5.341  1.00  0.00    -0.365 N 
HETATM   33  C   UNL     1      43.913 -19.607   1.744  1.00  0.00     0.002 A 
HETATM   34  C   UNL     1      43.699 -18.239   1.897  1.00  0.00     0.001 A 
HETATM   35  H   UNL     1      44.693 -21.331   5.510  1.00  0.00     0.165 HD
HETATM   36  C   UNL     1      44.473 -19.380   6.303  1.00  0.00     0.096 A 
ENDBRANCH  26  27
ENDBRANCH  25  26
ENDBRANCH  24  25
ENDBRANCH   3  24
TORSDOF 9
ENDMDL
MODEL 5
REMARK VINA RESULT:      -8.7      6.333     10.540
REMARK  9 active torsions:
REMARK  status: ('A' for Active; 'I' for Inactive)
REMARK    1  A    between atoms: C_2  and  O_3 
REMARK    2  A    between atoms: O_3  and  C_4 
REMARK    3  A    between atoms: C_4  and  C_5 
REMARK    4  A    between atoms: C_10  and  C_11 
REMARK       I    between atoms: C_11  and  N_12 
REMARK    5  A    between atoms: N_12  and  C_13 
REMARK    6  A    between atoms: C_15  and  C_16 
REMARK    7  A    between atoms: C_16  and  C_17 
REMARK    8  A    between atoms: C_17  and  C_18 
REMARK    9  A    between atoms: C_18  and  C_19 
ROOT
HETATM    1  C   UNL     1      40.897 -14.515   3.776  1.00  0.00     0.725 A 
HETATM    2  N   UNL     1      41.997 -15.067   4.223  1.00  0.00    -0.046 NA
HETATM    3  C   UNL     1      41.747 -15.292   5.548  1.00  0.00     0.165 A 
HETATM    4  N   UNL     1      40.524 -14.930   5.954  1.00  0.00    -0.144 NA
HETATM    5  N   UNL     1      40.007 -14.438   4.815  1.00  0.00    -0.106 N 
HETATM    6  H   UNL     1      39.063 -14.076   4.820  1.00  0.00     0.208 HD
ENDROOT
BRANCH   1   7
HETATM    7  N   UNL     1      40.597 -14.079   2.510  1.00  0.00    -0.152 N 
HETATM    8  C   UNL     1      39.601 -14.671   1.762  1.00  0.00     0.272 C 
HETATM    9  O   UNL     1      38.976 -15.681   2.064  1.00  0.00    -0.267 OA
HETATM   10  H   UNL     1      41.132 -13.335   2.095  1.00  0.00     0.187 HD
BRANCH   8  11
HETATM   11  C   UNL     1      39.335 -13.994   0.477  1.00  0.00     0.063 A 
HETATM   12  C   UNL     1      38.389 -13.007   0.208  1.00  0.00     0.022 A 
HETATM   13  N   UNL     1      38.446 -12.737  -1.137  1.00  0.00    -0.354 N 
HETATM   14  C   UNL     1      37.375 -12.323   1.055  1.00  0.00     0.069 C 
HETATM   15  C   UNL     1      39.326 -13.578  -1.777  1.00  0.00     0.115 A 
HETATM   16  H   UNL     1      37.851 -12.085  -1.633  1.00  0.00     0.166 HD
HETATM   17  C   UNL     1      39.967 -14.313  -0.785  1.00  0.00    -0.011 A 
HETATM   18  C   UNL     1      41.070 -15.304  -0.971  1.00  0.00     0.052 C 
BRANCH  15  19
HETATM   19  C   UNL     1      39.411 -13.581  -3.222  1.00  0.00     0.310 C 
HETATM   20  O   UNL     1      40.409 -13.239  -3.845  1.00  0.00    -0.258 OA
BRANCH  19  21
HETATM   21  O   UNL     1      38.224 -13.940  -3.779  1.00  0.00    -0.317 OA
BRANCH  21  22
HETATM   22  C   UNL     1      37.874 -15.326  -3.678  1.00  0.00     0.175 C 
HETATM   23  C   UNL     1      38.902 -16.191  -4.381  1.00  0.00     0.034 C 
ENDBRANCH  21  22
ENDBRANCH  19  21
ENDBRANCH  15  19
ENDBRANCH   8  11
ENDBRANCH   1   7
BRANCH   3  24
HETATM   24  C   UNL     1      42.777 -15.875   6.443  1.00  0.00     0.083 C 
BRANCH  24  25
HETATM   25  C   UNL     1      42.866 -17.392   6.282  1.00  0.00     0.012 C 
BRANCH  25  26
HETATM   26  C   UNL     1      44.253 -17.822   5.803  1.00  0.00     0.041 C 
BRANCH  26  27
HETATM   27  C   UNL     1      44.186 -18.593   4.522  1.00  0.00    -0.030 A 
HETATM   28  C   UNL     1      44.380 -20.002   4.353  1.00  0.00    -0.002 A 
HETATM   29  C   UNL     1      44.242 -20.282   2.993  1.00  0.00     0.042 A 
HETATM   30  C   UNL     1      44.666 -21.067   5.230  1.00  0.00     0.014 A 
HETATM   31  C   UNL     1      44.373 -21.573   2.467  1.00  0.00     0.030 A 
HETATM   32  N   UNL     1      43.973 -19.091   2.359  1.00  0.00    -0.365 N 
HETATM   33  C   UNL     1      44.654 -22.611   3.359  1.00  0.00     0.002 A 
HETATM   34  C   UNL     1      44.799 -22.365   4.723  1.00  0.00     0.001 A 
HETATM   35  H   UNL     1      43.831 -18.990   1.364  1.00  0.00     0.165 HD
HETATM   36  C   UNL     1      43.934 -18.070   3.269  1.00  0.00     0.096 A 
ENDBRANCH  26  27
ENDBRANCH  25  26
ENDBRANCH  24  25
ENDBRANCH   3  24
TORSDOF 9
ENDMDL
MODEL 6
REMARK VINA RESULT:      -8.7      2.374      3.760
REMARK  9 active torsions:
REMARK  status: ('A' for Active; 'I' for Inactive)
REMARK    1  A    between atoms: C_2  and  O_3 
REMARK    2  A    between atoms: O_3  and  C_4 
REMARK    3  A    between atoms: C_4  and  C_5 
REMARK    4  A    between atoms: C_10  and  C_11 
REMARK       I    between atoms: C_11  and  N_12 
REMARK    5  A    between atoms: N_12  and  C_13 
REMARK    6  A    between atoms: C_15  and  C_16 
REMARK    7  A    between atoms: C_16  and  C_17 
REMARK    8  A    between atoms: C_17  and  C_18 
REMARK    9  A    between atoms: C_18  and  C_19 
ROOT
HETATM    1  C   UNL     1      40.708 -13.731   5.690  1.00  0.00     0.725 A 
HETATM    2  N   UNL     1      41.111 -12.627   6.267  1.00  0.00    -0.046 NA
HETATM    3  C   UNL     1      39.954 -11.964   6.570  1.00  0.00     0.165 A 
HETATM    4  N   UNL     1      38.834 -12.614   6.231  1.00  0.00    -0.144 NA
HETATM    5  N   UNL     1      39.339 -13.728   5.674  1.00  0.00    -0.106 N 
HETATM    6  H   UNL     1      38.704 -14.427   5.313  1.00  0.00     0.208 HD
ENDROOT
BRANCH   1   7
HETATM    7  N   UNL     1      41.453 -14.766   5.180  1.00  0.00    -0.152 N 
HETATM    8  C   UNL     1      41.196 -16.076   5.527  1.00  0.00     0.272 C 
HETATM    9  O   UNL     1      40.400 -16.454   6.378  1.00  0.00    -0.267 OA
HETATM   10  H   UNL     1      42.227 -14.573   4.567  1.00  0.00     0.187 HD
BRANCH   8  11
HETATM   11  C   UNL     1      42.014 -17.060   4.789  1.00  0.00     0.063 A 
HETATM   12  C   UNL     1      41.873 -17.471   3.465  1.00  0.00     0.022 A 
HETATM   13  N   UNL     1      42.798 -18.459   3.239  1.00  0.00    -0.354 N 
HETATM   14  C   UNL     1      40.917 -17.095   2.388  1.00  0.00     0.069 C 
HETATM   15  C   UNL     1      43.476 -18.779   4.392  1.00  0.00     0.115 A 
HETATM   16  H   UNL     1      42.912 -18.975   2.375  1.00  0.00     0.166 HD
HETATM   17  C   UNL     1      43.077 -17.861   5.357  1.00  0.00    -0.011 A 
HETATM   18  C   UNL     1      43.593 -17.743   6.755  1.00  0.00     0.052 C 
BRANCH  15  19
HETATM   19  C   UNL     1      44.376 -19.914   4.418  1.00  0.00     0.310 C 
HETATM   20  O   UNL     1      44.846 -20.386   5.446  1.00  0.00    -0.258 OA
BRANCH  19  21
HETATM   21  O   UNL     1      44.676 -20.325   3.158  1.00  0.00    -0.317 OA
BRANCH  21  22
HETATM   22  C   UNL     1      44.468 -21.717   2.882  1.00  0.00     0.175 C 
HETATM   23  C   UNL     1      44.064 -21.920   1.435  1.00  0.00     0.034 C 
ENDBRANCH  21  22
ENDBRANCH  19  21
ENDBRANCH  15  19
ENDBRANCH   8  11
ENDBRANCH   1   7
BRANCH   3  24
HETATM   24  C   UNL     1      39.974 -10.623   7.204  1.00  0.00     0.083 C 
BRANCH  24  25
HETATM   25  C   UNL     1      39.418 -10.667   8.627  1.00  0.00     0.012 C 
BRANCH  25  26
HETATM   26  C   UNL     1      40.204  -9.749   9.562  1.00  0.00     0.041 C 
BRANCH  26  27
HETATM   27  C   UNL     1      41.022 -10.524  10.547  1.00  0.00    -0.030 A 
HETATM   28  C   UNL     1      42.401 -10.892  10.422  1.00  0.00    -0.002 A 
HETATM   29  C   UNL     1      42.744 -11.619  11.562  1.00  0.00     0.042 A 
HETATM   30  C   UNL     1      43.390 -10.678   9.441  1.00  0.00     0.014 A 
HETATM   31  C   UNL     1      44.027 -12.141  11.772  1.00  0.00     0.030 A 
HETATM   32  N   UNL     1      41.619 -11.690  12.350  1.00  0.00    -0.365 N 
HETATM   33  C   UNL     1      44.989 -11.911  10.785  1.00  0.00     0.002 A 
HETATM   34  C   UNL     1      44.678 -11.190   9.634  1.00  0.00     0.001 A 
HETATM   35  H   UNL     1      41.572 -12.166  13.241  1.00  0.00     0.165 HD
HETATM   36  C   UNL     1      40.579 -11.034  11.752  1.00  0.00     0.096 A 
ENDBRANCH  26  27
ENDBRANCH  25  26
ENDBRANCH  24  25
ENDBRANCH   3  24
TORSDOF 9
ENDMDL
MODEL 7
REMARK VINA RESULT:      -8.7      2.371      3.698
REMARK  9 active torsions:
REMARK  status: ('A' for Active; 'I' for Inactive)
REMARK    1  A    between atoms: C_2  and  O_3 
REMARK    2  A    between atoms: O_3  and  C_4 
REMARK    3  A    between atoms: C_4  and  C_5 
REMARK    4  A    between atoms: C_10  and  C_11 
REMARK       I    between atoms: C_11  and  N_12 
REMARK    5  A    between atoms: N_12  and  C_13 
REMARK    6  A    between atoms: C_15  and  C_16 
REMARK    7  A    between atoms: C_16  and  C_17 
REMARK    8  A    between atoms: C_17  and  C_18 
REMARK    9  A    between atoms: C_18  and  C_19 
ROOT
HETATM    1  C   UNL     1      45.390 -13.244   7.724  1.00  0.00     0.725 A 
HETATM    2  N   UNL     1      44.921 -12.770   8.851  1.00  0.00    -0.046 NA
HETATM    3  C   UNL     1      45.767 -11.741   9.161  1.00  0.00     0.165 A 
HETATM    4  N   UNL     1      46.737 -11.528   8.265  1.00  0.00    -0.144 NA
HETATM    5  N   UNL     1      46.478 -12.494   7.366  1.00  0.00    -0.106 N 
HETATM    6  H   UNL     1      47.072 -12.579   6.552  1.00  0.00     0.208 HD
ENDROOT
BRANCH   1   7
HETATM    7  N   UNL     1      44.926 -14.288   6.962  1.00  0.00    -0.152 N 
HETATM    8  C   UNL     1      43.721 -14.213   6.296  1.00  0.00     0.272 C 
HETATM    9  O   UNL     1      42.899 -13.309   6.391  1.00  0.00    -0.267 OA
HETATM   10  H   UNL     1      45.453 -15.143   6.909  1.00  0.00     0.187 HD
BRANCH   8  11
HETATM   11  C   UNL     1      43.444 -15.377   5.429  1.00  0.00     0.063 A 
HETATM   12  C   UNL     1      43.292 -16.709   5.807  1.00  0.00     0.022 A 
HETATM   13  N   UNL     1      43.132 -17.446   4.660  1.00  0.00    -0.354 N 
HETATM   14  C   UNL     1      43.345 -17.398   7.125  1.00  0.00     0.069 C 
HETATM   15  C   UNL     1      43.272 -16.661   3.540  1.00  0.00     0.115 A 
HETATM   16  H   UNL     1      43.032 -18.454   4.615  1.00  0.00     0.166 HD
HETATM   17  C   UNL     1      43.374 -15.347   3.984  1.00  0.00    -0.011 A 
HETATM   18  C   UNL     1      43.461 -14.116   3.141  1.00  0.00     0.052 C 
BRANCH  15  19
HETATM   19  C   UNL     1      43.312 -17.267   2.225  1.00  0.00     0.310 C 
HETATM   20  O   UNL     1      44.218 -17.996   1.840  1.00  0.00    -0.258 OA
BRANCH  19  21
HETATM   21  O   UNL     1      42.259 -16.860   1.469  1.00  0.00    -0.317 OA
BRANCH  21  22
HETATM   22  C   UNL     1      40.956 -17.164   1.985  1.00  0.00     0.175 C 
HETATM   23  C   UNL     1      40.050 -15.953   1.895  1.00  0.00     0.034 C 
ENDBRANCH  21  22
ENDBRANCH  19  21
ENDBRANCH  15  19
ENDBRANCH   8  11
ENDBRANCH   1   7
BRANCH   3  24
HETATM   24  C   UNL     1      45.607 -10.957  10.411  1.00  0.00     0.083 C 
BRANCH  24  25
HETATM   25  C   UNL     1      44.495 -11.526  11.291  1.00  0.00     0.012 C 
BRANCH  25  26
HETATM   26  C   UNL     1      43.516 -10.437  11.728  1.00  0.00     0.041 C 
BRANCH  26  27
HETATM   27  C   UNL     1      42.111 -10.753  11.321  1.00  0.00    -0.030 A 
HETATM   28  C   UNL     1      41.561 -10.687  10.000  1.00  0.00    -0.002 A 
HETATM   29  C   UNL     1      40.217 -11.052  10.089  1.00  0.00     0.042 A 
HETATM   30  C   UNL     1      42.081 -10.347   8.735  1.00  0.00     0.014 A 
HETATM   31  C   UNL     1      39.367 -11.094   8.976  1.00  0.00     0.030 A 
HETATM   32  N   UNL     1      39.959 -11.328  11.411  1.00  0.00    -0.365 N 
HETATM   33  C   UNL     1      39.909 -10.755   7.734  1.00  0.00     0.002 A 
HETATM   34  C   UNL     1      41.247 -10.386   7.611  1.00  0.00     0.001 A 
HETATM   35  H   UNL     1      39.060 -11.613  11.773  1.00  0.00     0.165 HD
HETATM   36  C   UNL     1      41.090 -11.155  12.160  1.00  0.00     0.096 A 
ENDBRANCH  26  27
ENDBRANCH  25  26
ENDBRANCH  24  25
ENDBRANCH   3  24
TORSDOF 9
ENDMDL
MODEL 8
REMARK VINA RESULT:      -8.6      3.172      9.851
REMARK  9 active torsions:
REMARK  status: ('A' for Active; 'I' for Inactive)
REMARK    1  A    between atoms: C_2  and  O_3 
REMARK    2  A    between atoms: O_3  and  C_4 
REMARK    3  A    between atoms: C_4  and  C_5 
REMARK    4  A    between atoms: C_10  and  C_11 
REMARK       I    between atoms: C_11  and  N_12 
REMARK    5  A    between atoms: N_12  and  C_13 
REMARK    6  A    between atoms: C_15  and  C_16 
REMARK    7  A    between atoms: C_16  and  C_17 
REMARK    8  A    between atoms: C_17  and  C_18 
REMARK    9  A    between atoms: C_18  and  C_19 
ROOT
HETATM    1  C   UNL     1      42.618 -14.494   3.003  1.00  0.00     0.725 A 
HETATM    2  N   UNL     1      43.219 -15.566   2.552  1.00  0.00    -0.046 NA
HETATM    3  C   UNL     1      42.547 -15.868   1.400  1.00  0.00     0.165 A 
HETATM    4  N   UNL     1      41.562 -15.018   1.088  1.00  0.00    -0.144 NA
HETATM    5  N   UNL     1      41.626 -14.158   2.120  1.00  0.00    -0.106 N 
HETATM    6  H   UNL     1      40.976 -13.384   2.155  1.00  0.00     0.208 HD
ENDROOT
BRANCH   1   7
HETATM    7  N   UNL     1      42.880 -13.763   4.135  1.00  0.00    -0.152 N 
HETATM    8  C   UNL     1      42.006 -13.749   5.202  1.00  0.00     0.272 C 
HETATM    9  O   UNL     1      40.891 -14.256   5.227  1.00  0.00    -0.267 OA
HETATM   10  H   UNL     1      43.709 -13.195   4.185  1.00  0.00     0.187 HD
BRANCH   8  11
HETATM   11  C   UNL     1      42.510 -13.011   6.378  1.00  0.00     0.063 A 
HETATM   12  C   UNL     1      42.002 -11.841   6.937  1.00  0.00     0.022 A 
HETATM   13  N   UNL     1      42.839 -11.476   7.962  1.00  0.00    -0.354 N 
HETATM   14  C   UNL     1      40.848 -10.970   6.582  1.00  0.00     0.069 C 
HETATM   15  C   UNL     1      43.931 -12.309   8.033  1.00  0.00     0.115 A 
HETATM   16  H   UNL     1      42.745 -10.645   8.534  1.00  0.00     0.166 HD
HETATM   17  C   UNL     1      43.710 -13.334   7.119  1.00  0.00    -0.011 A 
HETATM   18  C   UNL     1      44.574 -14.531   6.883  1.00  0.00     0.052 C 
BRANCH  15  19
HETATM   19  C   UNL     1      45.025 -12.002   8.930  1.00  0.00     0.310 C 
HETATM   20  O   UNL     1      45.852 -12.826   9.301  1.00  0.00    -0.258 OA
BRANCH  19  21
HETATM   21  O   UNL     1      44.961 -10.712   9.352  1.00  0.00    -0.317 OA
BRANCH  21  22
HETATM   22  C   UNL     1      45.128 -10.500  10.760  1.00  0.00     0.175 C 
HETATM   23  C   UNL     1      43.819 -10.714  11.493  1.00  0.00     0.034 C 
ENDBRANCH  21  22
ENDBRANCH  19  21
ENDBRANCH  15  19
ENDBRANCH   8  11
ENDBRANCH   1   7
BRANCH   3  24
HETATM   24  C   UNL     1      42.894 -17.064   0.593  1.00  0.00     0.083 C 
BRANCH  24  25
HETATM   25  C   UNL     1      43.865 -17.980   1.337  1.00  0.00     0.012 C 
BRANCH  25  26
HETATM   26  C   UNL     1      43.129 -19.118   2.044  1.00  0.00     0.041 C 
BRANCH  26  27
HETATM   27  C   UNL     1      43.683 -19.376   3.410  1.00  0.00    -0.030 A 
HETATM   28  C   UNL     1      43.288 -18.745   4.633  1.00  0.00    -0.002 A 
HETATM   29  C   UNL     1      44.078 -19.280   5.652  1.00  0.00     0.042 A 
HETATM   30  C   UNL     1      42.335 -17.763   4.971  1.00  0.00     0.014 A 
HETATM   31  C   UNL     1      43.961 -18.884   6.991  1.00  0.00     0.030 A 
HETATM   32  N   UNL     1      44.919 -20.200   5.072  1.00  0.00    -0.365 N 
HETATM   33  C   UNL     1      43.005 -17.911   7.297  1.00  0.00     0.002 A 
HETATM   34  C   UNL     1      42.202 -17.357   6.303  1.00  0.00     0.001 A 
HETATM   35  H   UNL     1      45.610 -20.742   5.572  1.00  0.00     0.165 HD
HETATM   36  C   UNL     1      44.688 -20.269   3.725  1.00  0.00     0.096 A 
ENDBRANCH  26  27
ENDBRANCH  25  26
ENDBRANCH  24  25
ENDBRANCH   3  24
TORSDOF 9
ENDMDL
MODEL 9
REMARK VINA RESULT:      -8.6      5.907      9.994
REMARK  9 active torsions:
REMARK  status: ('A' for Active; 'I' for Inactive)
REMARK    1  A    between atoms: C_2  and  O_3 
REMARK    2  A    between atoms: O_3  and  C_4 
REMARK    3  A    between atoms: C_4  and  C_5 
REMARK    4  A    between atoms: C_10  and  C_11 
REMARK       I    between atoms: C_11  and  N_12 
REMARK    5  A    between atoms: N_12  and  C_13 
REMARK    6  A    between atoms: C_15  and  C_16 
REMARK    7  A    between atoms: C_16  and  C_17 
REMARK    8  A    between atoms: C_17  and  C_18 
REMARK    9  A    between atoms: C_18  and  C_19 
ROOT
HETATM    1  C   UNL     1      41.146 -14.648   3.821  1.00  0.00     0.725 A 
HETATM    2  N   UNL     1      42.306 -14.663   4.428  1.00  0.00    -0.046 NA
HETATM    3  C   UNL     1      42.009 -15.032   5.711  1.00  0.00     0.165 A 
HETATM    4  N   UNL     1      40.713 -15.276   5.936  1.00  0.00    -0.144 NA
HETATM    5  N   UNL     1      40.187 -15.023   4.725  1.00  0.00    -0.106 N 
HETATM    6  H   UNL     1      39.190 -15.126   4.591  1.00  0.00     0.208 HD
ENDROOT
BRANCH   1   7
HETATM    7  N   UNL     1      40.854 -14.342   2.515  1.00  0.00    -0.152 N 
HETATM    8  C   UNL     1      40.031 -15.147   1.754  1.00  0.00     0.272 C 
HETATM    9  O   UNL     1      39.582 -16.237   2.086  1.00  0.00    -0.267 OA
HETATM   10  H   UNL     1      41.270 -13.535   2.083  1.00  0.00     0.187 HD
BRANCH   8  11
HETATM   11  C   UNL     1      39.730 -14.598   0.416  1.00  0.00     0.063 A 
HETATM   12  C   UNL     1      38.741 -13.681   0.069  1.00  0.00     0.022 A 
HETATM   13  N   UNL     1      38.779 -13.529  -1.295  1.00  0.00    -0.354 N 
HETATM   14  C   UNL     1      37.701 -12.969   0.861  1.00  0.00     0.069 C 
HETATM   15  C   UNL     1      39.692 -14.385  -1.865  1.00  0.00     0.115 A 
HETATM   16  H   UNL     1      38.154 -12.950  -1.842  1.00  0.00     0.166 HD
HETATM   17  C   UNL     1      40.370 -15.000  -0.818  1.00  0.00    -0.011 A 
HETATM   18  C   UNL     1      41.514 -15.956  -0.925  1.00  0.00     0.052 C 
BRANCH  15  19
HETATM   19  C   UNL     1      39.771 -14.513  -3.305  1.00  0.00     0.310 C 
HETATM   20  O   UNL     1      38.861 -14.950  -4.000  1.00  0.00    -0.258 OA
BRANCH  19  21
HETATM   21  O   UNL     1      41.001 -14.155  -3.759  1.00  0.00    -0.317 OA
BRANCH  21  22
HETATM   22  C   UNL     1      41.357 -12.776  -3.596  1.00  0.00     0.175 C 
HETATM   23  C   UNL     1      42.697 -12.649  -2.899  1.00  0.00     0.034 C 
ENDBRANCH  21  22
ENDBRANCH  19  21
ENDBRANCH  15  19
ENDBRANCH   8  11
ENDBRANCH   1   7
BRANCH   3  24
HETATM   24  C   UNL     1      43.062 -15.124   6.753  1.00  0.00     0.083 C 
BRANCH  24  25
HETATM   25  C   UNL     1      43.978 -16.325   6.519  1.00  0.00     0.012 C 
BRANCH  25  26
HETATM   26  C   UNL     1      43.208 -17.642   6.613  1.00  0.00     0.041 C 
BRANCH  26  27
HETATM   27  C   UNL     1      43.720 -18.658   5.640  1.00  0.00    -0.030 A 
HETATM   28  C   UNL     1      43.451 -18.718   4.235  1.00  0.00    -0.002 A 
HETATM   29  C   UNL     1      44.119 -19.834   3.729  1.00  0.00     0.042 A 
HETATM   30  C   UNL     1      42.697 -17.928   3.343  1.00  0.00     0.014 A 
HETATM   31  C   UNL     1      44.071 -20.199   2.378  1.00  0.00     0.030 A 
HETATM   32  N   UNL     1      44.768 -20.430   4.785  1.00  0.00    -0.365 N 
HETATM   33  C   UNL     1      43.319 -19.397   1.516  1.00  0.00     0.002 A 
HETATM   34  C   UNL     1      42.640 -18.276   1.989  1.00  0.00     0.001 A 
HETATM   35  H   UNL     1      45.329 -21.267   4.715  1.00  0.00     0.165 HD
HETATM   36  C   UNL     1      44.538 -19.730   5.938  1.00  0.00     0.096 A 
ENDBRANCH  26  27
ENDBRANCH  25  26
ENDBRANCH  24  25
ENDBRANCH   3  24
TORSDOF 9
ENDMDL
MODEL 10
REMARK VINA RESULT:      -8.5      8.091     12.186
REMARK  9 active torsions:
REMARK  status: ('A' for Active; 'I' for Inactive)
REMARK    1  A    between atoms: C_2  and  O_3 
REMARK    2  A    between atoms: O_3  and  C_4 
REMARK    3  A    between atoms: C_4  and  C_5 
REMARK    4  A    between atoms: C_10  and  C_11 
REMARK       I    between atoms: C_11  and  N_12 
REMARK    5  A    between atoms: N_12  and  C_13 
REMARK    6  A    between atoms: C_15  and  C_16 
REMARK    7  A    between atoms: C_16  and  C_17 
REMARK    8  A    between atoms: C_17  and  C_18 
REMARK    9  A    between atoms: C_18  and  C_19 
ROOT
HETATM    1  C   UNL     1      40.787 -15.372   0.276  1.00  0.00     0.725 A 
HETATM    2  N   UNL     1      40.803 -15.327   1.585  1.00  0.00    -0.046 NA
HETATM    3  C   UNL     1      40.977 -16.629   1.964  1.00  0.00     0.165 A 
HETATM    4  N   UNL     1      41.098 -17.494   0.951  1.00  0.00    -0.144 NA
HETATM    5  N   UNL     1      40.972 -16.674  -0.107  1.00  0.00    -0.106 N 
HETATM    6  H   UNL     1      41.021 -17.063  -1.039  1.00  0.00     0.208 HD
ENDROOT
BRANCH   1   7
HETATM    7  N   UNL     1      40.638 -14.348  -0.626  1.00  0.00    -0.152 N 
HETATM    8  C   UNL     1      40.722 -14.568  -1.985  1.00  0.00     0.272 C 
HETATM    9  O   UNL     1      41.046 -15.618  -2.526  1.00  0.00    -0.267 OA
HETATM   10  H   UNL     1      40.496 -13.407  -0.299  1.00  0.00     0.187 HD
BRANCH   8  11
HETATM   11  C   UNL     1      40.413 -13.378  -2.803  1.00  0.00     0.063 A 
HETATM   12  C   UNL     1      39.206 -13.052  -3.419  1.00  0.00     0.022 A 
HETATM   13  N   UNL     1      39.409 -11.901  -4.139  1.00  0.00    -0.354 N 
HETATM   14  C   UNL     1      37.884 -13.733  -3.473  1.00  0.00     0.069 C 
HETATM   15  C   UNL     1      40.728 -11.513  -4.097  1.00  0.00     0.115 A 
HETATM   16  H   UNL     1      38.720 -11.440  -4.721  1.00  0.00     0.166 HD
HETATM   17  C   UNL     1      41.363 -12.360  -3.195  1.00  0.00    -0.011 A 
HETATM   18  C   UNL     1      42.787 -12.290  -2.745  1.00  0.00     0.052 C 
BRANCH  15  19
HETATM   19  C   UNL     1      41.194 -10.423  -4.928  1.00  0.00     0.310 C 
HETATM   20  O   UNL     1      41.728 -10.580  -6.019  1.00  0.00    -0.258 OA
BRANCH  19  21
HETATM   21  O   UNL     1      41.024  -9.228  -4.303  1.00  0.00    -0.317 OA
BRANCH  21  22
HETATM   22  C   UNL     1      42.219  -8.488  -4.021  1.00  0.00     0.175 C 
HETATM   23  C   UNL     1      42.589  -8.609  -2.556  1.00  0.00     0.034 C 
ENDBRANCH  21  22
ENDBRANCH  19  21
ENDBRANCH  15  19
ENDBRANCH   8  11
ENDBRANCH   1   7
BRANCH   3  24
HETATM   24  C   UNL     1      41.005 -17.021   3.395  1.00  0.00     0.083 C 
BRANCH  24  25
HETATM   25  C   UNL     1      42.250 -16.485   4.100  1.00  0.00     0.012 C 
BRANCH  25  26
HETATM   26  C   UNL     1      43.530 -16.972   3.420  1.00  0.00     0.041 C 
BRANCH  26  27
HETATM   27  C   UNL     1      44.021 -18.256   4.009  1.00  0.00    -0.030 A 
HETATM   28  C   UNL     1      44.058 -19.538   3.372  1.00  0.00    -0.002 A 
HETATM   29  C   UNL     1      44.575 -20.448   4.295  1.00  0.00     0.042 A 
HETATM   30  C   UNL     1      43.696 -20.012   2.095  1.00  0.00     0.014 A 
HETATM   31  C   UNL     1      44.749 -21.808   4.005  1.00  0.00     0.030 A 
HETATM   32  N   UNL     1      44.842 -19.748   5.449  1.00  0.00    -0.365 N 
HETATM   33  C   UNL     1      44.385 -22.250   2.731  1.00  0.00     0.002 A 
HETATM   34  C   UNL     1      43.865 -21.367   1.786  1.00  0.00     0.001 A 
HETATM   35  H   UNL     1      45.220 -20.155   6.292  1.00  0.00     0.165 HD
HETATM   36  C   UNL     1      44.515 -18.429   5.287  1.00  0.00     0.096 A 
ENDBRANCH  26  27
ENDBRANCH  25  26
ENDBRANCH  24  25
ENDBRANCH   3  24
TORSDOF 9
ENDMDL
