MODEL 1
REMARK VINA RESULT:      -7.9      0.000      0.000
REMARK  7 active torsions:
REMARK  status: ('A' for Active; 'I' for Inactive)
REMARK    1  A    between atoms: O_2  and  C_3 
REMARK    2  A    between atoms: C_3  and  C_5 
REMARK    3  A    between atoms: C_9  and  N_10 
REMARK       I    between atoms: N_10  and  C_13 
REMARK    4  A    between atoms: C_13  and  C_15 
REMARK    5  A    between atoms: C_15  and  C_16 
REMARK    6  A    between atoms: C_16  and  N_17 
REMARK    7  A    between atoms: N_23  and  C_26 
ROOT
HETATM    1  C   UNL     1      43.056 -17.377   4.995  1.00  0.00     0.142 A 
HETATM    2  N   UNL     1      42.845 -16.977   6.273  1.00  0.00    -0.224 NA
HETATM    3  C   UNL     1      43.260 -17.791   7.273  1.00  0.00     0.237 A 
HETATM    4  N   UNL     1      43.839 -18.997   7.173  1.00  0.00    -0.223 NA
HETATM    5  C   UNL     1      44.030 -19.353   5.897  1.00  0.00     0.144 A 
HETATM    6  N   UNL     1      44.620 -20.519   5.484  1.00  0.00    -0.348 N 
HETATM    7  H   UNL     1      44.967 -21.234   6.112  1.00  0.00     0.167 HD
HETATM    8  C   UNL     1      44.681 -20.542   4.108  1.00  0.00     0.113 A 
HETATM    9  C   UNL     1      44.125 -19.366   3.649  1.00  0.00     0.077 A 
HETATM   10  C   UNL     1      44.004 -18.949   2.287  1.00  0.00     0.102 C 
HETATM   11  N   UNL     1      43.818 -18.497   1.233  1.00  0.00    -0.191 NA
HETATM   12  C   UNL     1      43.685 -18.618   4.777  1.00  0.00     0.078 A 
ENDROOT
BRANCH   1  13
HETATM   13  N   UNL     1      42.673 -16.543   3.934  1.00  0.00    -0.365 N 
HETATM   14  C   UNL     1      41.250 -16.618   3.631  1.00  0.00     0.126 C 
HETATM   15  C   UNL     1      40.511 -15.450   4.264  1.00  0.00     0.041 C 
HETATM   16  C   UNL     1      41.160 -14.092   3.938  1.00  0.00     0.076 C 
HETATM   17  C   UNL     1      42.659 -14.088   4.301  1.00  0.00     0.041 C 
HETATM   18  C   UNL     1      43.443 -15.317   3.843  1.00  0.00     0.126 C 
BRANCH  16  19
HETATM   19  C   UNL     1      40.952 -13.801   2.424  1.00  0.00     0.330 C 
HETATM   20  N   UNL     1      39.814 -14.223   1.661  1.00  0.00     0.018 N 
HETATM   21  H   UNL     1      38.954 -13.921   2.137  1.00  0.00     0.294 HD
HETATM   22  H   UNL     1      39.746 -15.243   1.700  1.00  0.00     0.294 HD
HETATM   23  O   UNL     1      41.760 -13.138   1.791  1.00  0.00    -0.264 OA
BRANCH  20  24
HETATM   24  C   UNL     1      39.714 -13.828   0.261  1.00  0.00     0.142 A 
HETATM   25  C   UNL     1      39.170 -12.585  -0.066  1.00  0.00     0.037 A 
HETATM   26  C   UNL     1      39.132 -12.181  -1.400  1.00  0.00     0.003 A 
HETATM   27  C   UNL     1      39.639 -13.014  -2.401  1.00  0.00     0.018 A 
HETATM   28  C   UNL     1      40.187 -14.259  -2.070  1.00  0.00     0.041 A 
HETATM   29  C   UNL     1      40.225 -14.667  -0.727  1.00  0.00     0.055 A 
BRANCH  28  30
HETATM   30  C   UNL     1      40.741 -15.188  -3.089  1.00  0.00     0.293 C 
HETATM   31  O   UNL     1      41.771 -14.937  -3.692  1.00  0.00    -0.259 OA
BRANCH  30  32
HETATM   32  O   UNL     1      39.945 -16.267  -3.243  1.00  0.00    -0.323 OA
HETATM   33  C   UNL     1      38.976 -16.138  -4.287  1.00  0.00     0.213 C 
ENDBRANCH  30  32
ENDBRANCH  28  30
ENDBRANCH  20  24
ENDBRANCH  16  19
BRANCH  16  34
HETATM   34  C   UNL     1      40.402 -12.932   4.690  1.00  0.00     0.253 C 
BRANCH  34  35
HETATM   35  N   UNL     1      40.174 -11.618   3.940  1.00  0.00    -0.078 N 
HETATM   36  H   UNL     1      40.523 -11.700   2.974  1.00  0.00     0.279 HD
HETATM   37  C   UNL     1      38.751 -11.124   3.842  1.00  0.00     0.269 C 
HETATM   38  C   UNL     1      41.045 -10.516   4.537  1.00  0.00     0.269 C 
ENDBRANCH  34  35
ENDBRANCH  16  34
ENDBRANCH   1  13
TORSDOF 7
ENDMDL
MODEL 2
REMARK VINA RESULT:      -7.8      1.894      2.479
REMARK  7 active torsions:
REMARK  status: ('A' for Active; 'I' for Inactive)
REMARK    1  A    between atoms: O_2  and  C_3 
REMARK    2  A    between atoms: C_3  and  C_5 
REMARK    3  A    between atoms: C_9  and  N_10 
REMARK       I    between atoms: N_10  and  C_13 
REMARK    4  A    between atoms: C_13  and  C_15 
REMARK    5  A    between atoms: C_15  and  C_16 
REMARK    6  A    between atoms: C_16  and  N_17 
REMARK    7  A    between atoms: N_23  and  C_26 
ROOT
HETATM    1  C   UNL     1      43.064 -16.278   4.503  1.00  0.00     0.142 A 
HETATM    2  N   UNL     1      43.140 -15.291   5.429  1.00  0.00    -0.224 NA
HETATM    3  C   UNL     1      43.792 -15.552   6.588  1.00  0.00     0.237 A 
HETATM    4  N   UNL     1      44.363 -16.701   6.976  1.00  0.00    -0.223 NA
HETATM    5  C   UNL     1      44.268 -17.647   6.034  1.00  0.00     0.144 A 
HETATM    6  N   UNL     1      44.778 -18.916   6.136  1.00  0.00    -0.348 N 
HETATM    7  H   UNL     1      45.276 -19.264   6.945  1.00  0.00     0.167 HD
HETATM    8  C   UNL     1      44.524 -19.609   4.973  1.00  0.00     0.113 A 
HETATM    9  C   UNL     1      43.849 -18.758   4.122  1.00  0.00     0.077 A 
HETATM   10  C   UNL     1      43.411 -19.045   2.792  1.00  0.00     0.102 C 
HETATM   11  N   UNL     1      42.979 -19.146   1.718  1.00  0.00    -0.191 NA
HETATM   12  C   UNL     1      43.658 -17.520   4.799  1.00  0.00     0.078 A 
ENDROOT
BRANCH   1  13
HETATM   13  N   UNL     1      42.429 -16.032   3.277  1.00  0.00    -0.365 N 
HETATM   14  C   UNL     1      40.977 -16.104   3.359  1.00  0.00     0.126 C 
HETATM   15  C   UNL     1      40.382 -14.710   3.469  1.00  0.00     0.041 C 
HETATM   16  C   UNL     1      40.911 -13.753   2.385  1.00  0.00     0.076 C 
HETATM   17  C   UNL     1      42.453 -13.721   2.371  1.00  0.00     0.041 C 
HETATM   18  C   UNL     1      43.133 -15.088   2.429  1.00  0.00     0.126 C 
BRANCH  16  19
HETATM   19  C   UNL     1      40.351 -14.217   1.008  1.00  0.00     0.330 C 
HETATM   20  N   UNL     1      40.982 -13.966  -0.254  1.00  0.00     0.018 N 
HETATM   21  H   UNL     1      41.959 -14.282  -0.216  1.00  0.00     0.294 HD
HETATM   22  H   UNL     1      41.077 -12.956  -0.385  1.00  0.00     0.294 HD
HETATM   23  O   UNL     1      39.326 -14.877   0.933  1.00  0.00    -0.264 OA
BRANCH  20  24
HETATM   24  C   UNL     1      40.381 -14.512  -1.466  1.00  0.00     0.142 A 
HETATM   25  C   UNL     1      40.962 -15.623  -2.081  1.00  0.00     0.037 A 
HETATM   26  C   UNL     1      40.353 -16.183  -3.203  1.00  0.00     0.003 A 
HETATM   27  C   UNL     1      39.168 -15.639  -3.705  1.00  0.00     0.018 A 
HETATM   28  C   UNL     1      38.586 -14.527  -3.084  1.00  0.00     0.041 A 
HETATM   29  C   UNL     1      39.199 -13.961  -1.955  1.00  0.00     0.055 A 
BRANCH  28  30
HETATM   30  C   UNL     1      37.328 -13.904  -3.571  1.00  0.00     0.293 C 
HETATM   31  O   UNL     1      37.038 -12.749  -3.306  1.00  0.00    -0.259 OA
BRANCH  30  32
HETATM   32  O   UNL     1      36.596 -14.788  -4.283  1.00  0.00    -0.323 OA
HETATM   33  C   UNL     1      35.563 -14.192  -5.073  1.00  0.00     0.213 C 
ENDBRANCH  30  32
ENDBRANCH  28  30
ENDBRANCH  20  24
ENDBRANCH  16  19
BRANCH  16  34
HETATM   34  C   UNL     1      40.325 -12.306   2.602  1.00  0.00     0.253 C 
BRANCH  34  35
HETATM   35  N   UNL     1      38.878 -12.181   3.084  1.00  0.00    -0.078 N 
HETATM   36  H   UNL     1      38.464 -13.117   3.198  1.00  0.00     0.279 HD
HETATM   37  C   UNL     1      38.651 -11.449   4.384  1.00  0.00     0.269 C 
HETATM   38  C   UNL     1      38.017 -11.544   1.996  1.00  0.00     0.269 C 
ENDBRANCH  34  35
ENDBRANCH  16  34
ENDBRANCH   1  13
TORSDOF 7
ENDMDL
MODEL 3
REMARK VINA RESULT:      -7.8      3.103      8.210
REMARK  7 active torsions:
REMARK  status: ('A' for Active; 'I' for Inactive)
REMARK    1  A    between atoms: O_2  and  C_3 
REMARK    2  A    between atoms: C_3  and  C_5 
REMARK    3  A    between atoms: C_9  and  N_10 
REMARK       I    between atoms: N_10  and  C_13 
REMARK    4  A    between atoms: C_13  and  C_15 
REMARK    5  A    between atoms: C_15  and  C_16 
REMARK    6  A    between atoms: C_16  and  N_17 
REMARK    7  A    between atoms: N_23  and  C_26 
ROOT
HETATM    1  C   UNL     1      40.316 -12.834   0.645  1.00  0.00     0.142 A 
HETATM    2  N   UNL     1      40.034 -11.848   1.532  1.00  0.00    -0.224 NA
HETATM    3  C   UNL     1      39.636 -10.647   1.048  1.00  0.00     0.237 A 
HETATM    4  N   UNL     1      39.510 -10.273  -0.233  1.00  0.00    -0.223 NA
HETATM    5  C   UNL     1      39.796 -11.272  -1.076  1.00  0.00     0.144 A 
HETATM    6  N   UNL     1      39.733 -11.195  -2.443  1.00  0.00    -0.348 N 
HETATM    7  H   UNL     1      39.468 -10.362  -2.952  1.00  0.00     0.167 HD
HETATM    8  C   UNL     1      40.062 -12.415  -2.989  1.00  0.00     0.113 A 
HETATM    9  C   UNL     1      40.329 -13.278  -1.946  1.00  0.00     0.077 A 
HETATM   10  C   UNL     1      40.682 -14.660  -2.045  1.00  0.00     0.102 C 
HETATM   11  N   UNL     1      40.998 -15.776  -1.975  1.00  0.00    -0.191 NA
HETATM   12  C   UNL     1      40.188 -12.553  -0.729  1.00  0.00     0.078 A 
ENDROOT
BRANCH   1  13
HETATM   13  N   UNL     1      40.697 -14.101   1.112  1.00  0.00    -0.365 N 
HETATM   14  C   UNL     1      42.126 -14.211   1.369  1.00  0.00     0.126 C 
HETATM   15  C   UNL     1      42.414 -14.041   2.851  1.00  0.00     0.041 C 
HETATM   16  C   UNL     1      41.537 -14.950   3.733  1.00  0.00     0.076 C 
HETATM   17  C   UNL     1      40.039 -14.763   3.412  1.00  0.00     0.041 C 
HETATM   18  C   UNL     1      39.688 -14.754   1.925  1.00  0.00     0.126 C 
BRANCH  16  19
HETATM   19  C   UNL     1      41.976 -16.425   3.503  1.00  0.00     0.330 C 
HETATM   20  N   UNL     1      43.295 -16.832   3.119  1.00  0.00     0.018 N 
HETATM   21  H   UNL     1      43.981 -16.422   3.766  1.00  0.00     0.294 HD
HETATM   22  H   UNL     1      43.535 -16.391   2.228  1.00  0.00     0.294 HD
HETATM   23  O   UNL     1      41.199 -17.352   3.684  1.00  0.00    -0.264 OA
BRANCH  20  24
HETATM   24  C   UNL     1      43.590 -18.256   2.999  1.00  0.00     0.142 A 
HETATM   25  C   UNL     1      43.550 -18.863   1.742  1.00  0.00     0.037 A 
HETATM   26  C   UNL     1      43.892 -20.209   1.619  1.00  0.00     0.003 A 
HETATM   27  C   UNL     1      44.275 -20.944   2.744  1.00  0.00     0.018 A 
HETATM   28  C   UNL     1      44.318 -20.331   4.003  1.00  0.00     0.041 A 
HETATM   29  C   UNL     1      43.973 -18.975   4.128  1.00  0.00     0.055 A 
BRANCH  28  30
HETATM   30  C   UNL     1      44.718 -21.058   5.235  1.00  0.00     0.293 C 
HETATM   31  O   UNL     1      45.278 -22.141   5.188  1.00  0.00    -0.259 OA
BRANCH  30  32
HETATM   32  O   UNL     1      44.353 -20.374   6.340  1.00  0.00    -0.323 OA
HETATM   33  C   UNL     1      43.560 -21.127   7.262  1.00  0.00     0.213 C 
ENDBRANCH  30  32
ENDBRANCH  28  30
ENDBRANCH  20  24
ENDBRANCH  16  19
BRANCH  16  34
HETATM   34  C   UNL     1      41.819 -14.667   5.257  1.00  0.00     0.253 C 
BRANCH  34  35
HETATM   35  N   UNL     1      43.208 -15.002   5.805  1.00  0.00    -0.078 N 
HETATM   36  H   UNL     1      43.782 -15.433   5.066  1.00  0.00     0.279 HD
HETATM   37  C   UNL     1      44.017 -13.858   6.366  1.00  0.00     0.269 C 
HETATM   38  C   UNL     1      43.104 -16.102   6.859  1.00  0.00     0.269 C 
ENDBRANCH  34  35
ENDBRANCH  16  34
ENDBRANCH   1  13
TORSDOF 7
ENDMDL
MODEL 4
REMARK VINA RESULT:      -7.8      2.141      5.749
REMARK  7 active torsions:
REMARK  status: ('A' for Active; 'I' for Inactive)
REMARK    1  A    between atoms: O_2  and  C_3 
REMARK    2  A    between atoms: C_3  and  C_5 
REMARK    3  A    between atoms: C_9  and  N_10 
REMARK       I    between atoms: N_10  and  C_13 
REMARK    4  A    between atoms: C_13  and  C_15 
REMARK    5  A    between atoms: C_15  and  C_16 
REMARK    6  A    between atoms: C_16  and  N_17 
REMARK    7  A    between atoms: N_23  and  C_26 
ROOT
HETATM    1  C   UNL     1      43.146 -18.422   3.295  1.00  0.00     0.142 A 
HETATM    2  N   UNL     1      43.418 -19.045   2.122  1.00  0.00    -0.224 NA
HETATM    3  C   UNL     1      44.058 -20.239   2.167  1.00  0.00     0.237 A 
HETATM    4  N   UNL     1      44.507 -20.897   3.245  1.00  0.00    -0.223 NA
HETATM    5  C   UNL     1      44.217 -20.251   4.380  1.00  0.00     0.144 A 
HETATM    6  N   UNL     1      44.529 -20.691   5.640  1.00  0.00    -0.348 N 
HETATM    7  H   UNL     1      45.019 -21.554   5.835  1.00  0.00     0.167 HD
HETATM    8  C   UNL     1      44.053 -19.794   6.572  1.00  0.00     0.113 A 
HETATM    9  C   UNL     1      43.426 -18.775   5.884  1.00  0.00     0.077 A 
HETATM   10  C   UNL     1      42.761 -17.643   6.449  1.00  0.00     0.102 C 
HETATM   11  N   UNL     1      42.213 -16.669   6.765  1.00  0.00    -0.191 NA
HETATM   12  C   UNL     1      43.549 -19.044   4.492  1.00  0.00     0.078 A 
ENDROOT
BRANCH   1  13
HETATM   13  N   UNL     1      42.452 -17.203   3.289  1.00  0.00    -0.365 N 
HETATM   14  C   UNL     1      43.247 -16.094   2.782  1.00  0.00     0.126 C 
HETATM   15  C   UNL     1      42.905 -15.815   1.328  1.00  0.00     0.041 C 
HETATM   16  C   UNL     1      41.390 -15.670   1.093  1.00  0.00     0.076 C 
HETATM   17  C   UNL     1      40.620 -16.890   1.643  1.00  0.00     0.041 C 
HETATM   18  C   UNL     1      41.028 -17.339   3.045  1.00  0.00     0.126 C 
BRANCH  16  19
HETATM   19  C   UNL     1      40.912 -14.356   1.777  1.00  0.00     0.330 C 
HETATM   20  N   UNL     1      39.695 -14.221   2.521  1.00  0.00     0.018 N 
HETATM   21  H   UNL     1      39.651 -14.955   3.239  1.00  0.00     0.294 HD
HETATM   22  H   UNL     1      38.905 -14.452   1.914  1.00  0.00     0.294 HD
HETATM   23  O   UNL     1      41.595 -13.344   1.746  1.00  0.00    -0.264 OA
BRANCH  20  24
HETATM   24  C   UNL     1      39.398 -12.946   3.165  1.00  0.00     0.142 A 
HETATM   25  C   UNL     1      38.603 -12.009   2.502  1.00  0.00     0.037 A 
HETATM   26  C   UNL     1      38.268 -10.817   3.143  1.00  0.00     0.003 A 
HETATM   27  C   UNL     1      38.720 -10.564   4.440  1.00  0.00     0.018 A 
HETATM   28  C   UNL     1      39.514 -11.508   5.104  1.00  0.00     0.041 A 
HETATM   29  C   UNL     1      39.853 -12.708   4.460  1.00  0.00     0.055 A 
BRANCH  28  30
HETATM   30  C   UNL     1      40.024 -11.297   6.484  1.00  0.00     0.293 C 
HETATM   31  O   UNL     1      41.214 -11.365   6.746  1.00  0.00    -0.259 OA
BRANCH  30  32
HETATM   32  O   UNL     1      39.010 -11.062   7.343  1.00  0.00    -0.323 OA
HETATM   33  C   UNL     1      39.355 -11.240   8.720  1.00  0.00     0.213 C 
ENDBRANCH  30  32
ENDBRANCH  28  30
ENDBRANCH  20  24
ENDBRANCH  16  19
BRANCH  16  34
HETATM   34  C   UNL     1      41.093 -15.470  -0.441  1.00  0.00     0.253 C 
BRANCH  34  35
HETATM   35  N   UNL     1      40.825 -14.049  -0.942  1.00  0.00    -0.078 N 
HETATM   36  H   UNL     1      40.681 -13.416  -0.142  1.00  0.00     0.279 HD
HETATM   37  C   UNL     1      41.890 -13.415  -1.804  1.00  0.00     0.269 C 
HETATM   38  C   UNL     1      39.489 -13.995  -1.679  1.00  0.00     0.269 C 
ENDBRANCH  34  35
ENDBRANCH  16  34
ENDBRANCH   1  13
TORSDOF 7
ENDMDL
MODEL 5
REMARK VINA RESULT:      -7.5      2.969      8.372
REMARK  7 active torsions:
REMARK  status: ('A' for Active; 'I' for Inactive)
REMARK    1  A    between atoms: O_2  and  C_3 
REMARK    2  A    between atoms: C_3  and  C_5 
REMARK    3  A    between atoms: C_9  and  N_10 
REMARK       I    between atoms: N_10  and  C_13 
REMARK    4  A    between atoms: C_13  and  C_15 
REMARK    5  A    between atoms: C_15  and  C_16 
REMARK    6  A    between atoms: C_16  and  N_17 
REMARK    7  A    between atoms: N_23  and  C_26 
ROOT
HETATM    1  C   UNL     1      39.711 -11.106   4.874  1.00  0.00     0.142 A 
HETATM    2  N   UNL     1      38.778 -10.996   3.897  1.00  0.00    -0.224 NA
HETATM    3  C   UNL     1      37.909  -9.959   3.958  1.00  0.00     0.237 A 
HETATM    4  N   UNL     1      37.816  -9.012   4.902  1.00  0.00    -0.223 NA
HETATM    5  C   UNL     1      38.754  -9.155   5.846  1.00  0.00     0.144 A 
HETATM    6  N   UNL     1      38.922  -8.324   6.924  1.00  0.00    -0.348 N 
HETATM    7  H   UNL     1      38.343  -7.517   7.114  1.00  0.00     0.167 HD
HETATM    8  C   UNL     1      39.999  -8.750   7.669  1.00  0.00     0.113 A 
HETATM    9  C   UNL     1      40.522  -9.864   7.045  1.00  0.00     0.077 A 
HETATM   10  C   UNL     1      41.665 -10.619   7.453  1.00  0.00     0.102 C 
HETATM   11  N   UNL     1      42.553 -11.333   7.677  1.00  0.00    -0.191 NA
HETATM   12  C   UNL     1      39.720 -10.144   5.902  1.00  0.00     0.078 A 
ENDROOT
BRANCH   1  13
HETATM   13  N   UNL     1      40.651 -12.147   4.824  1.00  0.00    -0.365 N 
HETATM   14  C   UNL     1      40.131 -13.413   5.321  1.00  0.00     0.126 C 
HETATM   15  C   UNL     1      39.706 -14.303   4.165  1.00  0.00     0.041 C 
HETATM   16  C   UNL     1      40.802 -14.443   3.091  1.00  0.00     0.076 C 
HETATM   17  C   UNL     1      41.288 -13.061   2.606  1.00  0.00     0.041 C 
HETATM   18  C   UNL     1      41.577 -12.048   3.712  1.00  0.00     0.126 C 
BRANCH  16  19
HETATM   19  C   UNL     1      41.976 -15.266   3.696  1.00  0.00     0.330 C 
HETATM   20  N   UNL     1      41.821 -16.341   4.632  1.00  0.00     0.018 N 
HETATM   21  H   UNL     1      41.149 -17.023   4.259  1.00  0.00     0.294 HD
HETATM   22  H   UNL     1      41.346 -15.990   5.467  1.00  0.00     0.294 HD
HETATM   23  O   UNL     1      43.133 -15.057   3.361  1.00  0.00    -0.264 OA
BRANCH  20  24
HETATM   24  C   UNL     1      43.004 -17.072   5.071  1.00  0.00     0.142 A 
HETATM   25  C   UNL     1      43.741 -16.598   6.158  1.00  0.00     0.037 A 
HETATM   26  C   UNL     1      44.836 -17.330   6.618  1.00  0.00     0.003 A 
HETATM   27  C   UNL     1      45.189 -18.531   5.996  1.00  0.00     0.018 A 
HETATM   28  C   UNL     1      44.446 -19.005   4.908  1.00  0.00     0.041 A 
HETATM   29  C   UNL     1      43.344 -18.269   4.445  1.00  0.00     0.055 A 
BRANCH  28  30
HETATM   30  C   UNL     1      44.772 -20.275   4.208  1.00  0.00     0.293 C 
HETATM   31  O   UNL     1      45.158 -21.261   4.813  1.00  0.00    -0.259 OA
BRANCH  30  32
HETATM   32  O   UNL     1      44.607 -20.146   2.874  1.00  0.00    -0.323 OA
HETATM   33  C   UNL     1      44.142 -21.332   2.224  1.00  0.00     0.213 C 
ENDBRANCH  30  32
ENDBRANCH  28  30
ENDBRANCH  20  24
ENDBRANCH  16  19
BRANCH  16  34
HETATM   34  C   UNL     1      40.273 -15.304   1.882  1.00  0.00     0.253 C 
BRANCH  34  35
HETATM   35  N   UNL     1      41.290 -16.123   1.084  1.00  0.00    -0.078 N 
HETATM   36  H   UNL     1      42.242 -15.936   1.432  1.00  0.00     0.279 HD
HETATM   37  C   UNL     1      41.117 -17.622   1.089  1.00  0.00     0.269 C 
HETATM   38  C   UNL     1      41.340 -15.632  -0.361  1.00  0.00     0.269 C 
ENDBRANCH  34  35
ENDBRANCH  16  34
ENDBRANCH   1  13
TORSDOF 7
ENDMDL
MODEL 6
REMARK VINA RESULT:      -7.5      2.624      8.332
REMARK  7 active torsions:
REMARK  status: ('A' for Active; 'I' for Inactive)
REMARK    1  A    between atoms: O_2  and  C_3 
REMARK    2  A    between atoms: C_3  and  C_5 
REMARK    3  A    between atoms: C_9  and  N_10 
REMARK       I    between atoms: N_10  and  C_13 
REMARK    4  A    between atoms: C_13  and  C_15 
REMARK    5  A    between atoms: C_15  and  C_16 
REMARK    6  A    between atoms: C_16  and  N_17 
REMARK    7  A    between atoms: N_23  and  C_26 
ROOT
HETATM    1  C   UNL     1      39.332 -12.382   2.823  1.00  0.00     0.142 A 
HETATM    2  N   UNL     1      38.501 -12.337   1.752  1.00  0.00    -0.224 NA
HETATM    3  C   UNL     1      37.616 -11.314   1.674  1.00  0.00     0.237 A 
HETATM    4  N   UNL     1      37.416 -10.324   2.555  1.00  0.00    -0.223 NA
HETATM    5  C   UNL     1      38.255 -10.403   3.594  1.00  0.00     0.144 A 
HETATM    6  N   UNL     1      38.301  -9.519   4.640  1.00  0.00    -0.348 N 
HETATM    7  H   UNL     1      37.695  -8.714   4.731  1.00  0.00     0.167 HD
HETATM    8  C   UNL     1      39.303  -9.888   5.511  1.00  0.00     0.113 A 
HETATM    9  C   UNL     1      39.901 -11.021   4.999  1.00  0.00     0.077 A 
HETATM   10  C   UNL     1      41.007 -11.734   5.557  1.00  0.00     0.102 C 
HETATM   11  N   UNL     1      41.877 -12.420   5.906  1.00  0.00    -0.191 NA
HETATM   12  C   UNL     1      39.224 -11.370   3.796  1.00  0.00     0.078 A 
ENDROOT
BRANCH   1  13
HETATM   13  N   UNL     1      40.286 -13.406   2.920  1.00  0.00    -0.365 N 
HETATM   14  C   UNL     1      39.700 -14.739   2.889  1.00  0.00     0.126 C 
HETATM   15  C   UNL     1      39.814 -15.337   1.496  1.00  0.00     0.041 C 
HETATM   16  C   UNL     1      41.244 -15.257   0.932  1.00  0.00     0.076 C 
HETATM   17  C   UNL     1      41.787 -13.814   0.985  1.00  0.00     0.041 C 
HETATM   18  C   UNL     1      41.560 -13.082   2.307  1.00  0.00     0.126 C 
BRANCH  16  19
HETATM   19  C   UNL     1      42.148 -16.223   1.754  1.00  0.00     0.330 C 
HETATM   20  N   UNL     1      41.730 -17.496   2.261  1.00  0.00     0.018 N 
HETATM   21  H   UNL     1      41.329 -18.053   1.495  1.00  0.00     0.294 HD
HETATM   22  H   UNL     1      40.930 -17.362   2.884  1.00  0.00     0.294 HD
HETATM   23  O   UNL     1      43.317 -15.952   1.984  1.00  0.00    -0.264 OA
BRANCH  20  24
HETATM   24  C   UNL     1      42.699 -18.331   2.962  1.00  0.00     0.142 A 
HETATM   25  C   UNL     1      43.283 -19.412   2.300  1.00  0.00     0.037 A 
HETATM   26  C   UNL     1      44.255 -20.172   2.950  1.00  0.00     0.003 A 
HETATM   27  C   UNL     1      44.644 -19.850   4.254  1.00  0.00     0.018 A 
HETATM   28  C   UNL     1      44.058 -18.763   4.914  1.00  0.00     0.041 A 
HETATM   29  C   UNL     1      43.079 -17.998   4.261  1.00  0.00     0.055 A 
BRANCH  28  30
HETATM   30  C   UNL     1      44.429 -18.372   6.299  1.00  0.00     0.293 C 
HETATM   31  O   UNL     1      45.552 -17.985   6.577  1.00  0.00    -0.259 OA
BRANCH  30  32
HETATM   32  O   UNL     1      43.389 -18.537   7.143  1.00  0.00    -0.323 OA
HETATM   33  C   UNL     1      43.091 -17.387   7.939  1.00  0.00     0.213 C 
ENDBRANCH  30  32
ENDBRANCH  28  30
ENDBRANCH  20  24
ENDBRANCH  16  19
BRANCH  16  34
HETATM   34  C   UNL     1      41.281 -15.812  -0.542  1.00  0.00     0.253 C 
BRANCH  34  35
HETATM   35  N   UNL     1      40.294 -15.227  -1.555  1.00  0.00    -0.078 N 
HETATM   36  H   UNL     1      39.348 -15.594  -1.376  1.00  0.00     0.279 HD
HETATM   37  C   UNL     1      40.170 -13.723  -1.599  1.00  0.00     0.269 C 
HETATM   38  C   UNL     1      40.614 -15.742  -2.956  1.00  0.00     0.269 C 
ENDBRANCH  34  35
ENDBRANCH  16  34
ENDBRANCH   1  13
TORSDOF 7
ENDMDL
MODEL 7
REMARK VINA RESULT:      -7.4      2.865      6.783
REMARK  7 active torsions:
REMARK  status: ('A' for Active; 'I' for Inactive)
REMARK    1  A    between atoms: O_2  and  C_3 
REMARK    2  A    between atoms: C_3  and  C_5 
REMARK    3  A    between atoms: C_9  and  N_10 
REMARK       I    between atoms: N_10  and  C_13 
REMARK    4  A    between atoms: C_13  and  C_15 
REMARK    5  A    between atoms: C_15  and  C_16 
REMARK    6  A    between atoms: C_16  and  N_17 
REMARK    7  A    between atoms: N_23  and  C_26 
ROOT
HETATM    1  C   UNL     1      43.065 -17.497   3.574  1.00  0.00     0.142 A 
HETATM    2  N   UNL     1      43.147 -17.642   2.229  1.00  0.00    -0.224 NA
HETATM    3  C   UNL     1      43.700 -18.779   1.742  1.00  0.00     0.237 A 
HETATM    4  N   UNL     1      44.227 -19.803   2.428  1.00  0.00    -0.223 NA
HETATM    5  C   UNL     1      44.124 -19.622   3.750  1.00  0.00     0.144 A 
HETATM    6  N   UNL     1      44.553 -20.509   4.703  1.00  0.00    -0.348 N 
HETATM    7  H   UNL     1      44.999 -21.394   4.495  1.00  0.00     0.167 HD
HETATM    8  C   UNL     1      44.261 -20.017   5.955  1.00  0.00     0.113 A 
HETATM    9  C   UNL     1      43.631 -18.801   5.786  1.00  0.00     0.077 A 
HETATM   10  C   UNL     1      43.124 -17.948   6.814  1.00  0.00     0.102 C 
HETATM   11  N   UNL     1      42.690 -17.150   7.540  1.00  0.00    -0.191 NA
HETATM   12  C   UNL     1      43.565 -18.531   4.390  1.00  0.00     0.078 A 
ENDROOT
BRANCH   1  13
HETATM   13  N   UNL     1      42.466 -16.349   4.115  1.00  0.00    -0.365 N 
HETATM   14  C   UNL     1      43.315 -15.169   4.034  1.00  0.00     0.126 C 
HETATM   15  C   UNL     1      42.916 -14.308   2.847  1.00  0.00     0.041 C 
HETATM   16  C   UNL     1      41.405 -14.009   2.813  1.00  0.00     0.076 C 
HETATM   17  C   UNL     1      40.577 -15.309   2.887  1.00  0.00     0.041 C 
HETATM   18  C   UNL     1      41.025 -16.307   3.952  1.00  0.00     0.126 C 
BRANCH  16  19
HETATM   19  C   UNL     1      41.067 -13.065   4.003  1.00  0.00     0.330 C 
HETATM   20  N   UNL     1      41.716 -11.812   4.259  1.00  0.00     0.018 N 
HETATM   21  H   UNL     1      41.687 -11.233   3.410  1.00  0.00     0.294 HD
HETATM   22  H   UNL     1      42.717 -11.975   4.386  1.00  0.00     0.294 HD
HETATM   23  O   UNL     1      40.170 -13.333   4.788  1.00  0.00    -0.264 OA
BRANCH  20  24
HETATM   24  C   UNL     1      41.257 -10.994   5.376  1.00  0.00     0.142 A 
HETATM   25  C   UNL     1      40.163 -10.144   5.202  1.00  0.00     0.037 A 
HETATM   26  C   UNL     1      39.687  -9.408   6.287  1.00  0.00     0.003 A 
HETATM   27  C   UNL     1      40.297  -9.525   7.539  1.00  0.00     0.018 A 
HETATM   28  C   UNL     1      41.392 -10.380   7.710  1.00  0.00     0.041 A 
HETATM   29  C   UNL     1      41.873 -11.121   6.619  1.00  0.00     0.055 A 
BRANCH  28  30
HETATM   30  C   UNL     1      42.082 -10.547   9.016  1.00  0.00     0.293 C 
HETATM   31  O   UNL     1      41.463 -10.614  10.065  1.00  0.00    -0.259 OA
BRANCH  30  32
HETATM   32  O   UNL     1      43.422 -10.579   8.854  1.00  0.00    -0.323 OA
HETATM   33  C   UNL     1      44.122 -11.272   9.891  1.00  0.00     0.213 C 
ENDBRANCH  30  32
ENDBRANCH  28  30
ENDBRANCH  20  24
ENDBRANCH  16  19
BRANCH  16  34
HETATM   34  C   UNL     1      41.041 -13.189   1.518  1.00  0.00     0.253 C 
BRANCH  34  35
HETATM   35  N   UNL     1      41.880 -13.422   0.260  1.00  0.00    -0.078 N 
HETATM   36  H   UNL     1      42.814 -13.772   0.520  1.00  0.00     0.279 HD
HETATM   37  C   UNL     1      41.329 -14.387  -0.762  1.00  0.00     0.269 C 
HETATM   38  C   UNL     1      42.180 -12.090  -0.424  1.00  0.00     0.269 C 
ENDBRANCH  34  35
ENDBRANCH  16  34
ENDBRANCH   1  13
TORSDOF 7
ENDMDL
MODEL 8
REMARK VINA RESULT:      -7.4      1.667      2.349
REMARK  7 active torsions:
REMARK  status: ('A' for Active; 'I' for Inactive)
REMARK    1  A    between atoms: O_2  and  C_3 
REMARK    2  A    between atoms: C_3  and  C_5 
REMARK    3  A    between atoms: C_9  and  N_10 
REMARK       I    between atoms: N_10  and  C_13 
REMARK    4  A    between atoms: C_13  and  C_15 
REMARK    5  A    between atoms: C_15  and  C_16 
REMARK    6  A    between atoms: C_16  and  N_17 
REMARK    7  A    between atoms: N_23  and  C_26 
ROOT
HETATM    1  C   UNL     1      42.973 -16.690   4.844  1.00  0.00     0.142 A 
HETATM    2  N   UNL     1      42.805 -15.964   5.976  1.00  0.00    -0.224 NA
HETATM    3  C   UNL     1      43.237 -16.495   7.145  1.00  0.00     0.237 A 
HETATM    4  N   UNL     1      43.798 -17.695   7.352  1.00  0.00    -0.223 NA
HETATM    5  C   UNL     1      43.948 -18.378   6.211  1.00  0.00     0.144 A 
HETATM    6  N   UNL     1      44.511 -19.624   6.106  1.00  0.00    -0.348 N 
HETATM    7  H   UNL     1      44.866 -20.154   6.891  1.00  0.00     0.167 HD
HETATM    8  C   UNL     1      44.532 -20.009   4.784  1.00  0.00     0.113 A 
HETATM    9  C   UNL     1      43.978 -18.984   4.044  1.00  0.00     0.077 A 
HETATM   10  C   UNL     1      43.823 -18.938   2.624  1.00  0.00     0.102 C 
HETATM   11  N   UNL     1      43.613 -18.774   1.493  1.00  0.00    -0.191 NA
HETATM   12  C   UNL     1      43.580 -17.957   4.946  1.00  0.00     0.078 A 
ENDROOT
BRANCH   1  13
HETATM   13  N   UNL     1      42.571 -16.157   3.611  1.00  0.00    -0.365 N 
HETATM   14  C   UNL     1      41.157 -16.364   3.331  1.00  0.00     0.126 C 
HETATM   15  C   UNL     1      40.361 -15.111   3.657  1.00  0.00     0.041 C 
HETATM   16  C   UNL     1      40.958 -13.846   3.013  1.00  0.00     0.076 C 
HETATM   17  C   UNL     1      42.451 -13.690   3.368  1.00  0.00     0.041 C 
HETATM   18  C   UNL     1      43.291 -14.958   3.226  1.00  0.00     0.126 C 
BRANCH  16  19
HETATM   19  C   UNL     1      40.759 -13.942   1.472  1.00  0.00     0.330 C 
HETATM   20  N   UNL     1      41.813 -14.163   0.526  1.00  0.00     0.018 N 
HETATM   21  H   UNL     1      42.351 -14.995   0.803  1.00  0.00     0.294 HD
HETATM   22  H   UNL     1      42.502 -13.412   0.612  1.00  0.00     0.294 HD
HETATM   23  O   UNL     1      39.646 -13.870   0.973  1.00  0.00    -0.264 OA
BRANCH  20  24
HETATM   24  C   UNL     1      41.479 -14.295  -0.887  1.00  0.00     0.142 A 
HETATM   25  C   UNL     1      41.115 -15.544  -1.395  1.00  0.00     0.037 A 
HETATM   26  C   UNL     1      40.736 -15.657  -2.732  1.00  0.00     0.003 A 
HETATM   27  C   UNL     1      40.717 -14.529  -3.556  1.00  0.00     0.018 A 
HETATM   28  C   UNL     1      41.079 -13.277  -3.043  1.00  0.00     0.041 A 
HETATM   29  C   UNL     1      41.462 -13.161  -1.697  1.00  0.00     0.055 A 
BRANCH  28  30
HETATM   30  C   UNL     1      41.077 -12.042  -3.869  1.00  0.00     0.293 C 
HETATM   31  O   UNL     1      40.041 -11.548  -4.282  1.00  0.00    -0.259 OA
BRANCH  30  32
HETATM   32  O   UNL     1      42.336 -11.609  -4.093  1.00  0.00    -0.323 OA
HETATM   33  C   UNL     1      42.500 -10.193  -3.967  1.00  0.00     0.213 C 
ENDBRANCH  30  32
ENDBRANCH  28  30
ENDBRANCH  20  24
ENDBRANCH  16  19
BRANCH  16  34
HETATM   34  C   UNL     1      40.143 -12.572   3.456  1.00  0.00     0.253 C 
BRANCH  34  35
HETATM   35  N   UNL     1      40.635 -11.795   4.679  1.00  0.00    -0.078 N 
HETATM   36  H   UNL     1      41.524 -12.192   5.014  1.00  0.00     0.279 HD
HETATM   37  C   UNL     1      40.867 -10.314   4.500  1.00  0.00     0.269 C 
HETATM   38  C   UNL     1      39.685 -12.012   5.854  1.00  0.00     0.269 C 
ENDBRANCH  34  35
ENDBRANCH  16  34
ENDBRANCH   1  13
TORSDOF 7
ENDMDL
MODEL 9
REMARK VINA RESULT:      -7.3      3.924      7.823
REMARK  7 active torsions:
REMARK  status: ('A' for Active; 'I' for Inactive)
REMARK    1  A    between atoms: O_2  and  C_3 
REMARK    2  A    between atoms: C_3  and  C_5 
REMARK    3  A    between atoms: C_9  and  N_10 
REMARK       I    between atoms: N_10  and  C_13 
REMARK    4  A    between atoms: C_13  and  C_15 
REMARK    5  A    between atoms: C_15  and  C_16 
REMARK    6  A    between atoms: C_16  and  N_17 
REMARK    7  A    between atoms: N_23  and  C_26 
ROOT
HETATM    1  C   UNL     1      42.466 -16.697   4.595  1.00  0.00     0.142 A 
HETATM    2  N   UNL     1      42.065 -16.741   3.300  1.00  0.00    -0.224 NA
HETATM    3  C   UNL     1      42.401 -17.828   2.565  1.00  0.00     0.237 A 
HETATM    4  N   UNL     1      43.131 -18.888   2.940  1.00  0.00    -0.223 NA
HETATM    5  C   UNL     1      43.505 -18.807   4.222  1.00  0.00     0.144 A 
HETATM    6  N   UNL     1      44.238 -19.751   4.892  1.00  0.00    -0.348 N 
HETATM    7  H   UNL     1      44.576 -20.609   4.474  1.00  0.00     0.167 HD
HETATM    8  C   UNL     1      44.413 -19.358   6.200  1.00  0.00     0.113 A 
HETATM    9  C   UNL     1      43.771 -18.146   6.357  1.00  0.00     0.077 A 
HETATM   10  C   UNL     1      43.667 -17.381   7.560  1.00  0.00     0.102 C 
HETATM   11  N   UNL     1      43.524 -16.648   8.450  1.00  0.00    -0.191 NA
HETATM   12  C   UNL     1      43.215 -17.776   5.100  1.00  0.00     0.078 A 
ENDROOT
BRANCH   1  13
HETATM   13  N   UNL     1      42.105 -15.604   5.397  1.00  0.00    -0.365 N 
HETATM   14  C   UNL     1      42.818 -14.382   5.055  1.00  0.00     0.126 C 
HETATM   15  C   UNL     1      41.954 -13.489   4.180  1.00  0.00     0.041 C 
HETATM   16  C   UNL     1      40.550 -13.262   4.771  1.00  0.00     0.076 C 
HETATM   17  C   UNL     1      39.855 -14.602   5.091  1.00  0.00     0.041 C 
HETATM   18  C   UNL     1      40.720 -15.624   5.827  1.00  0.00     0.126 C 
BRANCH  16  19
HETATM   19  C   UNL     1      40.694 -12.388   6.051  1.00  0.00     0.330 C 
HETATM   20  N   UNL     1      41.693 -11.379   6.241  1.00  0.00     0.018 N 
HETATM   21  H   UNL     1      41.677 -10.729   5.445  1.00  0.00     0.294 HD
HETATM   22  H   UNL     1      42.619 -11.807   6.162  1.00  0.00     0.294 HD
HETATM   23  O   UNL     1      39.908 -12.495   6.981  1.00  0.00    -0.264 OA
BRANCH  20  24
HETATM   24  C   UNL     1      41.676 -10.588   7.466  1.00  0.00     0.142 A 
HETATM   25  C   UNL     1      40.790  -9.516   7.581  1.00  0.00     0.037 A 
HETATM   26  C   UNL     1      40.731  -8.799   8.775  1.00  0.00     0.003 A 
HETATM   27  C   UNL     1      41.549  -9.154   9.851  1.00  0.00     0.018 A 
HETATM   28  C   UNL     1      42.434 -10.233   9.734  1.00  0.00     0.041 A 
HETATM   29  C   UNL     1      42.496 -10.955   8.532  1.00  0.00     0.055 A 
BRANCH  28  30
HETATM   30  C   UNL     1      43.328 -10.660  10.842  1.00  0.00     0.293 C 
HETATM   31  O   UNL     1      43.667 -11.823  10.982  1.00  0.00    -0.259 OA
BRANCH  30  32
HETATM   32  O   UNL     1      43.653  -9.613  11.630  1.00  0.00    -0.323 OA
HETATM   33  C   UNL     1      43.392  -9.822  13.021  1.00  0.00     0.213 C 
ENDBRANCH  30  32
ENDBRANCH  28  30
ENDBRANCH  20  24
ENDBRANCH  16  19
BRANCH  16  34
HETATM   34  C   UNL     1      39.674 -12.403   3.781  1.00  0.00     0.253 C 
BRANCH  34  35
HETATM   35  N   UNL     1      39.823 -12.663   2.280  1.00  0.00    -0.078 N 
HETATM   36  H   UNL     1      40.727 -13.119   2.090  1.00  0.00     0.279 HD
HETATM   37  C   UNL     1      38.764 -13.517   1.626  1.00  0.00     0.269 C 
HETATM   38  C   UNL     1      39.930 -11.339   1.528  1.00  0.00     0.269 C 
ENDBRANCH  34  35
ENDBRANCH  16  34
ENDBRANCH   1  13
TORSDOF 7
ENDMDL
MODEL 10
REMARK VINA RESULT:      -7.2      2.088      3.002
REMARK  7 active torsions:
REMARK  status: ('A' for Active; 'I' for Inactive)
REMARK    1  A    between atoms: O_2  and  C_3 
REMARK    2  A    between atoms: C_3  and  C_5 
REMARK    3  A    between atoms: C_9  and  N_10 
REMARK       I    between atoms: N_10  and  C_13 
REMARK    4  A    between atoms: C_13  and  C_15 
REMARK    5  A    between atoms: C_15  and  C_16 
REMARK    6  A    between atoms: C_16  and  N_17 
REMARK    7  A    between atoms: N_23  and  C_26 
ROOT
HETATM    1  C   UNL     1      43.137 -17.569   4.954  1.00  0.00     0.142 A 
HETATM    2  N   UNL     1      43.077 -17.382   6.295  1.00  0.00    -0.224 NA
HETATM    3  C   UNL     1      43.696 -18.285   7.094  1.00  0.00     0.237 A 
HETATM    4  N   UNL     1      44.353 -19.397   6.732  1.00  0.00    -0.223 NA
HETATM    5  C   UNL     1      44.390 -19.544   5.403  1.00  0.00     0.144 A 
HETATM    6  N   UNL     1      45.010 -20.570   4.739  1.00  0.00    -0.348 N 
HETATM    7  H   UNL     1      45.500 -21.328   5.197  1.00  0.00     0.167 HD
HETATM    8  C   UNL     1      44.877 -20.388   3.381  1.00  0.00     0.113 A 
HETATM    9  C   UNL     1      44.165 -19.221   3.187  1.00  0.00     0.077 A 
HETATM   10  C   UNL     1      43.819 -18.627   1.934  1.00  0.00     0.102 C 
HETATM   11  N   UNL     1      43.449 -18.048   0.997  1.00  0.00    -0.191 NA
HETATM   12  C   UNL     1      43.829 -18.694   4.465  1.00  0.00     0.078 A 
ENDROOT
BRANCH   1  13
HETATM   13  N   UNL     1      42.539 -16.635   4.095  1.00  0.00    -0.365 N 
HETATM   14  C   UNL     1      41.087 -16.738   4.057  1.00  0.00     0.126 C 
HETATM   15  C   UNL     1      40.456 -15.688   4.956  1.00  0.00     0.041 C 
HETATM   16  C   UNL     1      41.001 -14.273   4.686  1.00  0.00     0.076 C 
HETATM   17  C   UNL     1      42.541 -14.243   4.760  1.00  0.00     0.041 C 
HETATM   18  C   UNL     1      43.250 -15.373   4.014  1.00  0.00     0.126 C 
BRANCH  16  19
HETATM   19  C   UNL     1      40.500 -13.816   3.285  1.00  0.00     0.330 C 
HETATM   20  N   UNL     1      39.386 -14.390   2.590  1.00  0.00     0.018 N 
HETATM   21  H   UNL     1      38.564 -14.391   3.207  1.00  0.00     0.294 HD
HETATM   22  H   UNL     1      39.561 -15.388   2.446  1.00  0.00     0.294 HD
HETATM   23  O   UNL     1      41.027 -12.882   2.700  1.00  0.00    -0.264 OA
BRANCH  20  24
HETATM   24  C   UNL     1      38.984 -13.824   1.308  1.00  0.00     0.142 A 
HETATM   25  C   UNL     1      39.615 -14.252   0.139  1.00  0.00     0.037 A 
HETATM   26  C   UNL     1      39.188 -13.756  -1.093  1.00  0.00     0.003 A 
HETATM   27  C   UNL     1      38.133 -12.841  -1.155  1.00  0.00     0.018 A 
HETATM   28  C   UNL     1      37.500 -12.416   0.019  1.00  0.00     0.041 A 
HETATM   29  C   UNL     1      37.930 -12.914   1.260  1.00  0.00     0.055 A 
BRANCH  28  30
HETATM   30  C   UNL     1      36.374 -11.446   0.017  1.00  0.00     0.293 C 
HETATM   31  O   UNL     1      35.833 -11.093  -1.018  1.00  0.00    -0.259 OA
BRANCH  30  32
HETATM   32  O   UNL     1      36.094 -11.029   1.270  1.00  0.00    -0.323 OA
HETATM   33  C   UNL     1      34.921 -10.216   1.368  1.00  0.00     0.213 C 
ENDBRANCH  30  32
ENDBRANCH  28  30
ENDBRANCH  20  24
ENDBRANCH  16  19
BRANCH  16  34
HETATM   34  C   UNL     1      40.375 -13.245   5.704  1.00  0.00     0.253 C 
BRANCH  34  35
HETATM   35  N   UNL     1      40.745 -11.768   5.553  1.00  0.00    -0.078 N 
HETATM   36  H   UNL     1      41.424 -11.653   4.788  1.00  0.00     0.279 HD
HETATM   37  C   UNL     1      39.616 -10.805   5.275  1.00  0.00     0.269 C 
HETATM   38  C   UNL     1      41.514 -11.292   6.783  1.00  0.00     0.269 C 
ENDBRANCH  34  35
ENDBRANCH  16  34
ENDBRANCH   1  13
TORSDOF 7
ENDMDL
