MODEL 1
REMARK VINA RESULT:      -8.0      0.000      0.000
REMARK  6 active torsions:
REMARK  status: ('A' for Active; 'I' for Inactive)
REMARK    1  A    between atoms: C_2  and  N_3 
REMARK    2  A    between atoms: C_4  and  C_20 
REMARK    3  A    between atoms: C_10  and  C_11 
REMARK    4  A    between atoms: C_14  and  C_15 
REMARK    5  A    between atoms: C_15  and  N_16 
REMARK    6  A    between atoms: C_24  and  N_25 
ROOT
HETATM    1  N   UNL     1      43.419 -18.432   3.577  1.00  0.00    -0.327 N 
HETATM    2  C   UNL     1      44.161 -19.523   4.003  1.00  0.00     0.166 A 
HETATM    3  N   UNL     1      44.731 -19.268   5.167  1.00  0.00    -0.225 NA
HETATM    4  C   UNL     1      44.350 -18.000   5.511  1.00  0.00     0.104 A 
HETATM    5  C   UNL     1      44.667 -17.276   6.666  1.00  0.00     0.150 A 
HETATM    6  N   UNL     1      44.205 -16.018   6.840  1.00  0.00    -0.270 NA
HETATM    7  C   UNL     1      43.442 -15.480   5.861  1.00  0.00     0.131 A 
HETATM    8  C   UNL     1      43.065 -16.105   4.663  1.00  0.00     0.021 A 
HETATM    9  C   UNL     1      43.546 -17.424   4.523  1.00  0.00     0.079 A 
ENDROOT
BRANCH   8  10
HETATM   10  C   UNL     1      42.270 -15.386   3.676  1.00  0.00    -0.022 A 
HETATM   11  C   UNL     1      40.884 -15.591   3.587  1.00  0.00     0.013 A 
HETATM   12  C   UNL     1      40.124 -14.944   2.609  1.00  0.00     0.010 A 
HETATM   13  C   UNL     1      40.730 -14.081   1.686  1.00  0.00    -0.031 A 
HETATM   14  C   UNL     1      42.118 -13.897   1.758  1.00  0.00     0.010 A 
HETATM   15  C   UNL     1      42.877 -14.534   2.744  1.00  0.00     0.013 A 
BRANCH  13  16
HETATM   16  C   UNL     1      39.903 -13.455   0.588  1.00  0.00     0.305 C 
BRANCH  16  17
HETATM   17  N   UNL     1      39.139 -14.434  -0.180  1.00  0.00     0.082 N 
HETATM   18  H   UNL     1      38.220 -14.045  -0.384  1.00  0.00     0.313 HD
HETATM   19  H   UNL     1      38.981 -15.257   0.397  1.00  0.00     0.313 HD
ENDBRANCH  16  17
ENDBRANCH  13  16
ENDBRANCH   8  10
BRANCH   1  20
HETATM   20  C   UNL     1      42.610 -18.383   2.373  1.00  0.00     0.126 C 
HETATM   21  C   UNL     1      43.357 -17.788   1.192  1.00  0.00     0.027 C 
ENDBRANCH   1  20
BRANCH   2  22
HETATM   22  C   UNL     1      44.349 -20.845   3.313  1.00  0.00     0.179 A 
HETATM   23  N   UNL     1      44.216 -21.044   2.000  1.00  0.00    -0.097 NA
HETATM   24  O   UNL     1      44.508 -22.391   1.809  1.00  0.00    -0.104 OA
HETATM   25  N   UNL     1      44.822 -23.017   3.009  1.00  0.00    -0.085 NA
HETATM   26  C   UNL     1      44.711 -22.068   3.936  1.00  0.00     0.186 A 
BRANCH  26  27
HETATM   27  N   UNL     1      44.921 -22.253   5.254  1.00  0.00    -0.380 N 
HETATM   28  H   UNL     1      44.524 -23.055   5.726  1.00  0.00     0.158 HD
HETATM   29  H   UNL     1      45.744 -21.841   5.692  1.00  0.00     0.158 HD
ENDBRANCH  26  27
ENDBRANCH   2  22
TORSDOF 6
ENDMDL
MODEL 2
REMARK VINA RESULT:      -7.7      1.764      2.101
REMARK  6 active torsions:
REMARK  status: ('A' for Active; 'I' for Inactive)
REMARK    1  A    between atoms: C_2  and  N_3 
REMARK    2  A    between atoms: C_4  and  C_20 
REMARK    3  A    between atoms: C_10  and  C_11 
REMARK    4  A    between atoms: C_14  and  C_15 
REMARK    5  A    between atoms: C_15  and  N_16 
REMARK    6  A    between atoms: C_24  and  N_25 
ROOT
HETATM    1  N   UNL     1      43.411 -18.574   4.379  1.00  0.00    -0.327 N 
HETATM    2  C   UNL     1      43.956 -19.844   4.477  1.00  0.00     0.166 A 
HETATM    3  N   UNL     1      44.292 -20.109   5.727  1.00  0.00    -0.225 NA
HETATM    4  C   UNL     1      43.953 -19.003   6.457  1.00  0.00     0.104 A 
HETATM    5  C   UNL     1      44.081 -18.793   7.834  1.00  0.00     0.150 A 
HETATM    6  N   UNL     1      43.698 -17.623   8.393  1.00  0.00    -0.270 NA
HETATM    7  C   UNL     1      43.200 -16.663   7.580  1.00  0.00     0.131 A 
HETATM    8  C   UNL     1      43.030 -16.758   6.190  1.00  0.00     0.021 A 
HETATM    9  C   UNL     1      43.420 -17.998   5.643  1.00  0.00     0.079 A 
ENDROOT
BRANCH   8  10
HETATM   10  C   UNL     1      42.518 -15.624   5.433  1.00  0.00    -0.022 A 
HETATM   11  C   UNL     1      43.386 -14.627   4.962  1.00  0.00     0.013 A 
HETATM   12  C   UNL     1      42.894 -13.510   4.280  1.00  0.00     0.010 A 
HETATM   13  C   UNL     1      41.519 -13.355   4.058  1.00  0.00    -0.031 A 
HETATM   14  C   UNL     1      40.650 -14.337   4.552  1.00  0.00     0.010 A 
HETATM   15  C   UNL     1      41.142 -15.461   5.223  1.00  0.00     0.013 A 
BRANCH  13  16
HETATM   16  C   UNL     1      41.004 -12.102   3.389  1.00  0.00     0.305 C 
BRANCH  16  17
HETATM   17  N   UNL     1      41.796 -11.707   2.229  1.00  0.00     0.082 N 
HETATM   18  H   UNL     1      42.520 -12.407   2.072  1.00  0.00     0.313 HD
HETATM   19  H   UNL     1      42.279 -10.836   2.439  1.00  0.00     0.313 HD
ENDBRANCH  16  17
ENDBRANCH  13  16
ENDBRANCH   8  10
BRANCH   1  20
HETATM   20  C   UNL     1      42.874 -17.978   3.169  1.00  0.00     0.126 C 
HETATM   21  C   UNL     1      43.915 -17.181   2.402  1.00  0.00     0.027 C 
ENDBRANCH   1  20
BRANCH   2  22
HETATM   22  C   UNL     1      44.175 -20.848   3.380  1.00  0.00     0.179 A 
HETATM   23  N   UNL     1      43.988 -20.608   2.080  1.00  0.00    -0.097 NA
HETATM   24  O   UNL     1      44.335 -21.794   1.442  1.00  0.00    -0.104 OA
HETATM   25  N   UNL     1      44.737 -22.762   2.353  1.00  0.00    -0.085 NA
HETATM   26  C   UNL     1      44.625 -22.184   3.546  1.00  0.00     0.186 A 
BRANCH  26  27
HETATM   27  N   UNL     1      44.907 -22.782   4.721  1.00  0.00    -0.380 N 
HETATM   28  H   UNL     1      44.160 -23.071   5.339  1.00  0.00     0.158 HD
HETATM   29  H   UNL     1      45.791 -23.279   4.830  1.00  0.00     0.158 HD
ENDBRANCH  26  27
ENDBRANCH   2  22
TORSDOF 6
ENDMDL
MODEL 3
REMARK VINA RESULT:      -7.3      1.551      2.135
REMARK  6 active torsions:
REMARK  status: ('A' for Active; 'I' for Inactive)
REMARK    1  A    between atoms: C_2  and  N_3 
REMARK    2  A    between atoms: C_4  and  C_20 
REMARK    3  A    between atoms: C_10  and  C_11 
REMARK    4  A    between atoms: C_14  and  C_15 
REMARK    5  A    between atoms: C_15  and  N_16 
REMARK    6  A    between atoms: C_24  and  N_25 
ROOT
HETATM    1  N   UNL     1      43.193 -17.488   4.677  1.00  0.00    -0.327 N 
HETATM    2  C   UNL     1      44.017 -18.243   5.497  1.00  0.00     0.166 A 
HETATM    3  N   UNL     1      44.574 -17.481   6.421  1.00  0.00    -0.225 NA
HETATM    4  C   UNL     1      44.102 -16.214   6.209  1.00  0.00     0.104 A 
HETATM    5  C   UNL     1      44.372 -15.050   6.936  1.00  0.00     0.150 A 
HETATM    6  N   UNL     1      43.818 -13.869   6.577  1.00  0.00    -0.270 NA
HETATM    7  C   UNL     1      43.011 -13.850   5.492  1.00  0.00     0.131 A 
HETATM    8  C   UNL     1      42.674 -14.948   4.687  1.00  0.00     0.021 A 
HETATM    9  C   UNL     1      43.251 -16.167   5.101  1.00  0.00     0.079 A 
ENDROOT
BRANCH   8  10
HETATM   10  C   UNL     1      41.820 -14.771   3.520  1.00  0.00    -0.022 A 
HETATM   11  C   UNL     1      42.364 -14.366   2.291  1.00  0.00     0.013 A 
HETATM   12  C   UNL     1      41.543 -14.144   1.181  1.00  0.00     0.010 A 
HETATM   13  C   UNL     1      40.155 -14.311   1.272  1.00  0.00    -0.031 A 
HETATM   14  C   UNL     1      39.609 -14.689   2.507  1.00  0.00     0.010 A 
HETATM   15  C   UNL     1      40.431 -14.924   3.614  1.00  0.00     0.013 A 
BRANCH  13  16
HETATM   16  C   UNL     1      39.280 -13.988   0.084  1.00  0.00     0.305 C 
BRANCH  16  17
HETATM   17  N   UNL     1      39.625 -14.762  -1.105  1.00  0.00     0.082 N 
HETATM   18  H   UNL     1      40.600 -14.585  -1.340  1.00  0.00     0.313 HD
HETATM   19  H   UNL     1      39.074 -14.423  -1.891  1.00  0.00     0.313 HD
ENDBRANCH  16  17
ENDBRANCH  13  16
ENDBRANCH   8  10
BRANCH   1  20
HETATM   20  C   UNL     1      42.374 -18.008   3.597  1.00  0.00     0.126 C 
HETATM   21  C   UNL     1      43.103 -18.014   2.265  1.00  0.00     0.027 C 
ENDBRANCH   1  20
BRANCH   2  22
HETATM   22  C   UNL     1      44.299 -19.717   5.426  1.00  0.00     0.179 A 
HETATM   23  N   UNL     1      44.852 -20.338   4.380  1.00  0.00    -0.097 NA
HETATM   24  O   UNL     1      44.949 -21.671   4.763  1.00  0.00    -0.104 OA
HETATM   25  N   UNL     1      44.456 -21.868   6.047  1.00  0.00    -0.085 NA
HETATM   26  C   UNL     1      44.043 -20.668   6.448  1.00  0.00     0.186 A 
BRANCH  26  27
HETATM   27  N   UNL     1      43.481 -20.409   7.646  1.00  0.00    -0.380 N 
HETATM   28  H   UNL     1      42.552 -20.751   7.858  1.00  0.00     0.158 HD
HETATM   29  H   UNL     1      44.079 -20.219   8.449  1.00  0.00     0.158 HD
ENDBRANCH  26  27
ENDBRANCH   2  22
TORSDOF 6
ENDMDL
MODEL 4
REMARK VINA RESULT:      -7.3      2.570      6.672
REMARK  6 active torsions:
REMARK  status: ('A' for Active; 'I' for Inactive)
REMARK    1  A    between atoms: C_2  and  N_3 
REMARK    2  A    between atoms: C_4  and  C_20 
REMARK    3  A    between atoms: C_10  and  C_11 
REMARK    4  A    between atoms: C_14  and  C_15 
REMARK    5  A    between atoms: C_15  and  N_16 
REMARK    6  A    between atoms: C_24  and  N_25 
ROOT
HETATM    1  N   UNL     1      42.043 -16.284   3.758  1.00  0.00    -0.327 N 
HETATM    2  C   UNL     1      41.387 -15.112   3.414  1.00  0.00     0.166 A 
HETATM    3  N   UNL     1      41.740 -14.130   4.223  1.00  0.00    -0.225 NA
HETATM    4  C   UNL     1      42.645 -14.662   5.101  1.00  0.00     0.104 A 
HETATM    5  C   UNL     1      43.335 -14.025   6.137  1.00  0.00     0.150 A 
HETATM    6  N   UNL     1      44.196 -14.714   6.919  1.00  0.00    -0.270 NA
HETATM    7  C   UNL     1      44.358 -16.035   6.676  1.00  0.00     0.131 A 
HETATM    8  C   UNL     1      43.719 -16.779   5.672  1.00  0.00     0.021 A 
HETATM    9  C   UNL     1      42.844 -16.026   4.862  1.00  0.00     0.079 A 
ENDROOT
BRANCH   8  10
HETATM   10  C   UNL     1      43.961 -18.211   5.552  1.00  0.00    -0.022 A 
HETATM   11  C   UNL     1      43.524 -19.096   6.549  1.00  0.00     0.013 A 
HETATM   12  C   UNL     1      43.798 -20.464   6.465  1.00  0.00     0.010 A 
HETATM   13  C   UNL     1      44.525 -20.983   5.385  1.00  0.00    -0.031 A 
HETATM   14  C   UNL     1      44.984 -20.095   4.402  1.00  0.00     0.010 A 
HETATM   15  C   UNL     1      44.699 -18.729   4.480  1.00  0.00     0.013 A 
BRANCH  13  16
HETATM   16  C   UNL     1      44.878 -22.452   5.355  1.00  0.00     0.305 C 
BRANCH  16  17
HETATM   17  N   UNL     1      44.748 -23.043   4.027  1.00  0.00     0.082 N 
HETATM   18  H   UNL     1      43.758 -23.116   3.796  1.00  0.00     0.313 HD
HETATM   19  H   UNL     1      45.108 -23.995   4.051  1.00  0.00     0.313 HD
ENDBRANCH  16  17
ENDBRANCH  13  16
ENDBRANCH   8  10
BRANCH   1  20
HETATM   20  C   UNL     1      41.944 -17.545   3.045  1.00  0.00     0.126 C 
HETATM   21  C   UNL     1      42.719 -17.538   1.739  1.00  0.00     0.027 C 
ENDBRANCH   1  20
BRANCH   2  22
HETATM   22  C   UNL     1      40.401 -14.892   2.301  1.00  0.00     0.179 A 
HETATM   23  N   UNL     1      39.085 -15.096   2.398  1.00  0.00    -0.097 NA
HETATM   24  O   UNL     1      38.574 -14.741   1.154  1.00  0.00    -0.104 OA
HETATM   25  N   UNL     1      39.578 -14.317   0.295  1.00  0.00    -0.085 NA
HETATM   26  C   UNL     1      40.704 -14.423   0.996  1.00  0.00     0.186 A 
BRANCH  26  27
HETATM   27  N   UNL     1      41.933 -14.121   0.531  1.00  0.00    -0.380 N 
HETATM   28  H   UNL     1      42.564 -14.857   0.242  1.00  0.00     0.158 HD
HETATM   29  H   UNL     1      42.099 -13.204   0.117  1.00  0.00     0.158 HD
ENDBRANCH  26  27
ENDBRANCH   2  22
TORSDOF 6
ENDMDL
MODEL 5
REMARK VINA RESULT:      -7.1      3.010      7.125
REMARK  6 active torsions:
REMARK  status: ('A' for Active; 'I' for Inactive)
REMARK    1  A    between atoms: C_2  and  N_3 
REMARK    2  A    between atoms: C_4  and  C_20 
REMARK    3  A    between atoms: C_10  and  C_11 
REMARK    4  A    between atoms: C_14  and  C_15 
REMARK    5  A    between atoms: C_15  and  N_16 
REMARK    6  A    between atoms: C_24  and  N_25 
ROOT
HETATM    1  N   UNL     1      41.415 -15.219   1.157  1.00  0.00    -0.327 N 
HETATM    2  C   UNL     1      40.653 -14.147   0.717  1.00  0.00     0.166 A 
HETATM    3  N   UNL     1      40.839 -13.097   1.495  1.00  0.00    -0.225 NA
HETATM    4  C   UNL     1      41.741 -13.481   2.450  1.00  0.00     0.104 A 
HETATM    5  C   UNL     1      42.286 -12.724   3.492  1.00  0.00     0.150 A 
HETATM    6  N   UNL     1      43.168 -13.273   4.356  1.00  0.00    -0.270 NA
HETATM    7  C   UNL     1      43.495 -14.575   4.189  1.00  0.00     0.131 A 
HETATM    8  C   UNL     1      43.011 -15.431   3.188  1.00  0.00     0.021 A 
HETATM    9  C   UNL     1      42.109 -14.821   2.292  1.00  0.00     0.079 A 
ENDROOT
BRANCH   8  10
HETATM   10  C   UNL     1      43.422 -16.829   3.154  1.00  0.00    -0.022 A 
HETATM   11  C   UNL     1      44.062 -17.359   2.024  1.00  0.00     0.013 A 
HETATM   12  C   UNL     1      44.412 -18.711   1.964  1.00  0.00     0.010 A 
HETATM   13  C   UNL     1      44.122 -19.573   3.030  1.00  0.00    -0.031 A 
HETATM   14  C   UNL     1      43.457 -19.049   4.148  1.00  0.00     0.010 A 
HETATM   15  C   UNL     1      43.119 -17.694   4.213  1.00  0.00     0.013 A 
BRANCH  13  16
HETATM   16  C   UNL     1      44.436 -21.045   2.912  1.00  0.00     0.305 C 
BRANCH  16  17
HETATM   17  N   UNL     1      44.018 -21.618   1.635  1.00  0.00     0.082 N 
HETATM   18  H   UNL     1      44.813 -22.096   1.215  1.00  0.00     0.313 HD
HETATM   19  H   UNL     1      43.767 -20.863   1.001  1.00  0.00     0.313 HD
ENDBRANCH  16  17
ENDBRANCH  13  16
ENDBRANCH   8  10
BRANCH   1  20
HETATM   20  C   UNL     1      41.507 -16.512   0.503  1.00  0.00     0.126 C 
HETATM   21  C   UNL     1      40.610 -17.554   1.149  1.00  0.00     0.027 C 
ENDBRANCH   1  20
BRANCH   2  22
HETATM   22  C   UNL     1      39.722 -14.092  -0.461  1.00  0.00     0.179 A 
HETATM   23  N   UNL     1      40.097 -14.219  -1.736  1.00  0.00    -0.097 NA
HETATM   24  O   UNL     1      38.918 -14.135  -2.469  1.00  0.00    -0.104 OA
HETATM   25  N   UNL     1      37.818 -13.957  -1.641  1.00  0.00    -0.085 NA
HETATM   26  C   UNL     1      38.314 -13.917  -0.406  1.00  0.00     0.186 A 
BRANCH  26  27
HETATM   27  N   UNL     1      37.582 -13.746   0.712  1.00  0.00    -0.380 N 
HETATM   28  H   UNL     1      36.903 -12.997   0.768  1.00  0.00     0.158 HD
HETATM   29  H   UNL     1      37.420 -14.540   1.331  1.00  0.00     0.158 HD
ENDBRANCH  26  27
ENDBRANCH   2  22
TORSDOF 6
ENDMDL
MODEL 6
REMARK VINA RESULT:      -6.9      3.794      7.469
REMARK  6 active torsions:
REMARK  status: ('A' for Active; 'I' for Inactive)
REMARK    1  A    between atoms: C_2  and  N_3 
REMARK    2  A    between atoms: C_4  and  C_20 
REMARK    3  A    between atoms: C_10  and  C_11 
REMARK    4  A    between atoms: C_14  and  C_15 
REMARK    5  A    between atoms: C_15  and  N_16 
REMARK    6  A    between atoms: C_24  and  N_25 
ROOT
HETATM    1  N   UNL     1      43.388 -14.213   6.169  1.00  0.00    -0.327 N 
HETATM    2  C   UNL     1      43.355 -13.055   6.931  1.00  0.00     0.166 A 
HETATM    3  N   UNL     1      42.415 -12.239   6.492  1.00  0.00    -0.225 NA
HETATM    4  C   UNL     1      41.818 -12.874   5.437  1.00  0.00     0.104 A 
HETATM    5  C   UNL     1      40.748 -12.438   4.648  1.00  0.00     0.150 A 
HETATM    6  N   UNL     1      40.286 -13.200   3.630  1.00  0.00    -0.270 NA
HETATM    7  C   UNL     1      40.897 -14.384   3.395  1.00  0.00     0.131 A 
HETATM    8  C   UNL     1      41.976 -14.919   4.113  1.00  0.00     0.021 A 
HETATM    9  C   UNL     1      42.420 -14.110   5.180  1.00  0.00     0.079 A 
ENDROOT
BRANCH   8  10
HETATM   10  C   UNL     1      42.562 -16.194   3.720  1.00  0.00    -0.022 A 
HETATM   11  C   UNL     1      43.478 -16.263   2.659  1.00  0.00     0.013 A 
HETATM   12  C   UNL     1      44.003 -17.490   2.242  1.00  0.00     0.010 A 
HETATM   13  C   UNL     1      43.620 -18.683   2.870  1.00  0.00    -0.031 A 
HETATM   14  C   UNL     1      42.685 -18.617   3.912  1.00  0.00     0.010 A 
HETATM   15  C   UNL     1      42.168 -17.389   4.337  1.00  0.00     0.013 A 
BRANCH  13  16
HETATM   16  C   UNL     1      44.139 -20.004   2.352  1.00  0.00     0.305 C 
BRANCH  16  17
HETATM   17  N   UNL     1      44.718 -20.839   3.400  1.00  0.00     0.082 N 
HETATM   18  H   UNL     1      45.208 -21.619   2.963  1.00  0.00     0.313 HD
HETATM   19  H   UNL     1      43.966 -21.245   3.952  1.00  0.00     0.313 HD
ENDBRANCH  16  17
ENDBRANCH  13  16
ENDBRANCH   8  10
BRANCH   1  20
HETATM   20  C   UNL     1      44.253 -15.355   6.408  1.00  0.00     0.126 C 
HETATM   21  C   UNL     1      43.682 -16.313   7.438  1.00  0.00     0.027 C 
ENDBRANCH   1  20
BRANCH   2  22
HETATM   22  C   UNL     1      44.222 -12.691   8.103  1.00  0.00     0.179 A 
HETATM   23  N   UNL     1      45.458 -13.151   8.309  1.00  0.00    -0.097 NA
HETATM   24  O   UNL     1      45.882 -12.533   9.481  1.00  0.00    -0.104 OA
HETATM   25  N   UNL     1      44.903 -11.691   9.993  1.00  0.00    -0.085 NA
HETATM   26  C   UNL     1      43.876 -11.800   9.153  1.00  0.00     0.186 A 
BRANCH  26  27
HETATM   27  N   UNL     1      42.702 -11.151   9.285  1.00  0.00    -0.380 N 
HETATM   28  H   UNL     1      42.278 -11.045  10.197  1.00  0.00     0.158 HD
HETATM   29  H   UNL     1      42.430 -10.462   8.585  1.00  0.00     0.158 HD
ENDBRANCH  26  27
ENDBRANCH   2  22
TORSDOF 6
ENDMDL
MODEL 7
REMARK VINA RESULT:      -6.9      3.335      7.070
REMARK  6 active torsions:
REMARK  status: ('A' for Active; 'I' for Inactive)
REMARK    1  A    between atoms: C_2  and  N_3 
REMARK    2  A    between atoms: C_4  and  C_20 
REMARK    3  A    between atoms: C_10  and  C_11 
REMARK    4  A    between atoms: C_14  and  C_15 
REMARK    5  A    between atoms: C_15  and  N_16 
REMARK    6  A    between atoms: C_24  and  N_25 
ROOT
HETATM    1  N   UNL     1      41.370 -15.087   1.142  1.00  0.00    -0.327 N 
HETATM    2  C   UNL     1      40.864 -14.397   0.051  1.00  0.00     0.166 A 
HETATM    3  N   UNL     1      40.071 -13.419   0.449  1.00  0.00    -0.225 NA
HETATM    4  C   UNL     1      40.066 -13.462   1.817  1.00  0.00     0.104 A 
HETATM    5  C   UNL     1      39.400 -12.620   2.714  1.00  0.00     0.150 A 
HETATM    6  N   UNL     1      39.502 -12.815   4.048  1.00  0.00    -0.270 NA
HETATM    7  C   UNL     1      40.254 -13.852   4.483  1.00  0.00     0.131 A 
HETATM    8  C   UNL     1      40.960 -14.761   3.681  1.00  0.00     0.021 A 
HETATM    9  C   UNL     1      40.849 -14.517   2.296  1.00  0.00     0.079 A 
ENDROOT
BRANCH   8  10
HETATM   10  C   UNL     1      41.699 -15.859   4.289  1.00  0.00    -0.022 A 
HETATM   11  C   UNL     1      41.090 -17.107   4.489  1.00  0.00     0.013 A 
HETATM   12  C   UNL     1      41.777 -18.149   5.119  1.00  0.00     0.010 A 
HETATM   13  C   UNL     1      43.090 -17.968   5.575  1.00  0.00    -0.031 A 
HETATM   14  C   UNL     1      43.689 -16.713   5.399  1.00  0.00     0.010 A 
HETATM   15  C   UNL     1      43.006 -15.675   4.758  1.00  0.00     0.013 A 
BRANCH  13  16
HETATM   16  C   UNL     1      43.785 -19.081   6.324  1.00  0.00     0.305 C 
BRANCH  16  17
HETATM   17  N   UNL     1      43.604 -18.996   7.770  1.00  0.00     0.082 N 
HETATM   18  H   UNL     1      42.822 -19.591   8.038  1.00  0.00     0.313 HD
HETATM   19  H   UNL     1      43.338 -18.044   8.014  1.00  0.00     0.313 HD
ENDBRANCH  16  17
ENDBRANCH  13  16
ENDBRANCH   8  10
BRANCH   1  20
HETATM   20  C   UNL     1      42.324 -16.180   1.079  1.00  0.00     0.126 C 
HETATM   21  C   UNL     1      41.648 -17.539   1.022  1.00  0.00     0.027 C 
ENDBRANCH   1  20
BRANCH   2  22
HETATM   22  C   UNL     1      41.121 -14.651  -1.408  1.00  0.00     0.179 A 
HETATM   23  N   UNL     1      40.869 -15.801  -2.038  1.00  0.00    -0.097 NA
HETATM   24  O   UNL     1      41.229 -15.572  -3.361  1.00  0.00    -0.104 OA
HETATM   25  N   UNL     1      41.702 -14.279  -3.543  1.00  0.00    -0.085 NA
HETATM   26  C   UNL     1      41.648 -13.717  -2.338  1.00  0.00     0.186 A 
BRANCH  26  27
HETATM   27  N   UNL     1      42.029 -12.454  -2.061  1.00  0.00    -0.380 N 
HETATM   28  H   UNL     1      42.883 -12.080  -2.455  1.00  0.00     0.158 HD
HETATM   29  H   UNL     1      41.326 -11.767  -1.791  1.00  0.00     0.158 HD
ENDBRANCH  26  27
ENDBRANCH   2  22
TORSDOF 6
ENDMDL
MODEL 8
REMARK VINA RESULT:      -6.9      4.280      8.202
REMARK  6 active torsions:
REMARK  status: ('A' for Active; 'I' for Inactive)
REMARK    1  A    between atoms: C_2  and  N_3 
REMARK    2  A    between atoms: C_4  and  C_20 
REMARK    3  A    between atoms: C_10  and  C_11 
REMARK    4  A    between atoms: C_14  and  C_15 
REMARK    5  A    between atoms: C_15  and  N_16 
REMARK    6  A    between atoms: C_24  and  N_25 
ROOT
HETATM    1  N   UNL     1      41.340 -13.681   4.704  1.00  0.00    -0.327 N 
HETATM    2  C   UNL     1      40.820 -12.396   4.731  1.00  0.00     0.166 A 
HETATM    3  N   UNL     1      39.895 -12.251   3.799  1.00  0.00    -0.225 NA
HETATM    4  C   UNL     1      39.801 -13.458   3.162  1.00  0.00     0.104 A 
HETATM    5  C   UNL     1      38.948 -13.829   2.117  1.00  0.00     0.150 A 
HETATM    6  N   UNL     1      38.996 -15.076   1.597  1.00  0.00    -0.270 NA
HETATM    7  C   UNL     1      39.899 -15.944   2.108  1.00  0.00     0.131 A 
HETATM    8  C   UNL     1      40.805 -15.683   3.147  1.00  0.00     0.021 A 
HETATM    9  C   UNL     1      40.715 -14.381   3.681  1.00  0.00     0.079 A 
ENDROOT
BRANCH   8  10
HETATM   10  C   UNL     1      41.754 -16.706   3.570  1.00  0.00    -0.022 A 
HETATM   11  C   UNL     1      41.504 -17.487   4.709  1.00  0.00     0.013 A 
HETATM   12  C   UNL     1      42.434 -18.433   5.149  1.00  0.00     0.010 A 
HETATM   13  C   UNL     1      43.644 -18.618   4.468  1.00  0.00    -0.031 A 
HETATM   14  C   UNL     1      43.906 -17.819   3.346  1.00  0.00     0.010 A 
HETATM   15  C   UNL     1      42.970 -16.881   2.898  1.00  0.00     0.013 A 
BRANCH  13  16
HETATM   16  C   UNL     1      44.668 -19.588   5.007  1.00  0.00     0.305 C 
BRANCH  16  17
HETATM   17  N   UNL     1      45.028 -20.629   4.049  1.00  0.00     0.082 N 
HETATM   18  H   UNL     1      44.740 -21.532   4.423  1.00  0.00     0.313 HD
HETATM   19  H   UNL     1      46.042 -20.664   3.964  1.00  0.00     0.313 HD
ENDBRANCH  16  17
ENDBRANCH  13  16
ENDBRANCH   8  10
BRANCH   1  20
HETATM   20  C   UNL     1      42.327 -14.209   5.628  1.00  0.00     0.126 C 
HETATM   21  C   UNL     1      43.751 -13.975   5.154  1.00  0.00     0.027 C 
ENDBRANCH   1  20
BRANCH   2  22
HETATM   22  C   UNL     1      41.190 -11.264   5.648  1.00  0.00     0.179 A 
HETATM   23  N   UNL     1      41.335 -11.371   6.970  1.00  0.00    -0.097 NA
HETATM   24  O   UNL     1      41.705 -10.099   7.396  1.00  0.00    -0.104 OA
HETATM   25  N   UNL     1      41.788  -9.212   6.331  1.00  0.00    -0.085 NA
HETATM   26  C   UNL     1      41.458  -9.925   5.257  1.00  0.00     0.186 A 
BRANCH  26  27
HETATM   27  N   UNL     1      41.400  -9.442   4.000  1.00  0.00    -0.380 N 
HETATM   28  H   UNL     1      41.142 -10.049   3.232  1.00  0.00     0.158 HD
HETATM   29  H   UNL     1      41.240  -8.446   3.853  1.00  0.00     0.158 HD
ENDBRANCH  26  27
ENDBRANCH   2  22
TORSDOF 6
ENDMDL
MODEL 9
REMARK VINA RESULT:      -6.9      2.055      2.928
REMARK  6 active torsions:
REMARK  status: ('A' for Active; 'I' for Inactive)
REMARK    1  A    between atoms: C_2  and  N_3 
REMARK    2  A    between atoms: C_4  and  C_20 
REMARK    3  A    between atoms: C_10  and  C_11 
REMARK    4  A    between atoms: C_14  and  C_15 
REMARK    5  A    between atoms: C_15  and  N_16 
REMARK    6  A    between atoms: C_24  and  N_25 
ROOT
HETATM    1  N   UNL     1      42.369 -17.211   3.025  1.00  0.00    -0.327 N 
HETATM    2  C   UNL     1      42.722 -18.054   4.067  1.00  0.00     0.166 A 
HETATM    3  N   UNL     1      42.173 -17.648   5.197  1.00  0.00    -0.225 NA
HETATM    4  C   UNL     1      41.444 -16.531   4.890  1.00  0.00     0.104 A 
HETATM    5  C   UNL     1      40.656 -15.743   5.735  1.00  0.00     0.150 A 
HETATM    6  N   UNL     1      40.004 -14.659   5.258  1.00  0.00    -0.270 NA
HETATM    7  C   UNL     1      40.149 -14.356   3.947  1.00  0.00     0.131 A 
HETATM    8  C   UNL     1      40.914 -15.066   3.010  1.00  0.00     0.021 A 
HETATM    9  C   UNL     1      41.563 -16.202   3.535  1.00  0.00     0.079 A 
ENDROOT
BRANCH   8  10
HETATM   10  C   UNL     1      41.011 -14.598   1.634  1.00  0.00    -0.022 A 
HETATM   11  C   UNL     1      40.206 -15.156   0.629  1.00  0.00     0.013 A 
HETATM   12  C   UNL     1      40.331 -14.748  -0.702  1.00  0.00     0.010 A 
HETATM   13  C   UNL     1      41.273 -13.776  -1.067  1.00  0.00    -0.031 A 
HETATM   14  C   UNL     1      42.096 -13.238  -0.068  1.00  0.00     0.010 A 
HETATM   15  C   UNL     1      41.962 -13.637   1.265  1.00  0.00     0.013 A 
BRANCH  13  16
HETATM   16  C   UNL     1      41.446 -13.409  -2.521  1.00  0.00     0.305 C 
BRANCH  16  17
HETATM   17  N   UNL     1      42.846 -13.277  -2.914  1.00  0.00     0.082 N 
HETATM   18  H   UNL     1      43.434 -13.506  -2.114  1.00  0.00     0.313 HD
HETATM   19  H   UNL     1      43.036 -12.303  -3.141  1.00  0.00     0.313 HD
ENDBRANCH  16  17
ENDBRANCH  13  16
ENDBRANCH   8  10
BRANCH   1  20
HETATM   20  C   UNL     1      42.740 -17.392   1.632  1.00  0.00     0.126 C 
HETATM   21  C   UNL     1      44.189 -17.026   1.364  1.00  0.00     0.027 C 
ENDBRANCH   1  20
BRANCH   2  22
HETATM   22  C   UNL     1      43.595 -19.277   4.017  1.00  0.00     0.179 A 
HETATM   23  N   UNL     1      43.644 -20.137   2.998  1.00  0.00    -0.097 NA
HETATM   24  O   UNL     1      44.595 -21.082   3.370  1.00  0.00    -0.104 OA
HETATM   25  N   UNL     1      45.132 -20.797   4.618  1.00  0.00    -0.085 NA
HETATM   26  C   UNL     1      44.506 -19.694   5.023  1.00  0.00     0.186 A 
BRANCH  26  27
HETATM   27  N   UNL     1      44.720 -19.076   6.201  1.00  0.00    -0.380 N 
HETATM   28  H   UNL     1      44.683 -19.600   7.066  1.00  0.00     0.158 HD
HETATM   29  H   UNL     1      45.272 -18.219   6.224  1.00  0.00     0.158 HD
ENDBRANCH  26  27
ENDBRANCH   2  22
TORSDOF 6
ENDMDL
MODEL 10
REMARK VINA RESULT:      -6.8      2.952      7.002
REMARK  6 active torsions:
REMARK  status: ('A' for Active; 'I' for Inactive)
REMARK    1  A    between atoms: C_2  and  N_3 
REMARK    2  A    between atoms: C_4  and  C_20 
REMARK    3  A    between atoms: C_10  and  C_11 
REMARK    4  A    between atoms: C_14  and  C_15 
REMARK    5  A    between atoms: C_15  and  N_16 
REMARK    6  A    between atoms: C_24  and  N_25 
ROOT
HETATM    1  N   UNL     1      42.068 -15.512   2.420  1.00  0.00    -0.327 N 
HETATM    2  C   UNL     1      41.449 -14.277   2.298  1.00  0.00     0.166 A 
HETATM    3  N   UNL     1      40.789 -13.979   3.402  1.00  0.00    -0.225 NA
HETATM    4  C   UNL     1      40.985 -15.027   4.261  1.00  0.00     0.104 A 
HETATM    5  C   UNL     1      40.516 -15.183   5.569  1.00  0.00     0.150 A 
HETATM    6  N   UNL     1      40.803 -16.298   6.277  1.00  0.00    -0.270 NA
HETATM    7  C   UNL     1      41.543 -17.258   5.677  1.00  0.00     0.131 A 
HETATM    8  C   UNL     1      42.062 -17.215   4.374  1.00  0.00     0.021 A 
HETATM    9  C   UNL     1      41.762 -16.030   3.671  1.00  0.00     0.079 A 
ENDROOT
BRANCH   8  10
HETATM   10  C   UNL     1      42.811 -18.346   3.843  1.00  0.00    -0.022 A 
HETATM   11  C   UNL     1      42.429 -18.955   2.638  1.00  0.00     0.013 A 
HETATM   12  C   UNL     1      43.113 -20.072   2.149  1.00  0.00     0.010 A 
HETATM   13  C   UNL     1      44.192 -20.617   2.858  1.00  0.00    -0.031 A 
HETATM   14  C   UNL     1      44.557 -20.025   4.075  1.00  0.00     0.010 A 
HETATM   15  C   UNL     1      43.881 -18.900   4.557  1.00  0.00     0.013 A 
BRANCH  13  16
HETATM   16  C   UNL     1      44.865 -21.872   2.352  1.00  0.00     0.305 C 
BRANCH  16  17
HETATM   17  N   UNL     1      44.852 -22.958   3.327  1.00  0.00     0.082 N 
HETATM   18  H   UNL     1      44.655 -23.832   2.841  1.00  0.00     0.313 HD
HETATM   19  H   UNL     1      44.083 -22.811   3.977  1.00  0.00     0.313 HD
ENDBRANCH  16  17
ENDBRANCH  13  16
ENDBRANCH   8  10
BRANCH   1  20
HETATM   20  C   UNL     1      42.929 -16.125   1.424  1.00  0.00     0.126 C 
HETATM   21  C   UNL     1      42.147 -16.741   0.278  1.00  0.00     0.027 C 
ENDBRANCH   1  20
BRANCH   2  22
HETATM   22  C   UNL     1      41.469 -13.341   1.123  1.00  0.00     0.179 A 
HETATM   23  N   UNL     1      42.331 -12.333   0.966  1.00  0.00    -0.097 NA
HETATM   24  O   UNL     1      42.001 -11.766  -0.261  1.00  0.00    -0.104 OA
HETATM   25  N   UNL     1      40.937 -12.429  -0.857  1.00  0.00    -0.085 NA
HETATM   26  C   UNL     1      40.601 -13.389   0.001  1.00  0.00     0.186 A 
BRANCH  26  27
HETATM   27  N   UNL     1      39.596 -14.269  -0.184  1.00  0.00    -0.380 N 
HETATM   28  H   UNL     1      39.331 -14.552  -1.118  1.00  0.00     0.158 HD
HETATM   29  H   UNL     1      39.361 -14.923   0.562  1.00  0.00     0.158 HD
ENDBRANCH  26  27
ENDBRANCH   2  22
TORSDOF 6
ENDMDL
