MODEL 1
REMARK VINA RESULT:      -8.2      0.000      0.000
REMARK  5 active torsions:
REMARK  status: ('A' for Active; 'I' for Inactive)
REMARK    1  A    between atoms: C_9  and  C_10 
REMARK    2  A    between atoms: C_10  and  N_11 
REMARK    3  A    between atoms: N_11  and  C_14 
REMARK    4  A    between atoms: C_14  and  C_15 
REMARK    5  A    between atoms: C_16  and  C_17 
ROOT
HETATM    1  C   UNL     1      43.665 -18.205   2.306  1.00  0.00    -0.036 A 
HETATM    2  C   UNL     1      43.805 -19.469   1.721  1.00  0.00     0.013 A 
HETATM    3  C   UNL     1      44.214 -20.559   2.494  1.00  0.00     0.023 A 
HETATM    4  C   UNL     1      44.492 -20.392   3.855  1.00  0.00     0.044 A 
HETATM    5  C   UNL     1      44.907 -21.512   4.647  1.00  0.00     0.099 C 
HETATM    6  N   UNL     1      45.239 -22.422   5.285  1.00  0.00    -0.191 NA
HETATM    7  C   UNL     1      44.358 -19.128   4.438  1.00  0.00     0.023 A 
HETATM    8  C   UNL     1      43.946 -18.038   3.666  1.00  0.00     0.013 A 
ENDROOT
BRANCH   1   9
HETATM    9  C   UNL     1      43.214 -17.076   1.491  1.00  0.00     0.009 C 
HETATM   10  C   UNL     1      41.979 -17.054   0.963  1.00  0.00     0.001 C 
BRANCH  10  11
HETATM   11  C   UNL     1      41.448 -15.945   0.122  1.00  0.00     0.259 C 
BRANCH  11  12
HETATM   12  N   UNL     1      40.517 -15.096   0.913  1.00  0.00    -0.071 N 
HETATM   13  H   UNL     1      39.669 -14.959   0.339  1.00  0.00     0.277 HD
HETATM   14  H   UNL     1      40.943 -14.164   1.007  1.00  0.00     0.277 HD
BRANCH  12  15
HETATM   15  C   UNL     1      40.176 -15.638   2.267  1.00  0.00     0.242 C 
BRANCH  15  16
HETATM   16  C   UNL     1      40.293 -14.592   3.403  1.00  0.00     0.055 C 
HETATM   17  C   UNL     1      41.245 -15.027   4.498  1.00  0.00    -0.025 A 
HETATM   18  C   UNL     1      40.840 -15.924   5.493  1.00  0.00     0.010 A 
HETATM   19  C   UNL     1      42.569 -14.556   4.499  1.00  0.00     0.041 A 
HETATM   20  C   UNL     1      41.750 -16.346   6.463  1.00  0.00     0.001 A 
HETATM   21  C   UNL     1      43.065 -15.882   6.445  1.00  0.00     0.002 A 
HETATM   22  C   UNL     1      43.481 -14.989   5.459  1.00  0.00     0.030 A 
HETATM   23  N   UNL     1      42.997 -13.706   3.474  1.00  0.00    -0.327 N 
HETATM   24  C   UNL     1      42.149 -13.181   2.539  1.00  0.00     0.222 C 
HETATM   25  H   UNL     1      43.989 -13.525   3.348  1.00  0.00     0.169 HD
HETATM   26  O   UNL     1      42.544 -12.827   1.434  1.00  0.00    -0.273 OA
HETATM   27  C   UNL     1      40.686 -13.206   2.896  1.00  0.00     0.114 C 
ENDBRANCH  15  16
ENDBRANCH  12  15
ENDBRANCH  11  12
ENDBRANCH  10  11
ENDBRANCH   1   9
TORSDOF 5
ENDMDL
MODEL 2
REMARK VINA RESULT:      -8.1      2.108      4.124
REMARK  5 active torsions:
REMARK  status: ('A' for Active; 'I' for Inactive)
REMARK    1  A    between atoms: C_9  and  C_10 
REMARK    2  A    between atoms: C_10  and  N_11 
REMARK    3  A    between atoms: N_11  and  C_14 
REMARK    4  A    between atoms: C_14  and  C_15 
REMARK    5  A    between atoms: C_16  and  C_17 
ROOT
HETATM    1  C   UNL     1      44.241 -18.463   5.143  1.00  0.00    -0.036 A 
HETATM    2  C   UNL     1      43.834 -18.193   3.832  1.00  0.00     0.013 A 
HETATM    3  C   UNL     1      43.876 -19.198   2.861  1.00  0.00     0.023 A 
HETATM    4  C   UNL     1      44.331 -20.478   3.195  1.00  0.00     0.044 A 
HETATM    5  C   UNL     1      44.368 -21.509   2.199  1.00  0.00     0.099 C 
HETATM    6  N   UNL     1      44.394 -22.341   1.391  1.00  0.00    -0.191 NA
HETATM    7  C   UNL     1      44.743 -20.748   4.503  1.00  0.00     0.023 A 
HETATM    8  C   UNL     1      44.698 -19.743   5.475  1.00  0.00     0.013 A 
ENDROOT
BRANCH   1   9
HETATM    9  C   UNL     1      44.171 -17.409   6.156  1.00  0.00     0.009 C 
HETATM   10  C   UNL     1      44.009 -16.123   5.805  1.00  0.00     0.001 C 
BRANCH  10  11
HETATM   11  C   UNL     1      43.932 -14.994   6.774  1.00  0.00     0.259 C 
BRANCH  11  12
HETATM   12  N   UNL     1      43.018 -13.937   6.265  1.00  0.00    -0.071 N 
HETATM   13  H   UNL     1      43.297 -13.051   6.716  1.00  0.00     0.277 HD
HETATM   14  H   UNL     1      42.072 -14.142   6.616  1.00  0.00     0.277 HD
BRANCH  12  15
HETATM   15  C   UNL     1      42.987 -13.803   4.773  1.00  0.00     0.242 C 
BRANCH  15  16
HETATM   16  C   UNL     1      41.559 -13.823   4.177  1.00  0.00     0.055 C 
HETATM   17  C   UNL     1      41.447 -14.724   2.964  1.00  0.00    -0.025 A 
HETATM   18  C   UNL     1      41.868 -14.292   1.701  1.00  0.00     0.010 A 
HETATM   19  C   UNL     1      40.951 -16.030   3.109  1.00  0.00     0.041 A 
HETATM   20  C   UNL     1      41.799 -15.158   0.609  1.00  0.00     0.001 A 
HETATM   21  C   UNL     1      41.317 -16.457   0.769  1.00  0.00     0.002 A 
HETATM   22  C   UNL     1      40.895 -16.899   2.022  1.00  0.00     0.030 A 
HETATM   23  N   UNL     1      40.583 -16.489   4.379  1.00  0.00    -0.327 N 
HETATM   24  C   UNL     1      40.541 -15.679   5.480  1.00  0.00     0.222 C 
HETATM   25  H   UNL     1      40.420 -17.480   4.531  1.00  0.00     0.169 HD
HETATM   26  O   UNL     1      40.660 -16.125   6.615  1.00  0.00    -0.273 OA
HETATM   27  C   UNL     1      40.492 -14.200   5.202  1.00  0.00     0.114 C 
ENDBRANCH  15  16
ENDBRANCH  12  15
ENDBRANCH  11  12
ENDBRANCH  10  11
ENDBRANCH   1   9
TORSDOF 5
ENDMDL
MODEL 3
REMARK VINA RESULT:      -7.8      1.509      1.768
REMARK  5 active torsions:
REMARK  status: ('A' for Active; 'I' for Inactive)
REMARK    1  A    between atoms: C_9  and  C_10 
REMARK    2  A    between atoms: C_10  and  N_11 
REMARK    3  A    between atoms: N_11  and  C_14 
REMARK    4  A    between atoms: C_14  and  C_15 
REMARK    5  A    between atoms: C_16  and  C_17 
ROOT
HETATM    1  C   UNL     1      43.613 -17.693   2.760  1.00  0.00    -0.036 A 
HETATM    2  C   UNL     1      43.486 -18.533   1.647  1.00  0.00     0.013 A 
HETATM    3  C   UNL     1      43.776 -19.896   1.759  1.00  0.00     0.023 A 
HETATM    4  C   UNL     1      44.201 -20.427   2.981  1.00  0.00     0.044 A 
HETATM    5  C   UNL     1      44.493 -21.826   3.095  1.00  0.00     0.099 C 
HETATM    6  N   UNL     1      44.725 -22.959   3.183  1.00  0.00    -0.191 NA
HETATM    7  C   UNL     1      44.333 -19.587   4.092  1.00  0.00     0.023 A 
HETATM    8  C   UNL     1      44.040 -18.224   3.981  1.00  0.00     0.013 A 
ENDROOT
BRANCH   1   9
HETATM    9  C   UNL     1      43.284 -16.273   2.636  1.00  0.00     0.009 C 
HETATM   10  C   UNL     1      42.133 -15.876   2.070  1.00  0.00     0.001 C 
BRANCH  10  11
HETATM   11  C   UNL     1      41.729 -14.451   1.905  1.00  0.00     0.259 C 
BRANCH  11  12
HETATM   12  N   UNL     1      40.655 -14.103   2.874  1.00  0.00    -0.071 N 
HETATM   13  H   UNL     1      39.837 -13.795   2.323  1.00  0.00     0.277 HD
HETATM   14  H   UNL     1      40.963 -13.274   3.401  1.00  0.00     0.277 HD
BRANCH  12  15
HETATM   15  C   UNL     1      40.290 -15.202   3.824  1.00  0.00     0.242 C 
BRANCH  15  16
HETATM   16  C   UNL     1      40.388 -14.793   5.314  1.00  0.00     0.055 C 
HETATM   17  C   UNL     1      41.532 -15.479   6.031  1.00  0.00    -0.025 A 
HETATM   18  C   UNL     1      41.409 -16.794   6.496  1.00  0.00     0.010 A 
HETATM   19  C   UNL     1      42.753 -14.805   6.202  1.00  0.00     0.041 A 
HETATM   20  C   UNL     1      42.494 -17.419   7.112  1.00  0.00     0.001 A 
HETATM   21  C   UNL     1      43.705 -16.743   7.263  1.00  0.00     0.002 A 
HETATM   22  C   UNL     1      43.840 -15.434   6.804  1.00  0.00     0.030 A 
HETATM   23  N   UNL     1      42.901 -13.512   5.688  1.00  0.00    -0.327 N 
HETATM   24  C   UNL     1      41.865 -12.801   5.149  1.00  0.00     0.222 C 
HETATM   25  H   UNL     1      43.826 -13.097   5.622  1.00  0.00     0.169 HD
HETATM   26  O   UNL     1      42.051 -11.909   4.330  1.00  0.00    -0.273 OA
HETATM   27  C   UNL     1      40.485 -13.282   5.511  1.00  0.00     0.114 C 
ENDBRANCH  15  16
ENDBRANCH  12  15
ENDBRANCH  11  12
ENDBRANCH  10  11
ENDBRANCH   1   9
TORSDOF 5
ENDMDL
MODEL 4
REMARK VINA RESULT:      -7.5      2.106      4.711
REMARK  5 active torsions:
REMARK  status: ('A' for Active; 'I' for Inactive)
REMARK    1  A    between atoms: C_9  and  C_10 
REMARK    2  A    between atoms: C_10  and  N_11 
REMARK    3  A    between atoms: N_11  and  C_14 
REMARK    4  A    between atoms: C_14  and  C_15 
REMARK    5  A    between atoms: C_16  and  C_17 
ROOT
HETATM    1  C   UNL     1      43.559 -17.533   4.045  1.00  0.00    -0.036 A 
HETATM    2  C   UNL     1      43.213 -17.746   2.706  1.00  0.00     0.013 A 
HETATM    3  C   UNL     1      43.442 -18.990   2.110  1.00  0.00     0.023 A 
HETATM    4  C   UNL     1      44.023 -20.026   2.848  1.00  0.00     0.044 A 
HETATM    5  C   UNL     1      44.252 -21.303   2.238  1.00  0.00     0.099 C 
HETATM    6  N   UNL     1      44.433 -22.335   1.740  1.00  0.00    -0.191 NA
HETATM    7  C   UNL     1      44.375 -19.812   4.185  1.00  0.00     0.023 A 
HETATM    8  C   UNL     1      44.143 -18.569   4.782  1.00  0.00     0.013 A 
ENDROOT
BRANCH   1   9
HETATM    9  C   UNL     1      43.294 -16.233   4.663  1.00  0.00     0.009 C 
HETATM   10  C   UNL     1      42.962 -15.167   3.917  1.00  0.00     0.001 C 
BRANCH  10  11
HETATM   11  C   UNL     1      42.681 -13.813   4.471  1.00  0.00     0.259 C 
BRANCH  11  12
HETATM   12  N   UNL     1      42.534 -12.824   3.369  1.00  0.00    -0.071 N 
HETATM   13  H   UNL     1      43.293 -12.133   3.478  1.00  0.00     0.277 HD
HETATM   14  H   UNL     1      41.660 -12.304   3.526  1.00  0.00     0.277 HD
BRANCH  12  15
HETATM   15  C   UNL     1      42.532 -13.418   1.994  1.00  0.00     0.242 C 
BRANCH  15  16
HETATM   16  C   UNL     1      41.240 -13.126   1.193  1.00  0.00     0.055 C 
HETATM   17  C   UNL     1      41.390 -13.430  -0.283  1.00  0.00    -0.025 A 
HETATM   18  C   UNL     1      42.018 -12.525  -1.147  1.00  0.00     0.010 A 
HETATM   19  C   UNL     1      40.928 -14.654  -0.794  1.00  0.00     0.041 A 
HETATM   20  C   UNL     1      42.186 -12.850  -2.494  1.00  0.00     0.001 A 
HETATM   21  C   UNL     1      41.735 -14.075  -2.986  1.00  0.00     0.002 A 
HETATM   22  C   UNL     1      41.109 -14.984  -2.135  1.00  0.00     0.030 A 
HETATM   23  N   UNL     1      40.352 -15.588   0.074  1.00  0.00    -0.327 N 
HETATM   24  C   UNL     1      40.075 -15.314   1.385  1.00  0.00     0.222 C 
HETATM   25  H   UNL     1      40.203 -16.544  -0.236  1.00  0.00     0.169 HD
HETATM   26  O   UNL     1      40.001 -16.200   2.228  1.00  0.00    -0.273 OA
HETATM   27  C   UNL     1      40.019 -13.854   1.749  1.00  0.00     0.114 C 
ENDBRANCH  15  16
ENDBRANCH  12  15
ENDBRANCH  11  12
ENDBRANCH  10  11
ENDBRANCH   1   9
TORSDOF 5
ENDMDL
MODEL 5
REMARK VINA RESULT:      -7.4      5.069      8.957
REMARK  5 active torsions:
REMARK  status: ('A' for Active; 'I' for Inactive)
REMARK    1  A    between atoms: C_9  and  C_10 
REMARK    2  A    between atoms: C_10  and  N_11 
REMARK    3  A    between atoms: N_11  and  C_14 
REMARK    4  A    between atoms: C_14  and  C_15 
REMARK    5  A    between atoms: C_16  and  C_17 
ROOT
HETATM    1  C   UNL     1      44.419 -11.654   9.473  1.00  0.00    -0.036 A 
HETATM    2  C   UNL     1      43.242 -11.003   9.087  1.00  0.00     0.013 A 
HETATM    3  C   UNL     1      42.622 -10.099   9.955  1.00  0.00     0.023 A 
HETATM    4  C   UNL     1      43.172  -9.845  11.216  1.00  0.00     0.044 A 
HETATM    5  C   UNL     1      42.538  -8.914  12.103  1.00  0.00     0.099 C 
HETATM    6  N   UNL     1      42.023  -8.158  12.815  1.00  0.00    -0.191 NA
HETATM    7  C   UNL     1      44.345 -10.500  11.604  1.00  0.00     0.023 A 
HETATM    8  C   UNL     1      44.967 -11.402  10.735  1.00  0.00     0.013 A 
ENDROOT
BRANCH   1   9
HETATM    9  C   UNL     1      45.071 -12.581   8.546  1.00  0.00     0.009 C 
HETATM   10  C   UNL     1      44.354 -13.469   7.838  1.00  0.00     0.001 C 
BRANCH  10  11
HETATM   11  C   UNL     1      44.944 -14.446   6.880  1.00  0.00     0.259 C 
BRANCH  11  12
HETATM   12  N   UNL     1      44.093 -15.663   6.795  1.00  0.00    -0.071 N 
HETATM   13  H   UNL     1      43.283 -15.513   7.419  1.00  0.00     0.277 HD
HETATM   14  H   UNL     1      44.620 -16.446   7.207  1.00  0.00     0.277 HD
BRANCH  12  15
HETATM   15  C   UNL     1      43.653 -16.022   5.409  1.00  0.00     0.242 C 
BRANCH  15  16
HETATM   16  C   UNL     1      42.760 -17.285   5.347  1.00  0.00     0.055 C 
HETATM   17  C   UNL     1      43.288 -18.324   4.380  1.00  0.00    -0.025 A 
HETATM   18  C   UNL     1      43.062 -18.211   3.003  1.00  0.00     0.010 A 
HETATM   19  C   UNL     1      44.052 -19.401   4.861  1.00  0.00     0.041 A 
HETATM   20  C   UNL     1      43.600 -19.156   2.129  1.00  0.00     0.001 A 
HETATM   21  C   UNL     1      44.368 -20.213   2.618  1.00  0.00     0.002 A 
HETATM   22  C   UNL     1      44.601 -20.336   3.987  1.00  0.00     0.030 A 
HETATM   23  N   UNL     1      44.331 -19.488   6.229  1.00  0.00    -0.327 N 
HETATM   24  C   UNL     1      43.774 -18.654   7.158  1.00  0.00     0.222 C 
HETATM   25  H   UNL     1      45.042 -20.135   6.561  1.00  0.00     0.169 HD
HETATM   26  O   UNL     1      44.318 -18.428   8.233  1.00  0.00    -0.273 OA
HETATM   27  C   UNL     1      42.534 -17.921   6.717  1.00  0.00     0.114 C 
ENDBRANCH  15  16
ENDBRANCH  12  15
ENDBRANCH  11  12
ENDBRANCH  10  11
ENDBRANCH   1   9
TORSDOF 5
ENDMDL
MODEL 6
REMARK VINA RESULT:      -7.4      1.676      3.926
REMARK  5 active torsions:
REMARK  status: ('A' for Active; 'I' for Inactive)
REMARK    1  A    between atoms: C_9  and  C_10 
REMARK    2  A    between atoms: C_10  and  N_11 
REMARK    3  A    between atoms: N_11  and  C_14 
REMARK    4  A    between atoms: C_14  and  C_15 
REMARK    5  A    between atoms: C_16  and  C_17 
ROOT
HETATM    1  C   UNL     1      43.091 -17.114   5.639  1.00  0.00    -0.036 A 
HETATM    2  C   UNL     1      43.288 -17.967   6.730  1.00  0.00     0.013 A 
HETATM    3  C   UNL     1      43.826 -19.243   6.538  1.00  0.00     0.023 A 
HETATM    4  C   UNL     1      44.166 -19.675   5.252  1.00  0.00     0.044 A 
HETATM    5  C   UNL     1      44.724 -20.982   5.057  1.00  0.00     0.099 C 
HETATM    6  N   UNL     1      45.177 -22.039   4.905  1.00  0.00    -0.191 NA
HETATM    7  C   UNL     1      43.964 -18.826   4.160  1.00  0.00     0.023 A 
HETATM    8  C   UNL     1      43.428 -17.549   4.352  1.00  0.00     0.013 A 
ENDROOT
BRANCH   1   9
HETATM    9  C   UNL     1      42.547 -15.773   5.856  1.00  0.00     0.009 C 
HETATM   10  C   UNL     1      43.319 -14.683   5.714  1.00  0.00     0.001 C 
BRANCH  10  11
HETATM   11  C   UNL     1      42.841 -13.287   5.921  1.00  0.00     0.259 C 
BRANCH  11  12
HETATM   12  N   UNL     1      42.533 -12.648   4.614  1.00  0.00    -0.071 N 
HETATM   13  H   UNL     1      42.961 -11.708   4.627  1.00  0.00     0.277 HD
HETATM   14  H   UNL     1      41.516 -12.489   4.573  1.00  0.00     0.277 HD
BRANCH  12  15
HETATM   15  C   UNL     1      42.973 -13.431   3.416  1.00  0.00     0.242 C 
BRANCH  15  16
HETATM   16  C   UNL     1      41.873 -13.591   2.339  1.00  0.00     0.055 C 
HETATM   17  C   UNL     1      41.649 -15.036   1.946  1.00  0.00    -0.025 A 
HETATM   18  C   UNL     1      42.500 -15.679   1.039  1.00  0.00     0.010 A 
HETATM   19  C   UNL     1      40.596 -15.762   2.527  1.00  0.00     0.041 A 
HETATM   20  C   UNL     1      42.300 -17.025   0.730  1.00  0.00     0.001 A 
HETATM   21  C   UNL     1      41.259 -17.738   1.324  1.00  0.00     0.002 A 
HETATM   22  C   UNL     1      40.405 -17.109   2.230  1.00  0.00     0.030 A 
HETATM   23  N   UNL     1      39.778 -15.143   3.479  1.00  0.00    -0.327 N 
HETATM   24  C   UNL     1      39.854 -13.810   3.772  1.00  0.00     0.222 C 
HETATM   25  H   UNL     1      39.152 -15.704   4.050  1.00  0.00     0.169 HD
HETATM   26  O   UNL     1      39.491 -13.364   4.855  1.00  0.00    -0.273 OA
HETATM   27  C   UNL     1      40.547 -12.953   2.745  1.00  0.00     0.114 C 
ENDBRANCH  15  16
ENDBRANCH  12  15
ENDBRANCH  11  12
ENDBRANCH  10  11
ENDBRANCH   1   9
TORSDOF 5
ENDMDL
MODEL 7
REMARK VINA RESULT:      -7.4      2.121      4.041
REMARK  5 active torsions:
REMARK  status: ('A' for Active; 'I' for Inactive)
REMARK    1  A    between atoms: C_9  and  C_10 
REMARK    2  A    between atoms: C_10  and  N_11 
REMARK    3  A    between atoms: N_11  and  C_14 
REMARK    4  A    between atoms: C_14  and  C_15 
REMARK    5  A    between atoms: C_16  and  C_17 
ROOT
HETATM    1  C   UNL     1      43.535 -16.888   2.831  1.00  0.00    -0.036 A 
HETATM    2  C   UNL     1      43.517 -17.827   3.868  1.00  0.00     0.013 A 
HETATM    3  C   UNL     1      43.642 -19.190   3.585  1.00  0.00     0.023 A 
HETATM    4  C   UNL     1      43.780 -19.623   2.262  1.00  0.00     0.044 A 
HETATM    5  C   UNL     1      43.914 -21.022   1.973  1.00  0.00     0.099 C 
HETATM    6  N   UNL     1      44.025 -22.153   1.745  1.00  0.00    -0.191 NA
HETATM    7  C   UNL     1      43.793 -18.686   1.224  1.00  0.00     0.023 A 
HETATM    8  C   UNL     1      43.671 -17.322   1.508  1.00  0.00     0.013 A 
ENDROOT
BRANCH   1   9
HETATM    9  C   UNL     1      43.426 -15.463   3.142  1.00  0.00     0.009 C 
HETATM   10  C   UNL     1      43.556 -15.018   4.403  1.00  0.00     0.001 C 
BRANCH  10  11
HETATM   11  C   UNL     1      43.455 -13.586   4.800  1.00  0.00     0.259 C 
BRANCH  11  12
HETATM   12  N   UNL     1      42.601 -12.841   3.835  1.00  0.00    -0.071 N 
HETATM   13  H   UNL     1      42.154 -13.542   3.222  1.00  0.00     0.277 HD
HETATM   14  H   UNL     1      43.222 -12.293   3.223  1.00  0.00     0.277 HD
BRANCH  12  15
HETATM   15  C   UNL     1      41.585 -11.940   4.466  1.00  0.00     0.242 C 
BRANCH  15  16
HETATM   16  C   UNL     1      40.123 -12.312   4.118  1.00  0.00     0.055 C 
HETATM   17  C   UNL     1      40.012 -13.083   2.819  1.00  0.00    -0.025 A 
HETATM   18  C   UNL     1      40.040 -12.424   1.584  1.00  0.00     0.010 A 
HETATM   19  C   UNL     1      39.919 -14.484   2.844  1.00  0.00     0.041 A 
HETATM   20  C   UNL     1      39.984 -13.161   0.400  1.00  0.00     0.001 A 
HETATM   21  C   UNL     1      39.906 -14.553   0.439  1.00  0.00     0.002 A 
HETATM   22  C   UNL     1      39.878 -15.220   1.662  1.00  0.00     0.030 A 
HETATM   23  N   UNL     1      39.951 -15.153   4.073  1.00  0.00    -0.327 N 
HETATM   24  C   UNL     1      39.918 -14.503   5.275  1.00  0.00     0.222 C 
HETATM   25  H   UNL     1      40.090 -16.159   4.098  1.00  0.00     0.169 HD
HETATM   26  O   UNL     1      40.377 -15.006   6.294  1.00  0.00    -0.273 OA
HETATM   27  C   UNL     1      39.424 -13.081   5.237  1.00  0.00     0.114 C 
ENDBRANCH  15  16
ENDBRANCH  12  15
ENDBRANCH  11  12
ENDBRANCH  10  11
ENDBRANCH   1   9
TORSDOF 5
ENDMDL
MODEL 8
REMARK VINA RESULT:      -7.2      2.034      3.041
REMARK  5 active torsions:
REMARK  status: ('A' for Active; 'I' for Inactive)
REMARK    1  A    between atoms: C_9  and  C_10 
REMARK    2  A    between atoms: C_10  and  N_11 
REMARK    3  A    between atoms: N_11  and  C_14 
REMARK    4  A    between atoms: C_14  and  C_15 
REMARK    5  A    between atoms: C_16  and  C_17 
ROOT
HETATM    1  C   UNL     1      42.649 -18.007   2.574  1.00  0.00    -0.036 A 
HETATM    2  C   UNL     1      43.432 -18.267   3.705  1.00  0.00     0.013 A 
HETATM    3  C   UNL     1      44.044 -19.514   3.864  1.00  0.00     0.023 A 
HETATM    4  C   UNL     1      43.873 -20.509   2.897  1.00  0.00     0.044 A 
HETATM    5  C   UNL     1      44.506 -21.786   3.059  1.00  0.00     0.099 C 
HETATM    6  N   UNL     1      45.023 -22.815   3.193  1.00  0.00    -0.191 NA
HETATM    7  C   UNL     1      43.086 -20.253   1.770  1.00  0.00     0.023 A 
HETATM    8  C   UNL     1      42.476 -19.005   1.609  1.00  0.00     0.013 A 
ENDROOT
BRANCH   1   9
HETATM    9  C   UNL     1      42.031 -16.691   2.408  1.00  0.00     0.009 C 
HETATM   10  C   UNL     1      42.762 -15.625   2.042  1.00  0.00     0.001 C 
BRANCH  10  11
HETATM   11  C   UNL     1      42.209 -14.255   1.856  1.00  0.00     0.259 C 
BRANCH  11  12
HETATM   12  N   UNL     1      42.813 -13.316   2.839  1.00  0.00    -0.071 N 
HETATM   13  H   UNL     1      42.053 -12.706   3.183  1.00  0.00     0.277 HD
HETATM   14  H   UNL     1      43.457 -12.696   2.328  1.00  0.00     0.277 HD
BRANCH  12  15
HETATM   15  C   UNL     1      43.535 -13.977   3.972  1.00  0.00     0.242 C 
BRANCH  15  16
HETATM   16  C   UNL     1      42.813 -13.840   5.335  1.00  0.00     0.055 C 
HETATM   17  C   UNL     1      42.363 -15.174   5.892  1.00  0.00    -0.025 A 
HETATM   18  C   UNL     1      41.190 -15.789   5.438  1.00  0.00     0.010 A 
HETATM   19  C   UNL     1      43.151 -15.832   6.852  1.00  0.00     0.041 A 
HETATM   20  C   UNL     1      40.822 -17.041   5.932  1.00  0.00     0.001 A 
HETATM   21  C   UNL     1      41.621 -17.689   6.875  1.00  0.00     0.002 A 
HETATM   22  C   UNL     1      42.791 -17.087   7.334  1.00  0.00     0.030 A 
HETATM   23  N   UNL     1      44.355 -15.251   7.266  1.00  0.00    -0.327 N 
HETATM   24  C   UNL     1      44.742 -13.994   6.895  1.00  0.00     0.222 C 
HETATM   25  H   UNL     1      45.025 -15.801   7.796  1.00  0.00     0.169 HD
HETATM   26  O   UNL     1      45.921 -13.661   6.872  1.00  0.00    -0.273 OA
HETATM   27  C   UNL     1      43.647 -13.099   6.377  1.00  0.00     0.114 C 
ENDBRANCH  15  16
ENDBRANCH  12  15
ENDBRANCH  11  12
ENDBRANCH  10  11
ENDBRANCH   1   9
TORSDOF 5
ENDMDL
MODEL 9
REMARK VINA RESULT:      -7.2      5.230      8.756
REMARK  5 active torsions:
REMARK  status: ('A' for Active; 'I' for Inactive)
REMARK    1  A    between atoms: C_9  and  C_10 
REMARK    2  A    between atoms: C_10  and  N_11 
REMARK    3  A    between atoms: N_11  and  C_14 
REMARK    4  A    between atoms: C_14  and  C_15 
REMARK    5  A    between atoms: C_16  and  C_17 
ROOT
HETATM    1  C   UNL     1      44.649 -11.819  10.119  1.00  0.00    -0.036 A 
HETATM    2  C   UNL     1      44.301 -12.692  11.156  1.00  0.00     0.013 A 
HETATM    3  C   UNL     1      43.695 -12.200  12.315  1.00  0.00     0.023 A 
HETATM    4  C   UNL     1      43.440 -10.831  12.449  1.00  0.00     0.044 A 
HETATM    5  C   UNL     1      42.814 -10.329  13.637  1.00  0.00     0.099 C 
HETATM    6  N   UNL     1      42.304  -9.927  14.598  1.00  0.00    -0.191 NA
HETATM    7  C   UNL     1      43.794  -9.957  11.416  1.00  0.00     0.023 A 
HETATM    8  C   UNL     1      44.396 -10.449  10.254  1.00  0.00     0.013 A 
ENDROOT
BRANCH   1   9
HETATM    9  C   UNL     1      45.262 -12.349   8.901  1.00  0.00     0.009 C 
HETATM   10  C   UNL     1      44.664 -13.320   8.192  1.00  0.00     0.001 C 
BRANCH  10  11
HETATM   11  C   UNL     1      45.225 -13.913   6.946  1.00  0.00     0.259 C 
BRANCH  11  12
HETATM   12  N   UNL     1      44.588 -15.229   6.668  1.00  0.00    -0.071 N 
HETATM   13  H   UNL     1      44.194 -15.571   7.560  1.00  0.00     0.277 HD
HETATM   14  H   UNL     1      45.334 -15.894   6.420  1.00  0.00     0.277 HD
BRANCH  12  15
HETATM   15  C   UNL     1      43.550 -15.205   5.588  1.00  0.00     0.242 C 
BRANCH  15  16
HETATM   16  C   UNL     1      42.621 -16.443   5.591  1.00  0.00     0.055 C 
HETATM   17  C   UNL     1      42.412 -17.016   4.204  1.00  0.00    -0.025 A 
HETATM   18  C   UNL     1      41.492 -16.444   3.317  1.00  0.00     0.010 A 
HETATM   19  C   UNL     1      43.178 -18.115   3.780  1.00  0.00     0.041 A 
HETATM   20  C   UNL     1      41.352 -16.961   2.029  1.00  0.00     0.001 A 
HETATM   21  C   UNL     1      42.129 -18.044   1.616  1.00  0.00     0.002 A 
HETATM   22  C   UNL     1      43.048 -18.622   2.489  1.00  0.00     0.030 A 
HETATM   23  N   UNL     1      44.141 -18.654   4.640  1.00  0.00    -0.327 N 
HETATM   24  C   UNL     1      44.280 -18.262   5.942  1.00  0.00     0.222 C 
HETATM   25  H   UNL     1      44.833 -19.305   4.280  1.00  0.00     0.169 HD
HETATM   26  O   UNL     1      45.342 -18.380   6.543  1.00  0.00    -0.273 OA
HETATM   27  C   UNL     1      43.098 -17.542   6.537  1.00  0.00     0.114 C 
ENDBRANCH  15  16
ENDBRANCH  12  15
ENDBRANCH  11  12
ENDBRANCH  10  11
ENDBRANCH   1   9
TORSDOF 5
ENDMDL
MODEL 10
REMARK VINA RESULT:      -7.2      2.319      4.156
REMARK  5 active torsions:
REMARK  status: ('A' for Active; 'I' for Inactive)
REMARK    1  A    between atoms: C_9  and  C_10 
REMARK    2  A    between atoms: C_10  and  N_11 
REMARK    3  A    between atoms: N_11  and  C_14 
REMARK    4  A    between atoms: C_14  and  C_15 
REMARK    5  A    between atoms: C_16  and  C_17 
ROOT
HETATM    1  C   UNL     1      43.421 -17.630   3.677  1.00  0.00    -0.036 A 
HETATM    2  C   UNL     1      44.001 -18.529   4.580  1.00  0.00     0.013 A 
HETATM    3  C   UNL     1      44.329 -19.824   4.170  1.00  0.00     0.023 A 
HETATM    4  C   UNL     1      44.073 -20.232   2.857  1.00  0.00     0.044 A 
HETATM    5  C   UNL     1      44.415 -21.559   2.437  1.00  0.00     0.099 C 
HETATM    6  N   UNL     1      44.696 -22.633   2.100  1.00  0.00    -0.191 NA
HETATM    7  C   UNL     1      43.488 -19.337   1.956  1.00  0.00     0.023 A 
HETATM    8  C   UNL     1      43.163 -18.040   2.365  1.00  0.00     0.013 A 
ENDROOT
BRANCH   1   9
HETATM    9  C   UNL     1      43.103 -16.270   4.112  1.00  0.00     0.009 C 
HETATM   10  C   UNL     1      42.849 -15.998   5.402  1.00  0.00     0.001 C 
BRANCH  10  11
HETATM   11  C   UNL     1      42.515 -14.642   5.922  1.00  0.00     0.259 C 
BRANCH  11  12
HETATM   12  N   UNL     1      41.091 -14.588   6.348  1.00  0.00    -0.071 N 
HETATM   13  H   UNL     1      41.030 -13.905   7.120  1.00  0.00     0.277 HD
HETATM   14  H   UNL     1      40.852 -15.500   6.765  1.00  0.00     0.277 HD
BRANCH  12  15
HETATM   15  C   UNL     1      40.123 -14.261   5.254  1.00  0.00     0.242 C 
BRANCH  15  16
HETATM   16  C   UNL     1      40.683 -13.273   4.202  1.00  0.00     0.055 C 
HETATM   17  C   UNL     1      40.138 -13.530   2.813  1.00  0.00    -0.025 A 
HETATM   18  C   UNL     1      40.667 -14.544   2.005  1.00  0.00     0.010 A 
HETATM   19  C   UNL     1      39.058 -12.770   2.335  1.00  0.00     0.041 A 
HETATM   20  C   UNL     1      40.115 -14.793   0.748  1.00  0.00     0.001 A 
HETATM   21  C   UNL     1      39.034 -14.039   0.291  1.00  0.00     0.002 A 
HETATM   22  C   UNL     1      38.498 -13.027   1.086  1.00  0.00     0.030 A 
HETATM   23  N   UNL     1      38.486 -11.795   3.160  1.00  0.00    -0.327 N 
HETATM   24  C   UNL     1      39.019 -11.434   4.366  1.00  0.00     0.222 C 
HETATM   25  H   UNL     1      37.590 -11.385   2.913  1.00  0.00     0.169 HD
HETATM   26  O   UNL     1      38.332 -10.945   5.256  1.00  0.00    -0.273 OA
HETATM   27  C   UNL     1      40.461 -11.811   4.583  1.00  0.00     0.114 C 
ENDBRANCH  15  16
ENDBRANCH  12  15
ENDBRANCH  11  12
ENDBRANCH  10  11
ENDBRANCH   1   9
TORSDOF 5
ENDMDL
