MODEL 1
REMARK VINA RESULT:      -9.2      0.000      0.000
REMARK  3 active torsions:
REMARK  status: ('A' for Active; 'I' for Inactive)
REMARK    1  A    between atoms: C_4  and  C_5 
REMARK    2  A    between atoms: C_11  and  C_12 
REMARK    3  A    between atoms: C_21  and  N_22 
ROOT
HETATM    1  C   UNL     1      44.220 -18.933   5.057  1.00  0.00     0.098 C 
HETATM    2  N   UNL     1      44.765 -19.215   6.258  1.00  0.00    -0.172 NA
HETATM    3  N   UNL     1      44.731 -18.056   6.934  1.00  0.00    -0.256 N 
HETATM    4  H   UNL     1      45.152 -18.013   7.855  1.00  0.00     0.191 HD
HETATM    5  C   UNL     1      44.186 -17.049   6.214  1.00  0.00     0.175 C 
HETATM    6  C   UNL     1      43.731 -17.591   5.036  1.00  0.00     0.036 C 
HETATM    7  C   UNL     1      43.043 -16.701   4.048  1.00  0.00     0.077 C 
HETATM    8  C   UNL     1      43.445 -15.233   4.355  1.00  0.00     0.076 C 
HETATM    9  C   UNL     1      43.271 -14.280   3.308  1.00  0.00     0.100 C 
HETATM   10  N   UNL     1      43.101 -13.511   2.457  1.00  0.00    -0.192 NA
HETATM   11  C   UNL     1      43.956 -14.846   5.556  1.00  0.00     0.140 C 
HETATM   12  O   UNL     1      44.197 -15.775   6.582  1.00  0.00    -0.279 OA
ENDROOT
BRANCH   7  13
HETATM   13  C   UNL     1      41.478 -16.802   3.997  1.00  0.00     0.003 C 
HETATM   14  C   UNL     1      40.731 -15.471   3.752  1.00  0.00     0.032 C 
HETATM   15  C   UNL     1      40.312 -14.751   4.993  1.00  0.00    -0.030 C 
HETATM   16  C   UNL     1      40.207 -15.349   6.185  1.00  0.00    -0.031 C 
HETATM   17  C   UNL     1      40.481 -16.801   6.409  1.00  0.00     0.027 C 
HETATM   18  C   UNL     1      40.835 -17.597   5.152  1.00  0.00     0.009 C 
ENDBRANCH   7  13
BRANCH  11  19
HETATM   19  N   UNL     1      44.295 -13.560   5.909  1.00  0.00    -0.282 NA
HETATM   20  H   UNL     1      43.558 -13.014   6.350  1.00  0.00     0.126 HD
HETATM   21  H   UNL     1      45.178 -13.521   6.412  1.00  0.00     0.126 HD
ENDBRANCH  11  19
BRANCH   1  22
HETATM   22  C   UNL     1      44.228 -19.952   4.005  1.00  0.00    -0.005 A 
HETATM   23  C   UNL     1      44.687 -21.247   4.292  1.00  0.00     0.014 A 
HETATM   24  C   UNL     1      44.692 -22.240   3.310  1.00  0.00     0.001 A 
HETATM   25  C   UNL     1      44.250 -21.944   2.022  1.00  0.00     0.000 A 
HETATM   26  C   UNL     1      43.817 -20.656   1.715  1.00  0.00     0.001 A 
HETATM   27  C   UNL     1      43.813 -19.662   2.698  1.00  0.00     0.014 A 
ENDBRANCH   1  22
TORSDOF 3
ENDMDL
MODEL 2
REMARK VINA RESULT:      -9.1      1.486      2.281
REMARK  3 active torsions:
REMARK  status: ('A' for Active; 'I' for Inactive)
REMARK    1  A    between atoms: C_4  and  C_5 
REMARK    2  A    between atoms: C_11  and  C_12 
REMARK    3  A    between atoms: C_21  and  N_22 
ROOT
HETATM    1  C   UNL     1      43.938 -19.351   6.406  1.00  0.00     0.098 C 
HETATM    2  N   UNL     1      44.015 -19.866   7.651  1.00  0.00    -0.172 NA
HETATM    3  N   UNL     1      43.852 -18.816   8.471  1.00  0.00    -0.256 N 
HETATM    4  H   UNL     1      43.936 -18.957   9.471  1.00  0.00     0.191 HD
HETATM    5  C   UNL     1      43.674 -17.655   7.800  1.00  0.00     0.175 C 
HETATM    6  C   UNL     1      43.602 -17.964   6.463  1.00  0.00     0.036 C 
HETATM    7  C   UNL     1      43.371 -16.861   5.476  1.00  0.00     0.077 C 
HETATM    8  C   UNL     1      43.769 -15.519   6.148  1.00  0.00     0.076 C 
HETATM    9  C   UNL     1      44.045 -14.418   5.283  1.00  0.00     0.100 C 
HETATM   10  N   UNL     1      44.241 -13.525   4.570  1.00  0.00    -0.192 NA
HETATM   11  C   UNL     1      43.872 -15.373   7.497  1.00  0.00     0.140 C 
HETATM   12  O   UNL     1      43.668 -16.456   8.368  1.00  0.00    -0.279 OA
ENDROOT
BRANCH   7  13
HETATM   13  C   UNL     1      41.914 -16.736   4.907  1.00  0.00     0.003 C 
HETATM   14  C   UNL     1      41.389 -17.972   4.141  1.00  0.00     0.032 C 
HETATM   15  C   UNL     1      41.613 -17.933   2.663  1.00  0.00    -0.030 C 
HETATM   16  C   UNL     1      41.860 -16.804   1.991  1.00  0.00    -0.031 C 
HETATM   17  C   UNL     1      41.927 -15.456   2.633  1.00  0.00     0.027 C 
HETATM   18  C   UNL     1      41.624 -15.435   4.132  1.00  0.00     0.009 C 
ENDBRANCH   7  13
BRANCH  11  19
HETATM   19  N   UNL     1      44.180 -14.207   8.159  1.00  0.00    -0.282 NA
HETATM   20  H   UNL     1      44.230 -14.274   9.173  1.00  0.00     0.126 HD
HETATM   21  H   UNL     1      44.981 -13.733   7.749  1.00  0.00     0.126 HD
ENDBRANCH  11  19
BRANCH   1  22
HETATM   22  C   UNL     1      44.217 -20.210   5.253  1.00  0.00    -0.005 A 
HETATM   23  C   UNL     1      44.384 -21.591   5.436  1.00  0.00     0.014 A 
HETATM   24  C   UNL     1      44.636 -22.433   4.351  1.00  0.00     0.001 A 
HETATM   25  C   UNL     1      44.739 -21.899   3.068  1.00  0.00     0.000 A 
HETATM   26  C   UNL     1      44.602 -20.526   2.874  1.00  0.00     0.001 A 
HETATM   27  C   UNL     1      44.350 -19.684   3.961  1.00  0.00     0.014 A 
ENDBRANCH   1  22
TORSDOF 3
ENDMDL
MODEL 3
REMARK VINA RESULT:      -9.1      1.807      5.481
REMARK  3 active torsions:
REMARK  status: ('A' for Active; 'I' for Inactive)
REMARK    1  A    between atoms: C_4  and  C_5 
REMARK    2  A    between atoms: C_11  and  C_12 
REMARK    3  A    between atoms: C_21  and  N_22 
ROOT
HETATM    1  C   UNL     1      42.127 -15.744   5.178  1.00  0.00     0.098 C 
HETATM    2  N   UNL     1      42.235 -14.591   5.871  1.00  0.00    -0.172 NA
HETATM    3  N   UNL     1      43.015 -14.890   6.921  1.00  0.00    -0.256 N 
HETATM    4  H   UNL     1      43.184 -14.180   7.624  1.00  0.00     0.191 HD
HETATM    5  C   UNL     1      43.408 -16.184   6.926  1.00  0.00     0.175 C 
HETATM    6  C   UNL     1      42.959 -16.751   5.757  1.00  0.00     0.036 C 
HETATM    7  C   UNL     1      43.282 -18.185   5.477  1.00  0.00     0.077 C 
HETATM    8  C   UNL     1      43.635 -18.875   6.822  1.00  0.00     0.076 C 
HETATM    9  C   UNL     1      43.548 -20.299   6.863  1.00  0.00     0.100 C 
HETATM   10  N   UNL     1      43.499 -21.457   6.876  1.00  0.00    -0.192 NA
HETATM   11  C   UNL     1      43.999 -18.178   7.933  1.00  0.00     0.140 C 
HETATM   12  O   UNL     1      44.030 -16.773   7.939  1.00  0.00    -0.279 OA
ENDROOT
BRANCH   7  13
HETATM   13  C   UNL     1      44.440 -18.446   4.450  1.00  0.00     0.003 C 
HETATM   14  C   UNL     1      44.217 -17.870   3.033  1.00  0.00     0.032 C 
HETATM   15  C   UNL     1      43.593 -18.821   2.063  1.00  0.00    -0.030 C 
HETATM   16  C   UNL     1      43.591 -20.147   2.237  1.00  0.00    -0.031 C 
HETATM   17  C   UNL     1      44.222 -20.828   3.408  1.00  0.00     0.027 C 
HETATM   18  C   UNL     1      44.944 -19.902   4.387  1.00  0.00     0.009 C 
ENDBRANCH   7  13
BRANCH  11  19
HETATM   19  N   UNL     1      44.361 -18.725   9.143  1.00  0.00    -0.282 NA
HETATM   20  H   UNL     1      44.490 -18.063   9.906  1.00  0.00     0.126 HD
HETATM   21  H   UNL     1      43.779 -19.519   9.395  1.00  0.00     0.126 HD
ENDBRANCH  11  19
BRANCH   1  22
HETATM   22  C   UNL     1      41.219 -15.813   4.031  1.00  0.00    -0.005 A 
HETATM   23  C   UNL     1      40.487 -14.676   3.652  1.00  0.00     0.014 A 
HETATM   24  C   UNL     1      39.626 -14.713   2.553  1.00  0.00     0.001 A 
HETATM   25  C   UNL     1      39.474 -15.893   1.829  1.00  0.00     0.000 A 
HETATM   26  C   UNL     1      40.173 -17.036   2.210  1.00  0.00     0.001 A 
HETATM   27  C   UNL     1      41.036 -16.999   3.310  1.00  0.00     0.014 A 
ENDBRANCH   1  22
TORSDOF 3
ENDMDL
MODEL 4
REMARK VINA RESULT:      -9.0      3.164      4.685
REMARK  3 active torsions:
REMARK  status: ('A' for Active; 'I' for Inactive)
REMARK    1  A    between atoms: C_4  and  C_5 
REMARK    2  A    between atoms: C_11  and  C_12 
REMARK    3  A    between atoms: C_21  and  N_22 
ROOT
HETATM    1  C   UNL     1      43.462 -17.427   3.509  1.00  0.00     0.098 C 
HETATM    2  N   UNL     1      44.322 -18.214   2.830  1.00  0.00    -0.172 NA
HETATM    3  N   UNL     1      44.089 -17.944   1.536  1.00  0.00    -0.256 N 
HETATM    4  H   UNL     1      44.584 -18.473   0.828  1.00  0.00     0.191 HD
HETATM    5  C   UNL     1      43.118 -17.018   1.364  1.00  0.00     0.175 C 
HETATM    6  C   UNL     1      42.762 -16.565   2.611  1.00  0.00     0.036 C 
HETATM    7  C   UNL     1      41.718 -15.497   2.723  1.00  0.00     0.077 C 
HETATM    8  C   UNL     1      40.891 -15.488   1.409  1.00  0.00     0.076 C 
HETATM    9  C   UNL     1      39.603 -14.876   1.458  1.00  0.00     0.100 C 
HETATM   10  N   UNL     1      38.569 -14.353   1.504  1.00  0.00    -0.192 NA
HETATM   11  C   UNL     1      41.342 -16.044   0.252  1.00  0.00     0.140 C 
HETATM   12  O   UNL     1      42.579 -16.709   0.192  1.00  0.00    -0.279 OA
ENDROOT
BRANCH   7  13
HETATM   13  C   UNL     1      42.242 -14.045   3.007  1.00  0.00     0.003 C 
HETATM   14  C   UNL     1      43.695 -13.949   3.524  1.00  0.00     0.032 C 
HETATM   15  C   UNL     1      43.829 -13.931   5.013  1.00  0.00    -0.030 C 
HETATM   16  C   UNL     1      42.822 -13.615   5.834  1.00  0.00    -0.031 C 
HETATM   17  C   UNL     1      41.457 -13.232   5.359  1.00  0.00     0.027 C 
HETATM   18  C   UNL     1      41.294 -13.159   3.841  1.00  0.00     0.009 C 
ENDBRANCH   7  13
BRANCH  11  19
HETATM   19  N   UNL     1      40.681 -16.037  -0.955  1.00  0.00    -0.282 NA
HETATM   20  H   UNL     1      39.780 -16.510  -0.968  1.00  0.00     0.126 HD
HETATM   21  H   UNL     1      40.654 -15.111  -1.373  1.00  0.00     0.126 HD
ENDBRANCH  11  19
BRANCH   1  22
HETATM   22  C   UNL     1      43.347 -17.572   4.962  1.00  0.00    -0.005 A 
HETATM   23  C   UNL     1      44.432 -18.072   5.701  1.00  0.00     0.014 A 
HETATM   24  C   UNL     1      44.352 -18.205   7.089  1.00  0.00     0.001 A 
HETATM   25  C   UNL     1      43.180 -17.854   7.754  1.00  0.00     0.000 A 
HETATM   26  C   UNL     1      42.086 -17.381   7.031  1.00  0.00     0.001 A 
HETATM   27  C   UNL     1      42.166 -17.248   5.642  1.00  0.00     0.014 A 
ENDBRANCH   1  22
TORSDOF 3
ENDMDL
MODEL 5
REMARK VINA RESULT:      -8.9      2.811      6.146
REMARK  3 active torsions:
REMARK  status: ('A' for Active; 'I' for Inactive)
REMARK    1  A    between atoms: C_4  and  C_5 
REMARK    2  A    between atoms: C_11  and  C_12 
REMARK    3  A    between atoms: C_21  and  N_22 
ROOT
HETATM    1  C   UNL     1      41.453 -13.920   2.017  1.00  0.00     0.098 C 
HETATM    2  N   UNL     1      42.409 -12.983   1.845  1.00  0.00    -0.172 NA
HETATM    3  N   UNL     1      43.262 -13.171   2.864  1.00  0.00    -0.256 N 
HETATM    4  H   UNL     1      44.040 -12.530   2.976  1.00  0.00     0.191 HD
HETATM    5  C   UNL     1      42.889 -14.186   3.676  1.00  0.00     0.175 C 
HETATM    6  C   UNL     1      41.789 -14.780   3.105  1.00  0.00     0.036 C 
HETATM    7  C   UNL     1      41.177 -15.969   3.780  1.00  0.00     0.077 C 
HETATM    8  C   UNL     1      41.623 -15.965   5.267  1.00  0.00     0.076 C 
HETATM    9  C   UNL     1      40.835 -16.726   6.182  1.00  0.00     0.100 C 
HETATM   10  N   UNL     1      40.201 -17.368   6.910  1.00  0.00    -0.192 NA
HETATM   11  C   UNL     1      42.703 -15.266   5.710  1.00  0.00     0.140 C 
HETATM   12  O   UNL     1      43.458 -14.458   4.843  1.00  0.00    -0.279 OA
ENDROOT
BRANCH   7  13
HETATM   13  C   UNL     1      41.507 -17.368   3.151  1.00  0.00     0.003 C 
HETATM   14  C   UNL     1      42.881 -17.964   3.534  1.00  0.00     0.032 C 
HETATM   15  C   UNL     1      43.988 -17.646   2.581  1.00  0.00    -0.030 C 
HETATM   16  C   UNL     1      43.777 -17.248   1.322  1.00  0.00    -0.031 C 
HETATM   17  C   UNL     1      42.417 -17.088   0.722  1.00  0.00     0.027 C 
HETATM   18  C   UNL     1      41.255 -17.480   1.634  1.00  0.00     0.009 C 
ENDBRANCH   7  13
BRANCH  11  19
HETATM   19  N   UNL     1      43.176 -15.250   7.002  1.00  0.00    -0.282 NA
HETATM   20  H   UNL     1      43.357 -14.328   7.395  1.00  0.00     0.126 HD
HETATM   21  H   UNL     1      42.632 -15.848   7.618  1.00  0.00     0.126 HD
ENDBRANCH  11  19
BRANCH   1  22
HETATM   22  C   UNL     1      40.272 -13.910   1.149  1.00  0.00    -0.005 A 
HETATM   23  C   UNL     1      38.989 -13.924   1.718  1.00  0.00     0.014 A 
HETATM   24  C   UNL     1      37.848 -13.901   0.912  1.00  0.00     0.001 A 
HETATM   25  C   UNL     1      37.978 -13.877  -0.475  1.00  0.00     0.000 A 
HETATM   26  C   UNL     1      39.245 -13.890  -1.054  1.00  0.00     0.001 A 
HETATM   27  C   UNL     1      40.387 -13.913  -0.247  1.00  0.00     0.014 A 
ENDBRANCH   1  22
TORSDOF 3
ENDMDL
MODEL 6
REMARK VINA RESULT:      -8.8      2.301      3.775
REMARK  3 active torsions:
REMARK  status: ('A' for Active; 'I' for Inactive)
REMARK    1  A    between atoms: C_4  and  C_5 
REMARK    2  A    between atoms: C_11  and  C_12 
REMARK    3  A    between atoms: C_21  and  N_22 
ROOT
HETATM    1  C   UNL     1      43.871 -18.434   2.403  1.00  0.00     0.098 C 
HETATM    2  N   UNL     1      44.137 -18.047   1.138  1.00  0.00    -0.172 NA
HETATM    3  N   UNL     1      43.673 -16.790   1.056  1.00  0.00    -0.256 N 
HETATM    4  H   UNL     1      43.708 -16.311   0.164  1.00  0.00     0.191 HD
HETATM    5  C   UNL     1      43.123 -16.362   2.216  1.00  0.00     0.175 C 
HETATM    6  C   UNL     1      43.332 -17.345   3.153  1.00  0.00     0.036 C 
HETATM    7  C   UNL     1      42.852 -17.124   4.554  1.00  0.00     0.077 C 
HETATM    8  C   UNL     1      41.759 -16.022   4.524  1.00  0.00     0.076 C 
HETATM    9  C   UNL     1      40.872 -15.957   5.640  1.00  0.00     0.100 C 
HETATM   10  N   UNL     1      40.175 -15.899   6.564  1.00  0.00    -0.192 NA
HETATM   11  C   UNL     1      41.620 -15.152   3.486  1.00  0.00     0.140 C 
HETATM   12  O   UNL     1      42.438 -15.234   2.347  1.00  0.00    -0.279 OA
ENDROOT
BRANCH   7  13
HETATM   13  C   UNL     1      43.947 -16.729   5.606  1.00  0.00     0.003 C 
HETATM   14  C   UNL     1      45.041 -17.791   5.862  1.00  0.00     0.032 C 
HETATM   15  C   UNL     1      44.758 -18.719   6.999  1.00  0.00    -0.030 C 
HETATM   16  C   UNL     1      43.878 -18.441   7.967  1.00  0.00    -0.031 C 
HETATM   17  C   UNL     1      43.091 -17.172   8.031  1.00  0.00     0.027 C 
HETATM   18  C   UNL     1      43.405 -16.157   6.932  1.00  0.00     0.009 C 
ENDBRANCH   7  13
BRANCH  11  19
HETATM   19  N   UNL     1      40.702 -14.129   3.412  1.00  0.00    -0.282 NA
HETATM   20  H   UNL     1      40.433 -13.845   2.472  1.00  0.00     0.126 HD
HETATM   21  H   UNL     1      39.907 -14.281   4.027  1.00  0.00     0.126 HD
ENDBRANCH  11  19
BRANCH   1  22
HETATM   22  C   UNL     1      44.122 -19.822   2.798  1.00  0.00    -0.005 A 
HETATM   23  C   UNL     1      43.789 -20.868   1.923  1.00  0.00     0.014 A 
HETATM   24  C   UNL     1      44.032 -22.199   2.272  1.00  0.00     0.001 A 
HETATM   25  C   UNL     1      44.599 -22.500   3.508  1.00  0.00     0.000 A 
HETATM   26  C   UNL     1      44.910 -21.474   4.398  1.00  0.00     0.001 A 
HETATM   27  C   UNL     1      44.667 -20.142   4.049  1.00  0.00     0.014 A 
ENDBRANCH   1  22
TORSDOF 3
ENDMDL
MODEL 7
REMARK VINA RESULT:      -8.5      2.877      4.619
REMARK  3 active torsions:
REMARK  status: ('A' for Active; 'I' for Inactive)
REMARK    1  A    between atoms: C_4  and  C_5 
REMARK    2  A    between atoms: C_11  and  C_12 
REMARK    3  A    between atoms: C_21  and  N_22 
ROOT
HETATM    1  C   UNL     1      41.347 -15.510   5.004  1.00  0.00     0.098 C 
HETATM    2  N   UNL     1      40.736 -15.315   6.191  1.00  0.00    -0.172 NA
HETATM    3  N   UNL     1      40.126 -14.125   6.074  1.00  0.00    -0.256 N 
HETATM    4  H   UNL     1      39.648 -13.738   6.879  1.00  0.00     0.191 HD
HETATM    5  C   UNL     1      40.323 -13.556   4.863  1.00  0.00     0.175 C 
HETATM    6  C   UNL     1      41.007 -14.464   4.092  1.00  0.00     0.036 C 
HETATM    7  C   UNL     1      41.335 -14.110   2.675  1.00  0.00     0.077 C 
HETATM    8  C   UNL     1      41.268 -12.566   2.533  1.00  0.00     0.076 C 
HETATM    9  C   UNL     1      41.952 -11.985   1.423  1.00  0.00     0.100 C 
HETATM   10  N   UNL     1      42.490 -11.529   0.503  1.00  0.00    -0.192 NA
HETATM   11  C   UNL     1      40.607 -11.773   3.421  1.00  0.00     0.140 C 
HETATM   12  O   UNL     1      39.979 -12.312   4.557  1.00  0.00    -0.279 OA
ENDROOT
BRANCH   7  13
HETATM   13  C   UNL     1      40.432 -14.764   1.571  1.00  0.00     0.003 C 
HETATM   14  C   UNL     1      39.495 -15.893   2.058  1.00  0.00     0.032 C 
HETATM   15  C   UNL     1      40.061 -17.271   1.940  1.00  0.00    -0.030 C 
HETATM   16  C   UNL     1      41.084 -17.574   1.134  1.00  0.00    -0.031 C 
HETATM   17  C   UNL     1      41.766 -16.578   0.252  1.00  0.00     0.027 C 
HETATM   18  C   UNL     1      41.169 -15.171   0.279  1.00  0.00     0.009 C 
ENDBRANCH   7  13
BRANCH  11  19
HETATM   19  N   UNL     1      40.474 -10.406   3.335  1.00  0.00    -0.282 NA
HETATM   20  H   UNL     1      39.596 -10.072   2.943  1.00  0.00     0.126 HD
HETATM   21  H   UNL     1      40.728  -9.941   4.203  1.00  0.00     0.126 HD
ENDBRANCH  11  19
BRANCH   1  22
HETATM   22  C   UNL     1      42.235 -16.663   4.832  1.00  0.00    -0.005 A 
HETATM   23  C   UNL     1      43.162 -16.678   3.778  1.00  0.00     0.014 A 
HETATM   24  C   UNL     1      44.029 -17.759   3.602  1.00  0.00     0.001 A 
HETATM   25  C   UNL     1      43.967 -18.846   4.471  1.00  0.00     0.000 A 
HETATM   26  C   UNL     1      43.033 -18.857   5.505  1.00  0.00     0.001 A 
HETATM   27  C   UNL     1      42.166 -17.775   5.681  1.00  0.00     0.014 A 
ENDBRANCH   1  22
TORSDOF 3
ENDMDL
MODEL 8
REMARK VINA RESULT:      -8.5      6.921      9.737
REMARK  3 active torsions:
REMARK  status: ('A' for Active; 'I' for Inactive)
REMARK    1  A    between atoms: C_4  and  C_5 
REMARK    2  A    between atoms: C_11  and  C_12 
REMARK    3  A    between atoms: C_21  and  N_22 
ROOT
HETATM    1  C   UNL     1      40.369 -14.131  -0.528  1.00  0.00     0.098 C 
HETATM    2  N   UNL     1      41.473 -14.888  -0.361  1.00  0.00    -0.172 NA
HETATM    3  N   UNL     1      41.601 -15.570  -1.510  1.00  0.00    -0.256 N 
HETATM    4  H   UNL     1      42.338 -16.260  -1.591  1.00  0.00     0.191 HD
HETATM    5  C   UNL     1      40.625 -15.278  -2.400  1.00  0.00     0.175 C 
HETATM    6  C   UNL     1      39.871 -14.265  -1.860  1.00  0.00     0.036 C 
HETATM    7  C   UNL     1      38.727 -13.712  -2.652  1.00  0.00     0.077 C 
HETATM    8  C   UNL     1      38.326 -14.762  -3.723  1.00  0.00     0.076 C 
HETATM    9  C   UNL     1      37.019 -14.649  -4.286  1.00  0.00     0.100 C 
HETATM   10  N   UNL     1      35.965 -14.529  -4.754  1.00  0.00    -0.192 NA
HETATM   11  C   UNL     1      39.156 -15.767  -4.115  1.00  0.00     0.140 C 
HETATM   12  O   UNL     1      40.422 -15.941  -3.531  1.00  0.00    -0.279 OA
ENDROOT
BRANCH   7  13
HETATM   13  C   UNL     1      38.977 -12.333  -3.359  1.00  0.00     0.003 C 
HETATM   14  C   UNL     1      40.426 -12.081  -3.836  1.00  0.00     0.032 C 
HETATM   15  C   UNL     1      41.291 -11.359  -2.855  1.00  0.00    -0.030 C 
HETATM   16  C   UNL     1      40.801 -10.633  -1.844  1.00  0.00    -0.031 C 
HETATM   17  C   UNL     1      39.340 -10.450  -1.589  1.00  0.00     0.027 C 
HETATM   18  C   UNL     1      38.414 -11.105  -2.615  1.00  0.00     0.009 C 
ENDBRANCH   7  13
BRANCH  11  19
HETATM   19  N   UNL     1      38.881 -16.706  -5.083  1.00  0.00    -0.282 NA
HETATM   20  H   UNL     1      38.531 -17.600  -4.745  1.00  0.00     0.126 HD
HETATM   21  H   UNL     1      38.328 -16.321  -5.845  1.00  0.00     0.126 HD
ENDBRANCH  11  19
BRANCH   1  22
HETATM   22  C   UNL     1      39.851 -13.355   0.601  1.00  0.00    -0.005 A 
HETATM   23  C   UNL     1      40.732 -12.889   1.590  1.00  0.00     0.014 A 
HETATM   24  C   UNL     1      40.264 -12.135   2.668  1.00  0.00     0.001 A 
HETATM   25  C   UNL     1      38.905 -11.850   2.778  1.00  0.00     0.000 A 
HETATM   26  C   UNL     1      38.015 -12.327   1.819  1.00  0.00     0.001 A 
HETATM   27  C   UNL     1      38.484 -13.082   0.739  1.00  0.00     0.014 A 
ENDBRANCH   1  22
TORSDOF 3
ENDMDL
MODEL 9
REMARK VINA RESULT:      -8.5      3.067      5.931
REMARK  3 active torsions:
REMARK  status: ('A' for Active; 'I' for Inactive)
REMARK    1  A    between atoms: C_4  and  C_5 
REMARK    2  A    between atoms: C_11  and  C_12 
REMARK    3  A    between atoms: C_21  and  N_22 
ROOT
HETATM    1  C   UNL     1      42.179 -13.976   5.567  1.00  0.00     0.098 C 
HETATM    2  N   UNL     1      41.069 -13.222   5.704  1.00  0.00    -0.172 NA
HETATM    3  N   UNL     1      40.220 -13.684   4.772  1.00  0.00    -0.256 N 
HETATM    4  H   UNL     1      39.329 -13.219   4.646  1.00  0.00     0.191 HD
HETATM    5  C   UNL     1      40.745 -14.701   4.049  1.00  0.00     0.175 C 
HETATM    6  C   UNL     1      41.965 -15.007   4.602  1.00  0.00     0.036 C 
HETATM    7  C   UNL     1      42.763 -16.130   4.017  1.00  0.00     0.077 C 
HETATM    8  C   UNL     1      42.255 -16.386   2.573  1.00  0.00     0.076 C 
HETATM    9  C   UNL     1      43.131 -17.087   1.692  1.00  0.00     0.100 C 
HETATM   10  N   UNL     1      43.842 -17.681   0.994  1.00  0.00    -0.192 NA
HETATM   11  C   UNL     1      41.040 -15.958   2.133  1.00  0.00     0.140 C 
HETATM   12  O   UNL     1      40.185 -15.210   2.960  1.00  0.00    -0.279 OA
ENDROOT
BRANCH   7  13
HETATM   13  C   UNL     1      42.741 -17.483   4.813  1.00  0.00     0.003 C 
HETATM   14  C   UNL     1      41.825 -17.509   6.058  1.00  0.00     0.032 C 
HETATM   15  C   UNL     1      42.503 -17.150   7.341  1.00  0.00    -0.030 C 
HETATM   16  C   UNL     1      43.829 -17.197   7.505  1.00  0.00    -0.031 C 
HETATM   17  C   UNL     1      44.781 -17.625   6.434  1.00  0.00     0.027 C 
HETATM   18  C   UNL     1      44.127 -18.080   5.129  1.00  0.00     0.009 C 
ENDBRANCH   7  13
BRANCH  11  19
HETATM   19  N   UNL     1      40.512 -16.183   0.883  1.00  0.00    -0.282 NA
HETATM   20  H   UNL     1      39.760 -16.867   0.838  1.00  0.00     0.126 HD
HETATM   21  H   UNL     1      40.296 -15.317   0.396  1.00  0.00     0.126 HD
ENDBRANCH  11  19
BRANCH   1  22
HETATM   22  C   UNL     1      43.375 -13.644   6.345  1.00  0.00    -0.005 A 
HETATM   23  C   UNL     1      44.639 -14.049   5.888  1.00  0.00     0.014 A 
HETATM   24  C   UNL     1      45.795 -13.731   6.605  1.00  0.00     0.001 A 
HETATM   25  C   UNL     1      45.699 -13.016   7.796  1.00  0.00     0.000 A 
HETATM   26  C   UNL     1      44.449 -12.630   8.276  1.00  0.00     0.001 A 
HETATM   27  C   UNL     1      43.292 -12.948   7.558  1.00  0.00     0.014 A 
ENDBRANCH   1  22
TORSDOF 3
ENDMDL
MODEL 10
REMARK VINA RESULT:      -8.5      3.648      5.647
REMARK  3 active torsions:
REMARK  status: ('A' for Active; 'I' for Inactive)
REMARK    1  A    between atoms: C_4  and  C_5 
REMARK    2  A    between atoms: C_11  and  C_12 
REMARK    3  A    between atoms: C_21  and  N_22 
ROOT
HETATM    1  C   UNL     1      40.796 -16.192   3.005  1.00  0.00     0.098 C 
HETATM    2  N   UNL     1      40.622 -16.938   1.895  1.00  0.00    -0.172 NA
HETATM    3  N   UNL     1      40.000 -16.125   1.027  1.00  0.00    -0.256 N 
HETATM    4  H   UNL     1      39.707 -16.496   0.131  1.00  0.00     0.191 HD
HETATM    5  C   UNL     1      39.772 -14.894   1.538  1.00  0.00     0.175 C 
HETATM    6  C   UNL     1      40.373 -14.847   2.773  1.00  0.00     0.036 C 
HETATM    7  C   UNL     1      40.309 -13.577   3.563  1.00  0.00     0.077 C 
HETATM    8  C   UNL     1      39.127 -12.729   3.021  1.00  0.00     0.076 C 
HETATM    9  C   UNL     1      38.613 -11.711   3.879  1.00  0.00     0.100 C 
HETATM   10  N   UNL     1      38.221 -10.871   4.576  1.00  0.00    -0.192 NA
HETATM   11  C   UNL     1      38.576 -12.933   1.794  1.00  0.00     0.140 C 
HETATM   12  O   UNL     1      39.021 -13.969   0.955  1.00  0.00    -0.279 OA
ENDROOT
BRANCH   7  13
HETATM   13  C   UNL     1      41.609 -12.698   3.566  1.00  0.00     0.003 C 
HETATM   14  C   UNL     1      42.795 -13.258   2.748  1.00  0.00     0.032 C 
HETATM   15  C   UNL     1      43.757 -14.092   3.532  1.00  0.00    -0.030 C 
HETATM   16  C   UNL     1      43.848 -14.045   4.865  1.00  0.00    -0.031 C 
HETATM   17  C   UNL     1      43.013 -13.147   5.720  1.00  0.00     0.027 C 
HETATM   18  C   UNL     1      42.070 -12.216   4.956  1.00  0.00     0.009 C 
ENDBRANCH   7  13
BRANCH  11  19
HETATM   19  N   UNL     1      37.556 -12.196   1.237  1.00  0.00    -0.282 NA
HETATM   20  H   UNL     1      36.711 -12.714   1.007  1.00  0.00     0.126 HD
HETATM   21  H   UNL     1      37.374 -11.340   1.755  1.00  0.00     0.126 HD
ENDBRANCH  11  19
BRANCH   1  22
HETATM   22  C   UNL     1      41.327 -16.819   4.218  1.00  0.00    -0.005 A 
HETATM   23  C   UNL     1      40.966 -16.317   5.478  1.00  0.00     0.014 A 
HETATM   24  C   UNL     1      41.447 -16.907   6.649  1.00  0.00     0.001 A 
HETATM   25  C   UNL     1      42.309 -18.000   6.573  1.00  0.00     0.000 A 
HETATM   26  C   UNL     1      42.697 -18.492   5.329  1.00  0.00     0.001 A 
HETATM   27  C   UNL     1      42.215 -17.901   4.157  1.00  0.00     0.014 A 
ENDBRANCH   1  22
TORSDOF 3
ENDMDL
