MODEL 1
REMARK VINA RESULT:      -8.4      0.000      0.000
REMARK  8 active torsions:
REMARK  status: ('A' for Active; 'I' for Inactive)
REMARK    1  A    between atoms: C_2  and  O_3 
REMARK    2  A    between atoms: O_3  and  C_4 
REMARK    3  A    between atoms: C_4  and  C_5 
REMARK    4  A    between atoms: C_6  and  O_7 
REMARK    5  A    between atoms: C_6  and  C_8 
REMARK    6  A    between atoms: C_16  and  C_17 
REMARK    7  A    between atoms: C_18  and  C_19 
REMARK    8  A    between atoms: N_26  and  C_27 
ROOT
HETATM    1  C   UNL     1      41.467 -14.046   4.597  1.00  0.00     0.177 C 
HETATM    2  C   UNL     1      41.706 -12.757   5.386  1.00  0.00     0.250 C 
HETATM    3  N   UNL     1      42.783 -12.885   6.352  1.00  0.00    -0.303 N 
HETATM    4  C   UNL     1      43.807 -13.764   6.269  1.00  0.00     0.319 C 
HETATM    5  O   UNL     1      44.728 -13.740   7.075  1.00  0.00    -0.247 OA
HETATM    6  N   UNL     1      43.749 -14.678   5.275  1.00  0.00    -0.333 N 
HETATM    7  C   UNL     1      42.825 -14.594   4.164  1.00  0.00     0.142 C 
HETATM    8  H   UNL     1      42.854 -12.239   7.129  1.00  0.00     0.167 HD
HETATM    9  H   UNL     1      44.579 -15.251   5.190  1.00  0.00     0.165 HD
ENDROOT
BRANCH   7  10
HETATM   10  C   UNL     1      42.776 -15.924   3.472  1.00  0.00     0.015 A 
HETATM   11  C   UNL     1      42.068 -16.295   2.288  1.00  0.00     0.097 A 
HETATM   12  N   UNL     1      42.305 -17.574   1.967  1.00  0.00    -0.167 NA
HETATM   13  N   UNL     1      43.142 -18.050   2.914  1.00  0.00    -0.244 N 
HETATM   14  C   UNL     1      43.457 -17.075   3.828  1.00  0.00     0.130 A 
BRANCH  11  15
HETATM   15  C   UNL     1      41.212 -15.480   1.425  1.00  0.00    -0.005 A 
HETATM   16  C   UNL     1      41.752 -14.891   0.272  1.00  0.00     0.014 A 
HETATM   17  C   UNL     1      40.959 -14.103  -0.565  1.00  0.00     0.001 A 
HETATM   18  C   UNL     1      39.616 -13.897  -0.259  1.00  0.00     0.000 A 
HETATM   19  C   UNL     1      39.063 -14.488   0.875  1.00  0.00     0.001 A 
HETATM   20  C   UNL     1      39.854 -15.283   1.710  1.00  0.00     0.014 A 
ENDBRANCH  11  15
BRANCH  13  21
HETATM   21  C   UNL     1      43.592 -19.400   2.880  1.00  0.00     0.058 A 
HETATM   22  C   UNL     1      44.365 -19.895   3.944  1.00  0.00     0.031 A 
HETATM   23  C   UNL     1      44.814 -21.217   3.934  1.00  0.00     0.002 A 
HETATM   24  C   UNL     1      44.499 -22.053   2.864  1.00  0.00     0.000 A 
HETATM   25  C   UNL     1      43.736 -21.568   1.803  1.00  0.00     0.002 A 
HETATM   26  C   UNL     1      43.282 -20.247   1.807  1.00  0.00     0.031 A 
ENDBRANCH  13  21
ENDBRANCH   7  10
BRANCH   1  27
HETATM   27  C   UNL     1      40.665 -15.046   5.397  1.00  0.00     0.270 C 
HETATM   28  O   UNL     1      39.531 -15.413   5.134  1.00  0.00    -0.265 OA
BRANCH  27  29
HETATM   29  O   UNL     1      41.408 -15.499   6.445  1.00  0.00    -0.321 OA
BRANCH  29  30
HETATM   30  C   UNL     1      41.313 -16.906   6.727  1.00  0.00     0.174 C 
HETATM   31  C   UNL     1      42.571 -17.406   7.413  1.00  0.00     0.034 C 
ENDBRANCH  29  30
ENDBRANCH  27  29
ENDBRANCH   1  27
BRANCH   2  32
HETATM   32  O   UNL     1      42.210 -11.787   4.442  1.00  0.00    -0.363 OA
HETATM   33  H   UNL     1      41.479 -11.161   4.290  1.00  0.00     0.213 HD
ENDBRANCH   2  32
BRANCH   2  34
HETATM   34  C   UNL     1      40.380 -12.207   6.014  1.00  0.00     0.439 C 
HETATM   35  F   UNL     1      39.358 -12.255   5.129  1.00  0.00    -0.166 F 
HETATM   36  F   UNL     1      39.995 -12.873   7.120  1.00  0.00    -0.166 F 
HETATM   37  F   UNL     1      40.549 -10.907   6.371  1.00  0.00    -0.166 F 
ENDBRANCH   2  34
TORSDOF 8
ENDMDL
MODEL 2
REMARK VINA RESULT:      -8.4      3.030      7.157
REMARK  8 active torsions:
REMARK  status: ('A' for Active; 'I' for Inactive)
REMARK    1  A    between atoms: C_2  and  O_3 
REMARK    2  A    between atoms: O_3  and  C_4 
REMARK    3  A    between atoms: C_4  and  C_5 
REMARK    4  A    between atoms: C_6  and  O_7 
REMARK    5  A    between atoms: C_6  and  C_8 
REMARK    6  A    between atoms: C_16  and  C_17 
REMARK    7  A    between atoms: C_18  and  C_19 
REMARK    8  A    between atoms: N_26  and  C_27 
ROOT
HETATM    1  C   UNL     1      42.191 -15.789   3.979  1.00  0.00     0.177 C 
HETATM    2  C   UNL     1      41.874 -15.886   2.484  1.00  0.00     0.250 C 
HETATM    3  N   UNL     1      41.850 -14.588   1.834  1.00  0.00    -0.303 N 
HETATM    4  C   UNL     1      42.505 -13.486   2.262  1.00  0.00     0.319 C 
HETATM    5  O   UNL     1      42.512 -12.456   1.600  1.00  0.00    -0.247 OA
HETATM    6  N   UNL     1      43.128 -13.572   3.459  1.00  0.00    -0.333 N 
HETATM    7  C   UNL     1      43.358 -14.820   4.153  1.00  0.00     0.142 C 
HETATM    8  H   UNL     1      41.374 -14.467   0.947  1.00  0.00     0.167 HD
HETATM    9  H   UNL     1      43.686 -12.760   3.694  1.00  0.00     0.165 HD
ENDROOT
BRANCH   7  10
HETATM   10  C   UNL     1      43.723 -14.523   5.577  1.00  0.00     0.015 A 
HETATM   11  C   UNL     1      44.047 -15.434   6.629  1.00  0.00     0.097 A 
HETATM   12  N   UNL     1      44.349 -14.777   7.757  1.00  0.00    -0.167 NA
HETATM   13  N   UNL     1      44.225 -13.462   7.472  1.00  0.00    -0.244 N 
HETATM   14  C   UNL     1      43.863 -13.276   6.161  1.00  0.00     0.130 A 
BRANCH  11  15
HETATM   15  C   UNL     1      44.122 -16.895   6.602  1.00  0.00    -0.005 A 
HETATM   16  C   UNL     1      43.500 -17.639   7.616  1.00  0.00     0.014 A 
HETATM   17  C   UNL     1      43.564 -19.035   7.619  1.00  0.00     0.001 A 
HETATM   18  C   UNL     1      44.248 -19.701   6.605  1.00  0.00     0.000 A 
HETATM   19  C   UNL     1      44.857 -18.975   5.584  1.00  0.00     0.001 A 
HETATM   20  C   UNL     1      44.789 -17.579   5.577  1.00  0.00     0.014 A 
ENDBRANCH  11  15
BRANCH  13  21
HETATM   21  C   UNL     1      44.467 -12.472   8.465  1.00  0.00     0.058 A 
HETATM   22  C   UNL     1      43.421 -11.622   8.859  1.00  0.00     0.031 A 
HETATM   23  C   UNL     1      43.634 -10.645   9.833  1.00  0.00     0.002 A 
HETATM   24  C   UNL     1      44.890 -10.507  10.419  1.00  0.00     0.000 A 
HETATM   25  C   UNL     1      45.935 -11.345  10.032  1.00  0.00     0.002 A 
HETATM   26  C   UNL     1      45.729 -12.326   9.057  1.00  0.00     0.031 A 
ENDBRANCH  13  21
ENDBRANCH   7  10
BRANCH   1  27
HETATM   27  C   UNL     1      40.974 -15.384   4.777  1.00  0.00     0.270 C 
HETATM   28  O   UNL     1      40.511 -16.004   5.721  1.00  0.00    -0.265 OA
BRANCH  27  29
HETATM   29  O   UNL     1      40.485 -14.203   4.304  1.00  0.00    -0.321 OA
BRANCH  29  30
HETATM   30  C   UNL     1      39.653 -13.455   5.207  1.00  0.00     0.174 C 
HETATM   31  C   UNL     1      40.437 -12.332   5.859  1.00  0.00     0.034 C 
ENDBRANCH  29  30
ENDBRANCH  27  29
ENDBRANCH   1  27
BRANCH   2  32
HETATM   32  O   UNL     1      43.000 -16.551   1.870  1.00  0.00    -0.363 OA
HETATM   33  H   UNL     1      43.548 -15.844   1.484  1.00  0.00     0.213 HD
ENDBRANCH   2  32
BRANCH   2  34
HETATM   34  C   UNL     1      40.583 -16.731   2.218  1.00  0.00     0.439 C 
HETATM   35  F   UNL     1      40.381 -17.644   3.195  1.00  0.00    -0.166 F 
HETATM   36  F   UNL     1      39.465 -15.984   2.118  1.00  0.00    -0.166 F 
HETATM   37  F   UNL     1      40.714 -17.409   1.048  1.00  0.00    -0.166 F 
ENDBRANCH   2  34
TORSDOF 8
ENDMDL
MODEL 3
REMARK VINA RESULT:      -8.2      2.150      5.655
REMARK  8 active torsions:
REMARK  status: ('A' for Active; 'I' for Inactive)
REMARK    1  A    between atoms: C_2  and  O_3 
REMARK    2  A    between atoms: O_3  and  C_4 
REMARK    3  A    between atoms: C_4  and  C_5 
REMARK    4  A    between atoms: C_6  and  O_7 
REMARK    5  A    between atoms: C_6  and  C_8 
REMARK    6  A    between atoms: C_16  and  C_17 
REMARK    7  A    between atoms: C_18  and  C_19 
REMARK    8  A    between atoms: N_26  and  C_27 
ROOT
HETATM    1  C   UNL     1      43.081 -15.251   4.634  1.00  0.00     0.177 C 
HETATM    2  C   UNL     1      42.807 -15.064   6.128  1.00  0.00     0.250 C 
HETATM    3  N   UNL     1      41.456 -14.606   6.395  1.00  0.00    -0.303 N 
HETATM    4  C   UNL     1      40.390 -14.799   5.586  1.00  0.00     0.319 C 
HETATM    5  O   UNL     1      39.264 -14.467   5.932  1.00  0.00    -0.247 OA
HETATM    6  N   UNL     1      40.634 -15.352   4.377  1.00  0.00    -0.333 N 
HETATM    7  C   UNL     1      41.887 -15.982   4.023  1.00  0.00     0.142 C 
HETATM    8  H   UNL     1      41.229 -14.162   7.278  1.00  0.00     0.167 HD
HETATM    9  H   UNL     1      39.800 -15.569   3.845  1.00  0.00     0.165 HD
ENDROOT
BRANCH   7  10
HETATM   10  C   UNL     1      41.945 -16.146   2.533  1.00  0.00     0.015 A 
HETATM   11  C   UNL     1      42.510 -17.212   1.768  1.00  0.00     0.097 A 
HETATM   12  N   UNL     1      42.332 -17.008   0.456  1.00  0.00    -0.167 NA
HETATM   13  N   UNL     1      41.673 -15.835   0.343  1.00  0.00    -0.244 N 
HETATM   14  C   UNL     1      41.411 -15.297   1.579  1.00  0.00     0.130 A 
BRANCH  11  15
HETATM   15  C   UNL     1      43.173 -18.433   2.226  1.00  0.00    -0.005 A 
HETATM   16  C   UNL     1      43.057 -19.609   1.469  1.00  0.00     0.014 A 
HETATM   17  C   UNL     1      43.673 -20.791   1.888  1.00  0.00     0.001 A 
HETATM   18  C   UNL     1      44.415 -20.809   3.067  1.00  0.00     0.000 A 
HETATM   19  C   UNL     1      44.551 -19.644   3.820  1.00  0.00     0.001 A 
HETATM   20  C   UNL     1      43.940 -18.459   3.399  1.00  0.00     0.014 A 
ENDBRANCH  11  15
BRANCH  13  21
HETATM   21  C   UNL     1      41.329 -15.308  -0.934  1.00  0.00     0.058 A 
HETATM   22  C   UNL     1      41.421 -13.924  -1.155  1.00  0.00     0.031 A 
HETATM   23  C   UNL     1      41.093 -13.385  -2.400  1.00  0.00     0.002 A 
HETATM   24  C   UNL     1      40.669 -14.221  -3.432  1.00  0.00     0.000 A 
HETATM   25  C   UNL     1      40.572 -15.595  -3.220  1.00  0.00     0.002 A 
HETATM   26  C   UNL     1      40.900 -16.142  -1.976  1.00  0.00     0.031 A 
ENDBRANCH  13  21
ENDBRANCH   7  10
BRANCH   1  27
HETATM   27  C   UNL     1      43.366 -13.933   3.953  1.00  0.00     0.270 C 
HETATM   28  O   UNL     1      44.344 -13.692   3.265  1.00  0.00    -0.265 OA
BRANCH  27  29
HETATM   29  O   UNL     1      42.351 -13.058   4.200  1.00  0.00    -0.321 OA
BRANCH  29  30
HETATM   30  C   UNL     1      41.939 -12.239   3.093  1.00  0.00     0.174 C 
HETATM   31  C   UNL     1      40.452 -11.943   3.164  1.00  0.00     0.034 C 
ENDBRANCH  29  30
ENDBRANCH  27  29
ENDBRANCH   1  27
BRANCH   2  32
HETATM   32  O   UNL     1      42.841 -16.382   6.718  1.00  0.00    -0.363 OA
HETATM   33  H   UNL     1      42.354 -16.960   6.104  1.00  0.00     0.213 HD
ENDBRANCH   2  32
BRANCH   2  34
HETATM   34  C   UNL     1      43.903 -14.177   6.812  1.00  0.00     0.439 C 
HETATM   35  F   UNL     1      44.212 -14.639   8.045  1.00  0.00    -0.166 F 
HETATM   36  F   UNL     1      45.048 -14.101   6.105  1.00  0.00    -0.166 F 
HETATM   37  F   UNL     1      43.439 -12.909   6.956  1.00  0.00    -0.166 F 
ENDBRANCH   2  34
TORSDOF 8
ENDMDL
MODEL 4
REMARK VINA RESULT:      -8.1      2.790      5.391
REMARK  8 active torsions:
REMARK  status: ('A' for Active; 'I' for Inactive)
REMARK    1  A    between atoms: C_2  and  O_3 
REMARK    2  A    between atoms: O_3  and  C_4 
REMARK    3  A    between atoms: C_4  and  C_5 
REMARK    4  A    between atoms: C_6  and  O_7 
REMARK    5  A    between atoms: C_6  and  C_8 
REMARK    6  A    between atoms: C_16  and  C_17 
REMARK    7  A    between atoms: C_18  and  C_19 
REMARK    8  A    between atoms: N_26  and  C_27 
ROOT
HETATM    1  C   UNL     1      42.234 -13.168   4.035  1.00  0.00     0.177 C 
HETATM    2  C   UNL     1      41.279 -11.999   3.787  1.00  0.00     0.250 C 
HETATM    3  N   UNL     1      40.033 -12.130   4.522  1.00  0.00    -0.303 N 
HETATM    4  C   UNL     1      39.869 -12.838   5.661  1.00  0.00     0.319 C 
HETATM    5  O   UNL     1      38.808 -12.817   6.272  1.00  0.00    -0.247 OA
HETATM    6  N   UNL     1      40.918 -13.584   6.074  1.00  0.00    -0.333 N 
HETATM    7  C   UNL     1      42.254 -13.452   5.535  1.00  0.00     0.142 C 
HETATM    8  H   UNL     1      39.211 -11.610   4.235  1.00  0.00     0.167 HD
HETATM    9  H   UNL     1      40.786 -14.018   6.979  1.00  0.00     0.165 HD
ENDROOT
BRANCH   7  10
HETATM   10  C   UNL     1      43.060 -14.651   5.938  1.00  0.00     0.015 A 
HETATM   11  C   UNL     1      44.225 -14.714   6.763  1.00  0.00     0.097 A 
HETATM   12  N   UNL     1      44.637 -15.979   6.916  1.00  0.00    -0.167 NA
HETATM   13  N   UNL     1      43.778 -16.744   6.209  1.00  0.00    -0.244 N 
HETATM   14  C   UNL     1      42.806 -15.973   5.619  1.00  0.00     0.130 A 
BRANCH  11  15
HETATM   15  C   UNL     1      44.939 -13.633   7.445  1.00  0.00    -0.005 A 
HETATM   16  C   UNL     1      44.345 -12.999   8.547  1.00  0.00     0.014 A 
HETATM   17  C   UNL     1      45.002 -11.960   9.211  1.00  0.00     0.001 A 
HETATM   18  C   UNL     1      46.261 -11.546   8.782  1.00  0.00     0.000 A 
HETATM   19  C   UNL     1      46.868 -12.178   7.699  1.00  0.00     0.001 A 
HETATM   20  C   UNL     1      46.215 -13.222   7.037  1.00  0.00     0.014 A 
ENDBRANCH  11  15
BRANCH  13  21
HETATM   21  C   UNL     1      43.935 -18.157   6.148  1.00  0.00     0.058 A 
HETATM   22  C   UNL     1      43.562 -18.940   7.253  1.00  0.00     0.031 A 
HETATM   23  C   UNL     1      43.704 -20.328   7.214  1.00  0.00     0.002 A 
HETATM   24  C   UNL     1      44.220 -20.945   6.077  1.00  0.00     0.000 A 
HETATM   25  C   UNL     1      44.596 -20.175   4.977  1.00  0.00     0.002 A 
HETATM   26  C   UNL     1      44.455 -18.785   5.008  1.00  0.00     0.031 A 
ENDBRANCH  13  21
ENDBRANCH   7  10
BRANCH   1  27
HETATM   27  C   UNL     1      41.851 -14.380   3.218  1.00  0.00     0.270 C 
HETATM   28  O   UNL     1      40.759 -14.925   3.235  1.00  0.00    -0.265 OA
BRANCH  27  29
HETATM   29  O   UNL     1      42.900 -14.759   2.436  1.00  0.00    -0.321 OA
BRANCH  29  30
HETATM   30  C   UNL     1      42.700 -15.936   1.636  1.00  0.00     0.174 C 
HETATM   31  C   UNL     1      43.862 -16.900   1.792  1.00  0.00     0.034 C 
ENDBRANCH  29  30
ENDBRANCH  27  29
ENDBRANCH   1  27
BRANCH   2  32
HETATM   32  O   UNL     1      41.898 -10.833   4.374  1.00  0.00    -0.363 OA
HETATM   33  H   UNL     1      42.858 -10.990   4.326  1.00  0.00     0.213 HD
ENDBRANCH   2  32
BRANCH   2  34
HETATM   34  C   UNL     1      41.065 -11.738   2.257  1.00  0.00     0.439 C 
HETATM   35  F   UNL     1      42.188 -11.999   1.550  1.00  0.00    -0.166 F 
HETATM   36  F   UNL     1      40.067 -12.470   1.724  1.00  0.00    -0.166 F 
HETATM   37  F   UNL     1      40.751 -10.432   2.055  1.00  0.00    -0.166 F 
ENDBRANCH   2  34
TORSDOF 8
ENDMDL
MODEL 5
REMARK VINA RESULT:      -8.0      4.717      7.127
REMARK  8 active torsions:
REMARK  status: ('A' for Active; 'I' for Inactive)
REMARK    1  A    between atoms: C_2  and  O_3 
REMARK    2  A    between atoms: O_3  and  C_4 
REMARK    3  A    between atoms: C_4  and  C_5 
REMARK    4  A    between atoms: C_6  and  O_7 
REMARK    5  A    between atoms: C_6  and  C_8 
REMARK    6  A    between atoms: C_16  and  C_17 
REMARK    7  A    between atoms: C_18  and  C_19 
REMARK    8  A    between atoms: N_26  and  C_27 
ROOT
HETATM    1  C   UNL     1      40.417 -12.957  -1.702  1.00  0.00     0.177 C 
HETATM    2  C   UNL     1      39.705 -12.652  -3.021  1.00  0.00     0.250 C 
HETATM    3  N   UNL     1      39.662 -13.799  -3.911  1.00  0.00    -0.303 N 
HETATM    4  C   UNL     1      39.729 -15.092  -3.524  1.00  0.00     0.319 C 
HETATM    5  O   UNL     1      39.586 -16.003  -4.330  1.00  0.00    -0.247 OA
HETATM    6  N   UNL     1      39.982 -15.326  -2.217  1.00  0.00    -0.333 N 
HETATM    7  C   UNL     1      39.912 -14.306  -1.193  1.00  0.00     0.142 C 
HETATM    8  H   UNL     1      39.500 -13.672  -4.904  1.00  0.00     0.167 HD
HETATM    9  H   UNL     1      39.926 -16.302  -1.953  1.00  0.00     0.165 HD
ENDROOT
BRANCH   7  10
HETATM   10  C   UNL     1      40.598 -14.810   0.042  1.00  0.00     0.015 A 
HETATM   11  C   UNL     1      40.686 -14.202   1.332  1.00  0.00     0.097 A 
HETATM   12  N   UNL     1      41.360 -14.983   2.186  1.00  0.00    -0.167 NA
HETATM   13  N   UNL     1      41.721 -16.082   1.487  1.00  0.00    -0.244 N 
HETATM   14  C   UNL     1      41.263 -16.014   0.195  1.00  0.00     0.130 A 
BRANCH  11  15
HETATM   15  C   UNL     1      40.124 -12.935   1.801  1.00  0.00    -0.005 A 
HETATM   16  C   UNL     1      40.983 -11.866   2.099  1.00  0.00     0.014 A 
HETATM   17  C   UNL     1      40.474 -10.648   2.556  1.00  0.00     0.001 A 
HETATM   18  C   UNL     1      39.100 -10.485   2.717  1.00  0.00     0.000 A 
HETATM   19  C   UNL     1      38.235 -11.534   2.410  1.00  0.00     0.001 A 
HETATM   20  C   UNL     1      38.743 -12.751   1.947  1.00  0.00     0.014 A 
ENDBRANCH  11  15
BRANCH  13  21
HETATM   21  C   UNL     1      42.471 -17.125   2.100  1.00  0.00     0.058 A 
HETATM   22  C   UNL     1      42.225 -17.453   3.443  1.00  0.00     0.031 A 
HETATM   23  C   UNL     1      42.945 -18.474   4.064  1.00  0.00     0.002 A 
HETATM   24  C   UNL     1      43.917 -19.174   3.352  1.00  0.00     0.000 A 
HETATM   25  C   UNL     1      44.170 -18.853   2.019  1.00  0.00     0.002 A 
HETATM   26  C   UNL     1      43.452 -17.832   1.391  1.00  0.00     0.031 A 
ENDBRANCH  13  21
ENDBRANCH   7  10
BRANCH   1  27
HETATM   27  C   UNL     1      41.919 -12.922  -1.861  1.00  0.00     0.270 C 
HETATM   28  O   UNL     1      42.555 -13.554  -2.688  1.00  0.00    -0.265 OA
BRANCH  27  29
HETATM   29  O   UNL     1      42.458 -12.054  -0.960  1.00  0.00    -0.321 OA
BRANCH  29  30
HETATM   30  C   UNL     1      43.290 -11.014  -1.501  1.00  0.00     0.174 C 
HETATM   31  C   UNL     1      43.273  -9.788  -0.607  1.00  0.00     0.034 C 
ENDBRANCH  29  30
ENDBRANCH  27  29
ENDBRANCH   1  27
BRANCH   2  32
HETATM   32  O   UNL     1      38.316 -12.425  -2.694  1.00  0.00    -0.363 OA
HETATM   33  H   UNL     1      38.171 -11.468  -2.804  1.00  0.00     0.213 HD
ENDBRANCH   2  32
BRANCH   2  34
HETATM   34  C   UNL     1      40.278 -11.364  -3.705  1.00  0.00     0.439 C 
HETATM   35  F   UNL     1      40.469 -10.372  -2.807  1.00  0.00    -0.166 F 
HETATM   36  F   UNL     1      41.447 -11.571  -4.341  1.00  0.00    -0.166 F 
HETATM   37  F   UNL     1      39.395 -10.910  -4.633  1.00  0.00    -0.166 F 
ENDBRANCH   2  34
TORSDOF 8
ENDMDL
MODEL 6
REMARK VINA RESULT:      -7.3      3.214      5.824
REMARK  8 active torsions:
REMARK  status: ('A' for Active; 'I' for Inactive)
REMARK    1  A    between atoms: C_2  and  O_3 
REMARK    2  A    between atoms: O_3  and  C_4 
REMARK    3  A    between atoms: C_4  and  C_5 
REMARK    4  A    between atoms: C_6  and  O_7 
REMARK    5  A    between atoms: C_6  and  C_8 
REMARK    6  A    between atoms: C_16  and  C_17 
REMARK    7  A    between atoms: C_18  and  C_19 
REMARK    8  A    between atoms: N_26  and  C_27 
ROOT
HETATM    1  C   UNL     1      40.219 -12.548   1.309  1.00  0.00     0.177 C 
HETATM    2  C   UNL     1      39.224 -11.794   0.426  1.00  0.00     0.250 C 
HETATM    3  N   UNL     1      38.767 -12.585  -0.703  1.00  0.00    -0.303 N 
HETATM    4  C   UNL     1      38.745 -13.936  -0.753  1.00  0.00     0.319 C 
HETATM    5  O   UNL     1      38.252 -14.527  -1.705  1.00  0.00    -0.247 OA
HETATM    6  N   UNL     1      39.313 -14.595   0.282  1.00  0.00    -0.333 N 
HETATM    7  C   UNL     1      39.681 -13.960   1.529  1.00  0.00     0.142 C 
HETATM    8  H   UNL     1      38.357 -12.135  -1.513  1.00  0.00     0.167 HD
HETATM    9  H   UNL     1      39.188 -15.599   0.252  1.00  0.00     0.165 HD
ENDROOT
BRANCH   7  10
HETATM   10  C   UNL     1      40.599 -14.874   2.286  1.00  0.00     0.015 A 
HETATM   11  C   UNL     1      41.087 -14.749   3.623  1.00  0.00     0.097 A 
HETATM   12  N   UNL     1      41.863 -15.792   3.950  1.00  0.00    -0.167 NA
HETATM   13  N   UNL     1      41.900 -16.589   2.860  1.00  0.00    -0.244 N 
HETATM   14  C   UNL     1      41.136 -16.070   1.845  1.00  0.00     0.130 A 
BRANCH  11  15
HETATM   15  C   UNL     1      40.818 -13.710   4.617  1.00  0.00    -0.005 A 
HETATM   16  C   UNL     1      41.759 -12.690   4.824  1.00  0.00     0.014 A 
HETATM   17  C   UNL     1      41.530 -11.690   5.772  1.00  0.00     0.001 A 
HETATM   18  C   UNL     1      40.356 -11.697   6.522  1.00  0.00     0.000 A 
HETATM   19  C   UNL     1      39.406 -12.695   6.315  1.00  0.00     0.001 A 
HETATM   20  C   UNL     1      39.631 -13.694   5.362  1.00  0.00     0.014 A 
ENDBRANCH  11  15
BRANCH  13  21
HETATM   21  C   UNL     1      42.656 -17.795   2.862  1.00  0.00     0.058 A 
HETATM   22  C   UNL     1      43.458 -18.104   3.973  1.00  0.00     0.031 A 
HETATM   23  C   UNL     1      44.205 -19.283   3.999  1.00  0.00     0.002 A 
HETATM   24  C   UNL     1      44.160 -20.160   2.917  1.00  0.00     0.000 A 
HETATM   25  C   UNL     1      43.369 -19.860   1.809  1.00  0.00     0.002 A 
HETATM   26  C   UNL     1      42.618 -18.682   1.777  1.00  0.00     0.031 A 
ENDBRANCH  13  21
ENDBRANCH   7  10
BRANCH   1  27
HETATM   27  C   UNL     1      41.607 -12.542   0.711  1.00  0.00     0.270 C 
HETATM   28  O   UNL     1      42.600 -12.068   1.238  1.00  0.00    -0.265 OA
BRANCH  27  29
HETATM   29  O   UNL     1      41.590 -13.171  -0.498  1.00  0.00    -0.321 OA
BRANCH  29  30
HETATM   30  C   UNL     1      42.505 -12.669  -1.485  1.00  0.00     0.174 C 
HETATM   31  C   UNL     1      42.130 -13.162  -2.871  1.00  0.00     0.034 C 
ENDBRANCH  29  30
ENDBRANCH  27  29
ENDBRANCH   1  27
BRANCH   2  32
HETATM   32  O   UNL     1      38.029 -11.613   1.218  1.00  0.00    -0.363 OA
HETATM   33  H   UNL     1      38.250 -11.940   2.109  1.00  0.00     0.213 HD
ENDBRANCH   2  32
BRANCH   2  34
HETATM   34  C   UNL     1      39.769 -10.386   0.008  1.00  0.00     0.439 C 
HETATM   35  F   UNL     1      40.586  -9.873   0.956  1.00  0.00    -0.166 F 
HETATM   36  F   UNL     1      40.449 -10.399  -1.155  1.00  0.00    -0.166 F 
HETATM   37  F   UNL     1      38.732  -9.522  -0.147  1.00  0.00    -0.166 F 
ENDBRANCH   2  34
TORSDOF 8
ENDMDL
MODEL 7
REMARK VINA RESULT:      -7.2      3.144      6.386
REMARK  8 active torsions:
REMARK  status: ('A' for Active; 'I' for Inactive)
REMARK    1  A    between atoms: C_2  and  O_3 
REMARK    2  A    between atoms: O_3  and  C_4 
REMARK    3  A    between atoms: C_4  and  C_5 
REMARK    4  A    between atoms: C_6  and  O_7 
REMARK    5  A    between atoms: C_6  and  C_8 
REMARK    6  A    between atoms: C_16  and  C_17 
REMARK    7  A    between atoms: C_18  and  C_19 
REMARK    8  A    between atoms: N_26  and  C_27 
ROOT
HETATM    1  C   UNL     1      42.252 -16.709   5.357  1.00  0.00     0.177 C 
HETATM    2  C   UNL     1      43.217 -17.255   6.410  1.00  0.00     0.250 C 
HETATM    3  N   UNL     1      44.278 -16.318   6.735  1.00  0.00    -0.303 N 
HETATM    4  C   UNL     1      44.206 -14.976   6.593  1.00  0.00     0.319 C 
HETATM    5  O   UNL     1      45.110 -14.249   6.984  1.00  0.00    -0.247 OA
HETATM    6  N   UNL     1      43.106 -14.485   5.981  1.00  0.00    -0.333 N 
HETATM    7  C   UNL     1      41.915 -15.266   5.728  1.00  0.00     0.142 C 
HETATM    8  H   UNL     1      45.133 -16.643   7.173  1.00  0.00     0.167 HD
HETATM    9  H   UNL     1      43.048 -13.474   5.983  1.00  0.00     0.165 HD
ENDROOT
BRANCH   7  10
HETATM   10  C   UNL     1      41.062 -14.541   4.729  1.00  0.00     0.015 A 
HETATM   11  C   UNL     1      40.397 -13.284   4.861  1.00  0.00     0.097 A 
HETATM   12  N   UNL     1      39.758 -12.958   3.729  1.00  0.00    -0.167 NA
HETATM   13  N   UNL     1      39.982 -13.971   2.865  1.00  0.00    -0.244 N 
HETATM   14  C   UNL     1      40.778 -14.934   3.433  1.00  0.00     0.130 A 
BRANCH  11  15
HETATM   15  C   UNL     1      40.374 -12.360   5.996  1.00  0.00    -0.005 A 
HETATM   16  C   UNL     1      41.354 -11.361   6.094  1.00  0.00     0.014 A 
HETATM   17  C   UNL     1      41.360 -10.472   7.171  1.00  0.00     0.001 A 
HETATM   18  C   UNL     1      40.384 -10.569   8.160  1.00  0.00     0.000 A 
HETATM   19  C   UNL     1      39.395 -11.547   8.066  1.00  0.00     0.001 A 
HETATM   20  C   UNL     1      39.384 -12.434   6.985  1.00  0.00     0.014 A 
ENDBRANCH  11  15
BRANCH  13  21
HETATM   21  C   UNL     1      39.430 -13.950   1.553  1.00  0.00     0.058 A 
HETATM   22  C   UNL     1      40.288 -14.012   0.443  1.00  0.00     0.031 A 
HETATM   23  C   UNL     1      39.769 -13.996  -0.852  1.00  0.00     0.002 A 
HETATM   24  C   UNL     1      38.392 -13.915  -1.051  1.00  0.00     0.000 A 
HETATM   25  C   UNL     1      37.533 -13.850   0.046  1.00  0.00     0.002 A 
HETATM   26  C   UNL     1      38.046 -13.867   1.346  1.00  0.00     0.031 A 
ENDBRANCH  13  21
ENDBRANCH   7  10
BRANCH   1  27
HETATM   27  C   UNL     1      42.823 -16.832   3.963  1.00  0.00     0.270 C 
HETATM   28  O   UNL     1      43.788 -16.217   3.540  1.00  0.00    -0.265 OA
BRANCH  27  29
HETATM   29  O   UNL     1      42.116 -17.757   3.256  1.00  0.00    -0.321 OA
BRANCH  29  30
HETATM   30  C   UNL     1      42.712 -18.205   2.027  1.00  0.00     0.174 C 
HETATM   31  C   UNL     1      43.314 -19.589   2.192  1.00  0.00     0.034 C 
ENDBRANCH  29  30
ENDBRANCH  27  29
ENDBRANCH   1  27
BRANCH   2  32
HETATM   32  O   UNL     1      42.466 -17.358   7.640  1.00  0.00    -0.363 OA
HETATM   33  H   UNL     1      42.334 -16.442   7.947  1.00  0.00     0.213 HD
ENDBRANCH   2  32
BRANCH   2  34
HETATM   34  C   UNL     1      43.751 -18.677   6.026  1.00  0.00     0.439 C 
HETATM   35  F   UNL     1      42.762 -19.459   5.534  1.00  0.00    -0.166 F 
HETATM   36  F   UNL     1      44.742 -18.649   5.113  1.00  0.00    -0.166 F 
HETATM   37  F   UNL     1      44.245 -19.293   7.131  1.00  0.00    -0.166 F 
ENDBRANCH   2  34
TORSDOF 8
ENDMDL
MODEL 8
REMARK VINA RESULT:      -7.2      3.144      5.746
REMARK  8 active torsions:
REMARK  status: ('A' for Active; 'I' for Inactive)
REMARK    1  A    between atoms: C_2  and  O_3 
REMARK    2  A    between atoms: O_3  and  C_4 
REMARK    3  A    between atoms: C_4  and  C_5 
REMARK    4  A    between atoms: C_6  and  O_7 
REMARK    5  A    between atoms: C_6  and  C_8 
REMARK    6  A    between atoms: C_16  and  C_17 
REMARK    7  A    between atoms: C_18  and  C_19 
REMARK    8  A    between atoms: N_26  and  C_27 
ROOT
HETATM    1  C   UNL     1      40.949 -15.691   4.092  1.00  0.00     0.177 C 
HETATM    2  C   UNL     1      41.205 -15.857   5.592  1.00  0.00     0.250 C 
HETATM    3  N   UNL     1      41.744 -14.655   6.203  1.00  0.00    -0.303 N 
HETATM    4  C   UNL     1      41.578 -13.398   5.735  1.00  0.00     0.319 C 
HETATM    5  O   UNL     1      41.982 -12.429   6.364  1.00  0.00    -0.247 OA
HETATM    6  N   UNL     1      40.970 -13.269   4.534  1.00  0.00    -0.333 N 
HETATM    7  C   UNL     1      40.262 -14.345   3.876  1.00  0.00     0.142 C 
HETATM    8  H   UNL     1      42.230 -14.705   7.091  1.00  0.00     0.167 HD
HETATM    9  H   UNL     1      40.779 -12.310   4.268  1.00  0.00     0.165 HD
ENDROOT
BRANCH   7  10
HETATM   10  C   UNL     1      40.042 -13.973   2.439  1.00  0.00     0.015 A 
HETATM   11  C   UNL     1      39.737 -12.695   1.879  1.00  0.00     0.097 A 
HETATM   12  N   UNL     1      39.648 -12.764   0.544  1.00  0.00    -0.167 NA
HETATM   13  N   UNL     1      39.879 -14.055   0.218  1.00  0.00    -0.244 N 
HETATM   14  C   UNL     1      40.135 -14.806   1.338  1.00  0.00     0.130 A 
BRANCH  11  15
HETATM   15  C   UNL     1      39.568 -11.404   2.548  1.00  0.00    -0.005 A 
HETATM   16  C   UNL     1      40.579 -10.436   2.450  1.00  0.00     0.014 A 
HETATM   17  C   UNL     1      40.447  -9.200   3.086  1.00  0.00     0.001 A 
HETATM   18  C   UNL     1      39.300  -8.916   3.824  1.00  0.00     0.000 A 
HETATM   19  C   UNL     1      38.282  -9.862   3.916  1.00  0.00     0.001 A 
HETATM   20  C   UNL     1      38.410 -11.098   3.276  1.00  0.00     0.014 A 
ENDBRANCH  11  15
BRANCH  13  21
HETATM   21  C   UNL     1      39.848 -14.483  -1.139  1.00  0.00     0.058 A 
HETATM   22  C   UNL     1      38.771 -14.104  -1.956  1.00  0.00     0.031 A 
HETATM   23  C   UNL     1      38.721 -14.510  -3.291  1.00  0.00     0.002 A 
HETATM   24  C   UNL     1      39.742 -15.298  -3.819  1.00  0.00     0.000 A 
HETATM   25  C   UNL     1      40.813 -15.681  -3.013  1.00  0.00     0.002 A 
HETATM   26  C   UNL     1      40.870 -15.277  -1.677  1.00  0.00     0.031 A 
ENDBRANCH  13  21
ENDBRANCH   7  10
BRANCH   1  27
HETATM   27  C   UNL     1      42.225 -15.827   3.294  1.00  0.00     0.270 C 
HETATM   28  O   UNL     1      43.156 -15.038   3.313  1.00  0.00    -0.265 OA
BRANCH  27  29
HETATM   29  O   UNL     1      42.194 -16.980   2.569  1.00  0.00    -0.321 OA
BRANCH  29  30
HETATM   30  C   UNL     1      43.469 -17.566   2.258  1.00  0.00     0.174 C 
HETATM   31  C   UNL     1      43.450 -19.064   2.503  1.00  0.00     0.034 C 
ENDBRANCH  29  30
ENDBRANCH  27  29
ENDBRANCH   1  27
BRANCH   2  32
HETATM   32  O   UNL     1      39.909 -16.002   6.214  1.00  0.00    -0.363 OA
HETATM   33  H   UNL     1      39.889 -16.906   6.577  1.00  0.00     0.213 HD
ENDBRANCH   2  32
BRANCH   2  34
HETATM   34  C   UNL     1      42.055 -17.136   5.898  1.00  0.00     0.439 C 
HETATM   35  F   UNL     1      41.599 -18.208   5.211  1.00  0.00    -0.166 F 
HETATM   36  F   UNL     1      43.363 -16.991   5.607  1.00  0.00    -0.166 F 
HETATM   37  F   UNL     1      41.972 -17.434   7.220  1.00  0.00    -0.166 F 
ENDBRANCH   2  34
TORSDOF 8
ENDMDL
MODEL 9
REMARK VINA RESULT:      -7.2      3.321      7.299
REMARK  8 active torsions:
REMARK  status: ('A' for Active; 'I' for Inactive)
REMARK    1  A    between atoms: C_2  and  O_3 
REMARK    2  A    between atoms: O_3  and  C_4 
REMARK    3  A    between atoms: C_4  and  C_5 
REMARK    4  A    between atoms: C_6  and  O_7 
REMARK    5  A    between atoms: C_6  and  C_8 
REMARK    6  A    between atoms: C_16  and  C_17 
REMARK    7  A    between atoms: C_18  and  C_19 
REMARK    8  A    between atoms: N_26  and  C_27 
ROOT
HETATM    1  C   UNL     1      41.132 -14.816   3.722  1.00  0.00     0.177 C 
HETATM    2  C   UNL     1      41.243 -16.336   3.582  1.00  0.00     0.250 C 
HETATM    3  N   UNL     1      41.103 -17.026   4.852  1.00  0.00    -0.303 N 
HETATM    4  C   UNL     1      40.451 -16.546   5.935  1.00  0.00     0.319 C 
HETATM    5  O   UNL     1      40.295 -17.234   6.935  1.00  0.00    -0.247 OA
HETATM    6  N   UNL     1      40.007 -15.271   5.865  1.00  0.00    -0.333 N 
HETATM    7  C   UNL     1      39.946 -14.511   4.636  1.00  0.00     0.142 C 
HETATM    8  H   UNL     1      41.443 -17.975   4.960  1.00  0.00     0.167 HD
HETATM    9  H   UNL     1      39.442 -14.986   6.656  1.00  0.00     0.165 HD
ENDROOT
BRANCH   7  10
HETATM   10  C   UNL     1      39.767 -13.060   4.971  1.00  0.00     0.015 A 
HETATM   11  C   UNL     1      39.592 -11.950   4.088  1.00  0.00     0.097 A 
HETATM   12  N   UNL     1      39.431 -10.811   4.776  1.00  0.00    -0.167 NA
HETATM   13  N   UNL     1      39.504 -11.146   6.082  1.00  0.00    -0.244 N 
HETATM   14  C   UNL     1      39.691 -12.498   6.233  1.00  0.00     0.130 A 
BRANCH  11  15
HETATM   15  C   UNL     1      39.529 -11.927   2.626  1.00  0.00    -0.005 A 
HETATM   16  C   UNL     1      38.343 -12.305   1.979  1.00  0.00     0.014 A 
HETATM   17  C   UNL     1      38.259 -12.299   0.585  1.00  0.00     0.001 A 
HETATM   18  C   UNL     1      39.359 -11.912  -0.177  1.00  0.00     0.000 A 
HETATM   19  C   UNL     1      40.538 -11.519   0.454  1.00  0.00     0.001 A 
HETATM   20  C   UNL     1      40.622 -11.519   1.849  1.00  0.00     0.014 A 
ENDBRANCH  11  15
BRANCH  13  21
HETATM   21  C   UNL     1      39.382 -10.158   7.099  1.00  0.00     0.058 A 
HETATM   22  C   UNL     1      39.404 -10.551   8.447  1.00  0.00     0.031 A 
HETATM   23  C   UNL     1      39.290  -9.599   9.462  1.00  0.00     0.002 A 
HETATM   24  C   UNL     1      39.150  -8.250   9.140  1.00  0.00     0.000 A 
HETATM   25  C   UNL     1      39.124  -7.852   7.804  1.00  0.00     0.002 A 
HETATM   26  C   UNL     1      39.239  -8.800   6.784  1.00  0.00     0.031 A 
ENDBRANCH  13  21
ENDBRANCH   7  10
BRANCH   1  27
HETATM   27  C   UNL     1      42.422 -14.210   4.222  1.00  0.00     0.270 C 
HETATM   28  O   UNL     1      43.095 -13.389   3.621  1.00  0.00    -0.265 OA
BRANCH  27  29
HETATM   29  O   UNL     1      42.710 -14.698   5.461  1.00  0.00    -0.321 OA
BRANCH  29  30
HETATM   30  C   UNL     1      43.461 -13.828   6.325  1.00  0.00     0.174 C 
HETATM   31  C   UNL     1      44.710 -14.522   6.838  1.00  0.00     0.034 C 
ENDBRANCH  29  30
ENDBRANCH  27  29
ENDBRANCH   1  27
BRANCH   2  32
HETATM   32  O   UNL     1      40.083 -16.763   2.834  1.00  0.00    -0.363 OA
HETATM   33  H   UNL     1      40.401 -16.945   1.931  1.00  0.00     0.213 HD
ENDBRANCH   2  32
BRANCH   2  34
HETATM   34  C   UNL     1      42.531 -16.753   2.794  1.00  0.00     0.439 C 
HETATM   35  F   UNL     1      42.817 -15.869   1.812  1.00  0.00    -0.166 F 
HETATM   36  F   UNL     1      43.623 -16.865   3.575  1.00  0.00    -0.166 F 
HETATM   37  F   UNL     1      42.336 -17.964   2.209  1.00  0.00    -0.166 F 
ENDBRANCH   2  34
TORSDOF 8
ENDMDL
MODEL 10
REMARK VINA RESULT:      -7.1      3.452      6.883
REMARK  8 active torsions:
REMARK  status: ('A' for Active; 'I' for Inactive)
REMARK    1  A    between atoms: C_2  and  O_3 
REMARK    2  A    between atoms: O_3  and  C_4 
REMARK    3  A    between atoms: C_4  and  C_5 
REMARK    4  A    between atoms: C_6  and  O_7 
REMARK    5  A    between atoms: C_6  and  C_8 
REMARK    6  A    between atoms: C_16  and  C_17 
REMARK    7  A    between atoms: C_18  and  C_19 
REMARK    8  A    between atoms: N_26  and  C_27 
ROOT
HETATM    1  C   UNL     1      43.201 -15.734   4.843  1.00  0.00     0.177 C 
HETATM    2  C   UNL     1      43.011 -16.730   3.697  1.00  0.00     0.250 C 
HETATM    3  N   UNL     1      41.674 -16.682   3.132  1.00  0.00    -0.303 N 
HETATM    4  C   UNL     1      40.845 -15.616   3.175  1.00  0.00     0.319 C 
HETATM    5  O   UNL     1      39.771 -15.625   2.587  1.00  0.00    -0.247 OA
HETATM    6  N   UNL     1      41.248 -14.558   3.913  1.00  0.00    -0.333 N 
HETATM    7  C   UNL     1      42.596 -14.399   4.415  1.00  0.00     0.142 C 
HETATM    8  H   UNL     1      41.317 -17.462   2.591  1.00  0.00     0.167 HD
HETATM    9  H   UNL     1      40.646 -13.747   3.838  1.00  0.00     0.165 HD
ENDROOT
BRANCH   7  10
HETATM   10  C   UNL     1      42.597 -13.338   5.475  1.00  0.00     0.015 A 
HETATM   11  C   UNL     1      41.789 -12.163   5.570  1.00  0.00     0.097 A 
HETATM   12  N   UNL     1      42.067 -11.479   6.688  1.00  0.00    -0.167 NA
HETATM   13  N   UNL     1      43.039 -12.171   7.321  1.00  0.00    -0.244 N 
HETATM   14  C   UNL     1      43.370 -13.306   6.622  1.00  0.00     0.130 A 
BRANCH  11  15
HETATM   15  C   UNL     1      40.739 -11.683   4.671  1.00  0.00    -0.005 A 
HETATM   16  C   UNL     1      39.402 -11.708   5.094  1.00  0.00     0.014 A 
HETATM   17  C   UNL     1      38.379 -11.263   4.253  1.00  0.00     0.001 A 
HETATM   18  C   UNL     1      38.683 -10.786   2.981  1.00  0.00     0.000 A 
HETATM   19  C   UNL     1      40.009 -10.741   2.554  1.00  0.00     0.001 A 
HETATM   20  C   UNL     1      41.034 -11.181   3.397  1.00  0.00     0.014 A 
ENDBRANCH  11  15
BRANCH  13  21
HETATM   21  C   UNL     1      43.581 -11.710   8.554  1.00  0.00     0.058 A 
HETATM   22  C   UNL     1      44.823 -12.204   8.987  1.00  0.00     0.031 A 
HETATM   23  C   UNL     1      45.376 -11.763  10.190  1.00  0.00     0.002 A 
HETATM   24  C   UNL     1      44.695 -10.830  10.971  1.00  0.00     0.000 A 
HETATM   25  C   UNL     1      43.461 -10.338  10.549  1.00  0.00     0.002 A 
HETATM   26  C   UNL     1      42.902 -10.774   9.345  1.00  0.00     0.031 A 
ENDBRANCH  13  21
ENDBRANCH   7  10
BRANCH   1  27
HETATM   27  C   UNL     1      42.610 -16.254   6.133  1.00  0.00     0.270 C 
HETATM   28  O   UNL     1      41.424 -16.465   6.330  1.00  0.00    -0.265 OA
BRANCH  27  29
HETATM   29  O   UNL     1      43.603 -16.479   7.038  1.00  0.00    -0.321 OA
BRANCH  29  30
HETATM   30  C   UNL     1      43.289 -17.380   8.112  1.00  0.00     0.174 C 
HETATM   31  C   UNL     1      44.069 -18.675   7.976  1.00  0.00     0.034 C 
ENDBRANCH  29  30
ENDBRANCH  27  29
ENDBRANCH   1  27
BRANCH   2  32
HETATM   32  O   UNL     1      43.853 -16.275   2.615  1.00  0.00    -0.363 OA
HETATM   33  H   UNL     1      43.575 -15.359   2.431  1.00  0.00     0.213 HD
ENDBRANCH   2  32
BRANCH   2  34
HETATM   34  C   UNL     1      43.453 -18.176   4.105  1.00  0.00     0.439 C 
HETATM   35  F   UNL     1      44.644 -18.165   4.747  1.00  0.00    -0.166 F 
HETATM   36  F   UNL     1      42.566 -18.803   4.902  1.00  0.00    -0.166 F 
HETATM   37  F   UNL     1      43.598 -18.941   2.992  1.00  0.00    -0.166 F 
ENDBRANCH   2  34
TORSDOF 8
ENDMDL
