MODEL 1
REMARK VINA RESULT:      -8.1      0.000      0.000
REMARK  7 active torsions:
REMARK  status: ('A' for Active; 'I' for Inactive)
REMARK    1  A    between atoms: S_2  and  C_3 
REMARK    2  A    between atoms: C_6  and  C_7 
REMARK    3  A    between atoms: N_8  and  C_9 
REMARK    4  A    between atoms: C_9  and  C_10 
REMARK    5  A    between atoms: C_10  and  C_11 
REMARK    6  A    between atoms: C_24  and  C_25 
REMARK    7  A    between atoms: C_26  and  O_27 
ROOT
HETATM    1  C   UNL     1      44.254 -17.405   5.301  1.00  0.00     0.159 A 
HETATM    2  N   UNL     1      44.276 -16.641   6.570  1.00  0.00    -0.333 N 
HETATM    3  C   UNL     1      43.931 -17.394   7.703  1.00  0.00     0.275 A 
HETATM    4  O   UNL     1      43.825 -17.003   8.854  1.00  0.00    -0.266 OA
HETATM    5  C   UNL     1      43.781 -18.741   7.195  1.00  0.00     0.155 A 
HETATM    6  C   UNL     1      43.995 -18.774   5.811  1.00  0.00     0.034 A 
HETATM    7  N   UNL     1      43.562 -19.939   7.724  1.00  0.00    -0.168 NA
HETATM    8  N   UNL     1      43.627 -20.749   6.639  1.00  0.00    -0.276 N 
HETATM    9  H   UNL     1      43.476 -21.745   6.769  1.00  0.00     0.189 HD
HETATM   10  C   UNL     1      43.977 -20.103   5.463  1.00  0.00     0.074 A 
ENDROOT
BRANCH   1  11
HETATM   11  C   UNL     1      43.085 -17.037   4.410  1.00  0.00    -0.031 A 
HETATM   12  C   UNL     1      41.795 -16.952   4.956  1.00  0.00     0.011 A 
HETATM   13  C   UNL     1      40.704 -16.566   4.166  1.00  0.00     0.019 A 
HETATM   14  C   UNL     1      40.879 -16.255   2.816  1.00  0.00    -0.000 A 
HETATM   15  C   UNL     1      42.147 -16.382   2.250  1.00  0.00     0.019 A 
HETATM   16  C   UNL     1      43.236 -16.769   3.036  1.00  0.00     0.011 A 
BRANCH  14  17
HETATM   17  S   UNL     1      39.476 -15.731   1.850  1.00  0.00    -0.134 SA
HETATM   18  C   UNL     1      40.319 -14.703   0.613  1.00  0.00     0.095 C 
ENDBRANCH  14  17
ENDBRANCH   1  11
BRANCH   2  19
HETATM   19  C   UNL     1      44.657 -15.239   6.621  1.00  0.00     0.132 C 
BRANCH  19  20
HETATM   20  C   UNL     1      43.473 -14.329   6.973  1.00  0.00     0.058 C 
BRANCH  20  21
HETATM   21  C   UNL     1      42.798 -13.734   5.762  1.00  0.00    -0.057 A 
HETATM   22  C   UNL     1      43.483 -13.605   4.547  1.00  0.00     0.007 A 
HETATM   23  C   UNL     1      42.843 -13.074   3.426  1.00  0.00     0.001 A 
HETATM   24  C   UNL     1      41.511 -12.672   3.506  1.00  0.00     0.000 A 
HETATM   25  C   UNL     1      40.818 -12.800   4.708  1.00  0.00     0.001 A 
HETATM   26  C   UNL     1      41.457 -13.328   5.830  1.00  0.00     0.007 A 
ENDBRANCH  20  21
ENDBRANCH  19  20
ENDBRANCH   2  19
BRANCH  10  27
HETATM   27  C   UNL     1      44.239 -20.824   4.223  1.00  0.00     0.026 A 
HETATM   28  C   UNL     1      44.796 -22.113   4.224  1.00  0.00     0.078 A 
HETATM   29  C   UNL     1      44.984 -22.823   3.041  1.00  0.00     0.037 A 
HETATM   30  C   UNL     1      44.648 -22.238   1.823  1.00  0.00     0.003 A 
HETATM   31  C   UNL     1      44.111 -20.952   1.797  1.00  0.00     0.001 A 
HETATM   32  C   UNL     1      43.899 -20.254   2.990  1.00  0.00     0.016 A 
BRANCH  28  33
HETATM   33  O   UNL     1      45.195 -22.739   5.376  1.00  0.00    -0.360 OA
HETATM   34  H   UNL     1      45.357 -23.677   5.167  1.00  0.00     0.217 HD
ENDBRANCH  28  33
ENDBRANCH  10  27
TORSDOF 7
ENDMDL
MODEL 2
REMARK VINA RESULT:      -8.0      3.098      4.758
REMARK  7 active torsions:
REMARK  status: ('A' for Active; 'I' for Inactive)
REMARK    1  A    between atoms: S_2  and  C_3 
REMARK    2  A    between atoms: C_6  and  C_7 
REMARK    3  A    between atoms: N_8  and  C_9 
REMARK    4  A    between atoms: C_9  and  C_10 
REMARK    5  A    between atoms: C_10  and  C_11 
REMARK    6  A    between atoms: C_24  and  C_25 
REMARK    7  A    between atoms: C_26  and  O_27 
ROOT
HETATM    1  C   UNL     1      41.604 -17.022   3.342  1.00  0.00     0.159 A 
HETATM    2  N   UNL     1      40.992 -16.148   2.315  1.00  0.00    -0.333 N 
HETATM    3  C   UNL     1      41.656 -16.159   1.078  1.00  0.00     0.275 A 
HETATM    4  O   UNL     1      41.393 -15.502   0.085  1.00  0.00    -0.266 OA
HETATM    5  C   UNL     1      42.686 -17.163   1.244  1.00  0.00     0.155 A 
HETATM    6  C   UNL     1      42.653 -17.696   2.538  1.00  0.00     0.034 A 
HETATM    7  N   UNL     1      43.592 -17.735   0.459  1.00  0.00    -0.168 NA
HETATM    8  N   UNL     1      44.155 -18.649   1.288  1.00  0.00    -0.276 N 
HETATM    9  H   UNL     1      44.908 -19.228   0.930  1.00  0.00     0.189 HD
HETATM   10  C   UNL     1      43.560 -18.729   2.538  1.00  0.00     0.074 A 
ENDROOT
BRANCH   1  11
HETATM   11  C   UNL     1      42.315 -16.244   4.432  1.00  0.00    -0.031 A 
HETATM   12  C   UNL     1      43.221 -15.230   4.083  1.00  0.00     0.011 A 
HETATM   13  C   UNL     1      43.855 -14.464   5.069  1.00  0.00     0.019 A 
HETATM   14  C   UNL     1      43.595 -14.690   6.422  1.00  0.00    -0.000 A 
HETATM   15  C   UNL     1      42.734 -15.726   6.783  1.00  0.00     0.019 A 
HETATM   16  C   UNL     1      42.103 -16.494   5.801  1.00  0.00     0.011 A 
BRANCH  14  17
HETATM   17  S   UNL     1      44.390 -13.670   7.649  1.00  0.00    -0.134 SA
HETATM   18  C   UNL     1      45.987 -13.391   6.832  1.00  0.00     0.095 C 
ENDBRANCH  14  17
ENDBRANCH   1  11
BRANCH   2  19
HETATM   19  C   UNL     1      39.787 -15.377   2.574  1.00  0.00     0.132 C 
BRANCH  19  20
HETATM   20  C   UNL     1      40.036 -13.866   2.489  1.00  0.00     0.058 C 
BRANCH  20  21
HETATM   21  C   UNL     1      40.296 -13.229   3.833  1.00  0.00    -0.057 A 
HETATM   22  C   UNL     1      39.706 -13.738   4.997  1.00  0.00     0.007 A 
HETATM   23  C   UNL     1      39.970 -13.156   6.237  1.00  0.00     0.001 A 
HETATM   24  C   UNL     1      40.831 -12.063   6.328  1.00  0.00     0.000 A 
HETATM   25  C   UNL     1      41.428 -11.551   5.178  1.00  0.00     0.001 A 
HETATM   26  C   UNL     1      41.162 -12.131   3.936  1.00  0.00     0.007 A 
ENDBRANCH  20  21
ENDBRANCH  19  20
ENDBRANCH   2  19
BRANCH  10  27
HETATM   27  C   UNL     1      43.928 -19.747   3.515  1.00  0.00     0.026 A 
HETATM   28  C   UNL     1      44.276 -21.051   3.125  1.00  0.00     0.078 A 
HETATM   29  C   UNL     1      44.688 -22.000   4.056  1.00  0.00     0.037 A 
HETATM   30  C   UNL     1      44.727 -21.671   5.408  1.00  0.00     0.003 A 
HETATM   31  C   UNL     1      44.368 -20.389   5.820  1.00  0.00     0.001 A 
HETATM   32  C   UNL     1      43.980 -19.430   4.878  1.00  0.00     0.016 A 
BRANCH  28  33
HETATM   33  O   UNL     1      44.220 -21.465   1.820  1.00  0.00    -0.360 OA
HETATM   34  H   UNL     1      43.353 -21.205   1.460  1.00  0.00     0.217 HD
ENDBRANCH  28  33
ENDBRANCH  10  27
TORSDOF 7
ENDMDL
MODEL 3
REMARK VINA RESULT:      -7.8      1.821      6.818
REMARK  7 active torsions:
REMARK  status: ('A' for Active; 'I' for Inactive)
REMARK    1  A    between atoms: S_2  and  C_3 
REMARK    2  A    between atoms: C_6  and  C_7 
REMARK    3  A    between atoms: N_8  and  C_9 
REMARK    4  A    between atoms: C_9  and  C_10 
REMARK    5  A    between atoms: C_10  and  C_11 
REMARK    6  A    between atoms: C_24  and  C_25 
REMARK    7  A    between atoms: C_26  and  O_27 
ROOT
HETATM    1  C   UNL     1      42.247 -16.573   5.499  1.00  0.00     0.159 A 
HETATM    2  N   UNL     1      43.295 -17.510   5.968  1.00  0.00    -0.333 N 
HETATM    3  C   UNL     1      44.437 -16.883   6.492  1.00  0.00     0.275 A 
HETATM    4  O   UNL     1      45.457 -17.413   6.899  1.00  0.00    -0.266 OA
HETATM    5  C   UNL     1      44.098 -15.476   6.480  1.00  0.00     0.155 A 
HETATM    6  C   UNL     1      42.822 -15.278   5.937  1.00  0.00     0.034 A 
HETATM    7  N   UNL     1      44.668 -14.356   6.913  1.00  0.00    -0.168 NA
HETATM    8  N   UNL     1      43.727 -13.424   6.623  1.00  0.00    -0.276 N 
HETATM    9  H   UNL     1      43.923 -12.453   6.847  1.00  0.00     0.189 HD
HETATM   10  C   UNL     1      42.547 -13.943   6.111  1.00  0.00     0.074 A 
ENDROOT
BRANCH   1  11
HETATM   11  C   UNL     1      42.137 -16.519   3.988  1.00  0.00    -0.031 A 
HETATM   12  C   UNL     1      40.970 -16.981   3.360  1.00  0.00     0.011 A 
HETATM   13  C   UNL     1      40.821 -16.897   1.970  1.00  0.00     0.019 A 
HETATM   14  C   UNL     1      41.832 -16.347   1.179  1.00  0.00    -0.000 A 
HETATM   15  C   UNL     1      43.016 -15.928   1.786  1.00  0.00     0.019 A 
HETATM   16  C   UNL     1      43.167 -16.014   3.172  1.00  0.00     0.011 A 
BRANCH  14  17
HETATM   17  S   UNL     1      41.593 -16.221  -0.583  1.00  0.00    -0.134 SA
HETATM   18  C   UNL     1      41.400 -14.422  -0.740  1.00  0.00     0.095 C 
ENDBRANCH  14  17
ENDBRANCH   1  11
BRANCH   2  19
HETATM   19  C   UNL     1      43.124 -18.952   5.911  1.00  0.00     0.132 C 
BRANCH  19  20
HETATM   20  C   UNL     1      44.403 -19.671   5.462  1.00  0.00     0.058 C 
BRANCH  20  21
HETATM   21  C   UNL     1      44.264 -20.352   4.123  1.00  0.00    -0.057 A 
HETATM   22  C   UNL     1      44.655 -21.686   3.949  1.00  0.00     0.007 A 
HETATM   23  C   UNL     1      44.502 -22.313   2.712  1.00  0.00     0.001 A 
HETATM   24  C   UNL     1      43.953 -21.616   1.637  1.00  0.00     0.000 A 
HETATM   25  C   UNL     1      43.556 -20.291   1.799  1.00  0.00     0.001 A 
HETATM   26  C   UNL     1      43.711 -19.661   3.035  1.00  0.00     0.007 A 
ENDBRANCH  20  21
ENDBRANCH  19  20
ENDBRANCH   2  19
BRANCH  10  27
HETATM   27  C   UNL     1      41.368 -13.118   5.874  1.00  0.00     0.026 A 
HETATM   28  C   UNL     1      41.104 -11.973   6.643  1.00  0.00     0.078 A 
HETATM   29  C   UNL     1      40.012 -11.153   6.371  1.00  0.00     0.037 A 
HETATM   30  C   UNL     1      39.139 -11.484   5.339  1.00  0.00     0.003 A 
HETATM   31  C   UNL     1      39.371 -12.627   4.574  1.00  0.00     0.001 A 
HETATM   32  C   UNL     1      40.485 -13.433   4.835  1.00  0.00     0.016 A 
BRANCH  28  33
HETATM   33  O   UNL     1      41.890 -11.604   7.704  1.00  0.00    -0.360 OA
HETATM   34  H   UNL     1      42.818 -11.627   7.411  1.00  0.00     0.217 HD
ENDBRANCH  28  33
ENDBRANCH  10  27
TORSDOF 7
ENDMDL
MODEL 4
REMARK VINA RESULT:      -7.6      3.981      7.212
REMARK  7 active torsions:
REMARK  status: ('A' for Active; 'I' for Inactive)
REMARK    1  A    between atoms: S_2  and  C_3 
REMARK    2  A    between atoms: C_6  and  C_7 
REMARK    3  A    between atoms: N_8  and  C_9 
REMARK    4  A    between atoms: C_9  and  C_10 
REMARK    5  A    between atoms: C_10  and  C_11 
REMARK    6  A    between atoms: C_24  and  C_25 
REMARK    7  A    between atoms: C_26  and  O_27 
ROOT
HETATM    1  C   UNL     1      40.798 -14.776   2.263  1.00  0.00     0.159 A 
HETATM    2  N   UNL     1      41.014 -14.019   3.517  1.00  0.00    -0.333 N 
HETATM    3  C   UNL     1      41.697 -12.804   3.348  1.00  0.00     0.275 A 
HETATM    4  O   UNL     1      42.044 -12.017   4.213  1.00  0.00    -0.266 OA
HETATM    5  C   UNL     1      41.845 -12.684   1.913  1.00  0.00     0.155 A 
HETATM    6  C   UNL     1      41.304 -13.801   1.265  1.00  0.00     0.034 A 
HETATM    7  N   UNL     1      42.301 -11.758   1.077  1.00  0.00    -0.168 NA
HETATM    8  N   UNL     1      42.051 -12.314  -0.133  1.00  0.00    -0.276 N 
HETATM    9  H   UNL     1      42.323 -11.802  -0.967  1.00  0.00     0.189 HD
HETATM   10  C   UNL     1      41.363 -13.517  -0.078  1.00  0.00     0.074 A 
ENDROOT
BRANCH   1  11
HETATM   11  C   UNL     1      41.673 -16.009   2.158  1.00  0.00    -0.031 A 
HETATM   12  C   UNL     1      43.063 -15.891   2.318  1.00  0.00     0.011 A 
HETATM   13  C   UNL     1      43.889 -17.020   2.275  1.00  0.00     0.019 A 
HETATM   14  C   UNL     1      43.346 -18.291   2.075  1.00  0.00    -0.000 A 
HETATM   15  C   UNL     1      41.973 -18.417   1.867  1.00  0.00     0.019 A 
HETATM   16  C   UNL     1      41.147 -17.291   1.907  1.00  0.00     0.011 A 
BRANCH  14  17
HETATM   17  S   UNL     1      44.424 -19.711   2.064  1.00  0.00    -0.134 SA
HETATM   18  C   UNL     1      43.195 -21.031   1.853  1.00  0.00     0.095 C 
ENDBRANCH  14  17
ENDBRANCH   1  11
BRANCH   2  19
HETATM   19  C   UNL     1      40.526 -14.495   4.801  1.00  0.00     0.132 C 
BRANCH  19  20
HETATM   20  C   UNL     1      41.653 -14.646   5.831  1.00  0.00     0.058 C 
BRANCH  20  21
HETATM   21  C   UNL     1      42.289 -16.015   5.820  1.00  0.00    -0.057 A 
HETATM   22  C   UNL     1      41.525 -17.162   5.574  1.00  0.00     0.007 A 
HETATM   23  C   UNL     1      42.126 -18.421   5.544  1.00  0.00     0.001 A 
HETATM   24  C   UNL     1      43.499 -18.546   5.756  1.00  0.00     0.000 A 
HETATM   25  C   UNL     1      44.270 -17.411   5.997  1.00  0.00     0.001 A 
HETATM   26  C   UNL     1      43.669 -16.152   6.030  1.00  0.00     0.007 A 
ENDBRANCH  20  21
ENDBRANCH  19  20
ENDBRANCH   2  19
BRANCH  10  27
HETATM   27  C   UNL     1      40.876 -14.194  -1.274  1.00  0.00     0.026 A 
HETATM   28  C   UNL     1      40.119 -13.520  -2.246  1.00  0.00     0.078 A 
HETATM   29  C   UNL     1      39.711 -14.154  -3.416  1.00  0.00     0.037 A 
HETATM   30  C   UNL     1      40.026 -15.495  -3.622  1.00  0.00     0.003 A 
HETATM   31  C   UNL     1      40.760 -16.189  -2.662  1.00  0.00     0.001 A 
HETATM   32  C   UNL     1      41.191 -15.540  -1.500  1.00  0.00     0.016 A 
BRANCH  28  33
HETATM   33  O   UNL     1      39.730 -12.214  -2.097  1.00  0.00    -0.360 OA
HETATM   34  H   UNL     1      38.786 -12.208  -1.858  1.00  0.00     0.217 HD
ENDBRANCH  28  33
ENDBRANCH  10  27
TORSDOF 7
ENDMDL
MODEL 5
REMARK VINA RESULT:      -7.5      2.757      4.334
REMARK  7 active torsions:
REMARK  status: ('A' for Active; 'I' for Inactive)
REMARK    1  A    between atoms: S_2  and  C_3 
REMARK    2  A    between atoms: C_6  and  C_7 
REMARK    3  A    between atoms: N_8  and  C_9 
REMARK    4  A    between atoms: C_9  and  C_10 
REMARK    5  A    between atoms: C_10  and  C_11 
REMARK    6  A    between atoms: C_24  and  C_25 
REMARK    7  A    between atoms: C_26  and  O_27 
ROOT
HETATM    1  C   UNL     1      41.917 -14.249   3.894  1.00  0.00     0.159 A 
HETATM    2  N   UNL     1      41.282 -13.264   4.801  1.00  0.00    -0.333 N 
HETATM    3  C   UNL     1      40.450 -13.833   5.779  1.00  0.00     0.275 A 
HETATM    4  O   UNL     1      39.775 -13.252   6.612  1.00  0.00    -0.266 OA
HETATM    5  C   UNL     1      40.621 -15.258   5.595  1.00  0.00     0.155 A 
HETATM    6  C   UNL     1      41.491 -15.520   4.529  1.00  0.00     0.034 A 
HETATM    7  N   UNL     1      40.212 -16.355   6.225  1.00  0.00    -0.168 NA
HETATM    8  N   UNL     1      40.834 -17.336   5.527  1.00  0.00    -0.276 N 
HETATM    9  H   UNL     1      40.676 -18.301   5.802  1.00  0.00     0.189 HD
HETATM   10  C   UNL     1      41.695 -16.879   4.541  1.00  0.00     0.074 A 
ENDROOT
BRANCH   1  11
HETATM   11  C   UNL     1      41.328 -14.233   2.498  1.00  0.00    -0.031 A 
HETATM   12  C   UNL     1      42.120 -13.821   1.415  1.00  0.00     0.011 A 
HETATM   13  C   UNL     1      41.616 -13.843   0.108  1.00  0.00     0.019 A 
HETATM   14  C   UNL     1      40.313 -14.279  -0.144  1.00  0.00    -0.000 A 
HETATM   15  C   UNL     1      39.501 -14.645   0.929  1.00  0.00     0.019 A 
HETATM   16  C   UNL     1      40.001 -14.621   2.233  1.00  0.00     0.011 A 
BRANCH  14  17
HETATM   17  S   UNL     1      39.718 -14.331  -1.824  1.00  0.00    -0.134 SA
HETATM   18  C   UNL     1      40.908 -15.500  -2.538  1.00  0.00     0.095 C 
ENDBRANCH  14  17
ENDBRANCH   1  11
BRANCH   2  19
HETATM   19  C   UNL     1      41.536 -11.837   4.692  1.00  0.00     0.132 C 
BRANCH  19  20
HETATM   20  C   UNL     1      40.240 -11.025   4.565  1.00  0.00     0.058 C 
BRANCH  20  21
HETATM   21  C   UNL     1      39.686 -11.004   3.162  1.00  0.00    -0.057 A 
HETATM   22  C   UNL     1      40.480 -10.600   2.081  1.00  0.00     0.007 A 
HETATM   23  C   UNL     1      39.965 -10.605   0.783  1.00  0.00     0.001 A 
HETATM   24  C   UNL     1      38.653 -11.018   0.552  1.00  0.00     0.000 A 
HETATM   25  C   UNL     1      37.856 -11.427   1.620  1.00  0.00     0.001 A 
HETATM   26  C   UNL     1      38.369 -11.420   2.917  1.00  0.00     0.007 A 
ENDBRANCH  20  21
ENDBRANCH  19  20
ENDBRANCH   2  19
BRANCH  10  27
HETATM   27  C   UNL     1      42.562 -17.774   3.783  1.00  0.00     0.026 A 
HETATM   28  C   UNL     1      43.344 -18.753   4.416  1.00  0.00     0.078 A 
HETATM   29  C   UNL     1      44.120 -19.647   3.683  1.00  0.00     0.037 A 
HETATM   30  C   UNL     1      44.154 -19.555   2.294  1.00  0.00     0.003 A 
HETATM   31  C   UNL     1      43.401 -18.579   1.645  1.00  0.00     0.001 A 
HETATM   32  C   UNL     1      42.602 -17.700   2.385  1.00  0.00     0.016 A 
BRANCH  28  33
HETATM   33  O   UNL     1      43.399 -18.879   5.780  1.00  0.00    -0.360 OA
HETATM   34  H   UNL     1      42.944 -18.112   6.170  1.00  0.00     0.217 HD
ENDBRANCH  28  33
ENDBRANCH  10  27
TORSDOF 7
ENDMDL
MODEL 6
REMARK VINA RESULT:      -7.5      3.166      5.379
REMARK  7 active torsions:
REMARK  status: ('A' for Active; 'I' for Inactive)
REMARK    1  A    between atoms: S_2  and  C_3 
REMARK    2  A    between atoms: C_6  and  C_7 
REMARK    3  A    between atoms: N_8  and  C_9 
REMARK    4  A    between atoms: C_9  and  C_10 
REMARK    5  A    between atoms: C_10  and  C_11 
REMARK    6  A    between atoms: C_24  and  C_25 
REMARK    7  A    between atoms: C_26  and  O_27 
ROOT
HETATM    1  C   UNL     1      40.692 -15.972   3.268  1.00  0.00     0.159 A 
HETATM    2  N   UNL     1      40.295 -15.632   1.882  1.00  0.00    -0.333 N 
HETATM    3  C   UNL     1      41.301 -15.843   0.925  1.00  0.00     0.275 A 
HETATM    4  O   UNL     1      41.255 -15.602  -0.270  1.00  0.00    -0.266 OA
HETATM    5  C   UNL     1      42.376 -16.453   1.678  1.00  0.00     0.155 A 
HETATM    6  C   UNL     1      42.032 -16.565   3.031  1.00  0.00     0.034 A 
HETATM    7  N   UNL     1      43.559 -16.982   1.389  1.00  0.00    -0.168 NA
HETATM    8  N   UNL     1      43.977 -17.431   2.597  1.00  0.00    -0.276 N 
HETATM    9  H   UNL     1      44.887 -17.879   2.659  1.00  0.00     0.189 HD
HETATM   10  C   UNL     1      43.047 -17.283   3.615  1.00  0.00     0.074 A 
ENDROOT
BRANCH   1  11
HETATM   11  C   UNL     1      40.898 -14.750   4.140  1.00  0.00    -0.031 A 
HETATM   12  C   UNL     1      39.925 -14.401   5.089  1.00  0.00     0.011 A 
HETATM   13  C   UNL     1      40.113 -13.306   5.941  1.00  0.00     0.019 A 
HETATM   14  C   UNL     1      41.276 -12.537   5.865  1.00  0.00    -0.000 A 
HETATM   15  C   UNL     1      42.229 -12.844   4.894  1.00  0.00     0.019 A 
HETATM   16  C   UNL     1      42.043 -13.935   4.041  1.00  0.00     0.011 A 
BRANCH  14  17
HETATM   17  S   UNL     1      41.500 -11.173   6.991  1.00  0.00    -0.134 SA
HETATM   18  C   UNL     1      39.768 -10.678   7.224  1.00  0.00     0.095 C 
ENDBRANCH  14  17
ENDBRANCH   1  11
BRANCH   2  19
HETATM   19  C   UNL     1      38.961 -15.154   1.555  1.00  0.00     0.132 C 
BRANCH  19  20
HETATM   20  C   UNL     1      38.995 -13.851   0.745  1.00  0.00     0.058 C 
BRANCH  20  21
HETATM   21  C   UNL     1      39.396 -12.650   1.565  1.00  0.00    -0.057 A 
HETATM   22  C   UNL     1      40.607 -11.988   1.327  1.00  0.00     0.007 A 
HETATM   23  C   UNL     1      40.959 -10.864   2.076  1.00  0.00     0.001 A 
HETATM   24  C   UNL     1      40.102 -10.387   3.067  1.00  0.00     0.000 A 
HETATM   25  C   UNL     1      38.892 -11.035   3.309  1.00  0.00     0.001 A 
HETATM   26  C   UNL     1      38.541 -12.161   2.563  1.00  0.00     0.007 A 
ENDBRANCH  20  21
ENDBRANCH  19  20
ENDBRANCH   2  19
BRANCH  10  27
HETATM   27  C   UNL     1      43.254 -17.833   4.950  1.00  0.00     0.026 A 
HETATM   28  C   UNL     1      43.891 -19.069   5.146  1.00  0.00     0.078 A 
HETATM   29  C   UNL     1      44.143 -19.560   6.424  1.00  0.00     0.037 A 
HETATM   30  C   UNL     1      43.729 -18.833   7.538  1.00  0.00     0.003 A 
HETATM   31  C   UNL     1      43.078 -17.613   7.366  1.00  0.00     0.001 A 
HETATM   32  C   UNL     1      42.850 -17.112   6.080  1.00  0.00     0.016 A 
BRANCH  28  33
HETATM   33  O   UNL     1      44.288 -19.864   4.102  1.00  0.00    -0.360 OA
HETATM   34  H   UNL     1      43.541 -20.441   3.864  1.00  0.00     0.217 HD
ENDBRANCH  28  33
ENDBRANCH  10  27
TORSDOF 7
ENDMDL
MODEL 7
REMARK VINA RESULT:      -7.4      3.889      7.934
REMARK  7 active torsions:
REMARK  status: ('A' for Active; 'I' for Inactive)
REMARK    1  A    between atoms: S_2  and  C_3 
REMARK    2  A    between atoms: C_6  and  C_7 
REMARK    3  A    between atoms: N_8  and  C_9 
REMARK    4  A    between atoms: C_9  and  C_10 
REMARK    5  A    between atoms: C_10  and  C_11 
REMARK    6  A    between atoms: C_24  and  C_25 
REMARK    7  A    between atoms: C_26  and  O_27 
ROOT
HETATM    1  C   UNL     1      42.810 -13.343   5.337  1.00  0.00     0.159 A 
HETATM    2  N   UNL     1      41.802 -13.389   4.253  1.00  0.00    -0.333 N 
HETATM    3  C   UNL     1      40.564 -12.820   4.591  1.00  0.00     0.275 A 
HETATM    4  O   UNL     1      39.556 -12.770   3.907  1.00  0.00    -0.266 OA
HETATM    5  C   UNL     1      40.783 -12.269   5.911  1.00  0.00     0.155 A 
HETATM    6  C   UNL     1      42.087 -12.534   6.349  1.00  0.00     0.034 A 
HETATM    7  N   UNL     1      40.081 -11.530   6.762  1.00  0.00    -0.168 NA
HETATM    8  N   UNL     1      40.965 -11.333   7.771  1.00  0.00    -0.276 N 
HETATM    9  H   UNL     1      40.666 -10.794   8.578  1.00  0.00     0.189 HD
HETATM   10  C   UNL     1      42.230 -11.847   7.530  1.00  0.00     0.074 A 
ENDROOT
BRANCH   1  11
HETATM   11  C   UNL     1      43.071 -14.700   5.960  1.00  0.00    -0.031 A 
HETATM   12  C   UNL     1      41.990 -15.537   6.279  1.00  0.00     0.011 A 
HETATM   13  C   UNL     1      42.204 -16.815   6.810  1.00  0.00     0.019 A 
HETATM   14  C   UNL     1      43.500 -17.285   7.032  1.00  0.00    -0.000 A 
HETATM   15  C   UNL     1      44.580 -16.445   6.765  1.00  0.00     0.019 A 
HETATM   16  C   UNL     1      44.370 -15.168   6.237  1.00  0.00     0.011 A 
BRANCH  14  17
HETATM   17  S   UNL     1      43.736 -18.931   7.674  1.00  0.00    -0.134 SA
HETATM   18  C   UNL     1      44.154 -19.805   6.138  1.00  0.00     0.095 C 
ENDBRANCH  14  17
ENDBRANCH   1  11
BRANCH   2  19
HETATM   19  C   UNL     1      42.099 -13.952   2.945  1.00  0.00     0.132 C 
BRANCH  19  20
HETATM   20  C   UNL     1      41.333 -15.257   2.688  1.00  0.00     0.058 C 
BRANCH  20  21
HETATM   21  C   UNL     1      42.237 -16.443   2.460  1.00  0.00    -0.057 A 
HETATM   22  C   UNL     1      43.270 -16.390   1.515  1.00  0.00     0.007 A 
HETATM   23  C   UNL     1      44.115 -17.484   1.327  1.00  0.00     0.001 A 
HETATM   24  C   UNL     1      43.940 -18.642   2.084  1.00  0.00     0.000 A 
HETATM   25  C   UNL     1      42.919 -18.704   3.031  1.00  0.00     0.001 A 
HETATM   26  C   UNL     1      42.072 -17.611   3.218  1.00  0.00     0.007 A 
ENDBRANCH  20  21
ENDBRANCH  19  20
ENDBRANCH   2  19
BRANCH  10  27
HETATM   27  C   UNL     1      43.354 -11.612   8.429  1.00  0.00     0.026 A 
HETATM   28  C   UNL     1      43.292 -10.647   9.448  1.00  0.00     0.078 A 
HETATM   29  C   UNL     1      44.343 -10.471  10.345  1.00  0.00     0.037 A 
HETATM   30  C   UNL     1      45.497 -11.239  10.215  1.00  0.00     0.003 A 
HETATM   31  C   UNL     1      45.588 -12.188   9.199  1.00  0.00     0.001 A 
HETATM   32  C   UNL     1      44.519 -12.380   8.318  1.00  0.00     0.016 A 
BRANCH  28  33
HETATM   33  O   UNL     1      42.210  -9.823   9.613  1.00  0.00    -0.360 OA
HETATM   34  H   UNL     1      42.525  -8.990  10.008  1.00  0.00     0.217 HD
ENDBRANCH  28  33
ENDBRANCH  10  27
TORSDOF 7
ENDMDL
MODEL 8
REMARK VINA RESULT:      -7.3      4.511      7.911
REMARK  7 active torsions:
REMARK  status: ('A' for Active; 'I' for Inactive)
REMARK    1  A    between atoms: S_2  and  C_3 
REMARK    2  A    between atoms: C_6  and  C_7 
REMARK    3  A    between atoms: N_8  and  C_9 
REMARK    4  A    between atoms: C_9  and  C_10 
REMARK    5  A    between atoms: C_10  and  C_11 
REMARK    6  A    between atoms: C_24  and  C_25 
REMARK    7  A    between atoms: C_26  and  O_27 
ROOT
HETATM    1  C   UNL     1      41.637 -12.028   5.100  1.00  0.00     0.159 A 
HETATM    2  N   UNL     1      40.424 -11.698   4.317  1.00  0.00    -0.333 N 
HETATM    3  C   UNL     1      39.332 -11.278   5.094  1.00  0.00     0.275 A 
HETATM    4  O   UNL     1      38.210 -10.995   4.710  1.00  0.00    -0.266 OA
HETATM    5  C   UNL     1      39.865 -11.215   6.438  1.00  0.00     0.155 A 
HETATM    6  C   UNL     1      41.207 -11.616   6.459  1.00  0.00     0.034 A 
HETATM    7  N   UNL     1      39.416 -10.812   7.622  1.00  0.00    -0.168 NA
HETATM    8  N   UNL     1      40.504 -10.975   8.413  1.00  0.00    -0.276 N 
HETATM    9  H   UNL     1      40.424 -10.746   9.399  1.00  0.00     0.189 HD
HETATM   10  C   UNL     1      41.647 -11.377   7.738  1.00  0.00     0.074 A 
ENDROOT
BRANCH   1  11
HETATM   11  C   UNL     1      41.916 -13.517   5.158  1.00  0.00    -0.031 A 
HETATM   12  C   UNL     1      40.945 -14.385   5.681  1.00  0.00     0.011 A 
HETATM   13  C   UNL     1      41.157 -15.769   5.702  1.00  0.00     0.019 A 
HETATM   14  C   UNL     1      42.340 -16.315   5.198  1.00  0.00    -0.000 A 
HETATM   15  C   UNL     1      43.331 -15.460   4.720  1.00  0.00     0.019 A 
HETATM   16  C   UNL     1      43.124 -14.078   4.701  1.00  0.00     0.011 A 
BRANCH  14  17
HETATM   17  S   UNL     1      42.559 -18.085   5.205  1.00  0.00    -0.134 SA
HETATM   18  C   UNL     1      43.894 -18.235   3.983  1.00  0.00     0.095 C 
ENDBRANCH  14  17
ENDBRANCH   1  11
BRANCH   2  19
HETATM   19  C   UNL     1      40.395 -11.777   2.866  1.00  0.00     0.132 C 
BRANCH  19  20
HETATM   20  C   UNL     1      39.466 -12.890   2.364  1.00  0.00     0.058 C 
BRANCH  20  21
HETATM   21  C   UNL     1      40.194 -14.172   2.039  1.00  0.00    -0.057 A 
HETATM   22  C   UNL     1      41.474 -14.148   1.471  1.00  0.00     0.007 A 
HETATM   23  C   UNL     1      42.148 -15.339   1.195  1.00  0.00     0.001 A 
HETATM   24  C   UNL     1      41.552 -16.565   1.488  1.00  0.00     0.000 A 
HETATM   25  C   UNL     1      40.281 -16.600   2.057  1.00  0.00     0.001 A 
HETATM   26  C   UNL     1      39.605 -15.410   2.331  1.00  0.00     0.007 A 
ENDBRANCH  20  21
ENDBRANCH  19  20
ENDBRANCH   2  19
BRANCH  10  27
HETATM   27  C   UNL     1      42.949 -11.466   8.389  1.00  0.00     0.026 A 
HETATM   28  C   UNL     1      43.285 -10.647   9.479  1.00  0.00     0.078 A 
HETATM   29  C   UNL     1      44.505 -10.781  10.138  1.00  0.00     0.037 A 
HETATM   30  C   UNL     1      45.431 -11.720   9.692  1.00  0.00     0.003 A 
HETATM   31  C   UNL     1      45.127 -12.530   8.600  1.00  0.00     0.001 A 
HETATM   32  C   UNL     1      43.889 -12.410   7.958  1.00  0.00     0.016 A 
BRANCH  28  33
HETATM   33  O   UNL     1      42.447  -9.670   9.949  1.00  0.00    -0.360 OA
HETATM   34  H   UNL     1      42.205  -9.097   9.200  1.00  0.00     0.217 HD
ENDBRANCH  28  33
ENDBRANCH  10  27
TORSDOF 7
ENDMDL
MODEL 9
REMARK VINA RESULT:      -7.2      4.229      8.345
REMARK  7 active torsions:
REMARK  status: ('A' for Active; 'I' for Inactive)
REMARK    1  A    between atoms: S_2  and  C_3 
REMARK    2  A    between atoms: C_6  and  C_7 
REMARK    3  A    between atoms: N_8  and  C_9 
REMARK    4  A    between atoms: C_9  and  C_10 
REMARK    5  A    between atoms: C_10  and  C_11 
REMARK    6  A    between atoms: C_24  and  C_25 
REMARK    7  A    between atoms: C_26  and  O_27 
ROOT
HETATM    1  C   UNL     1      42.058 -12.583   4.959  1.00  0.00     0.159 A 
HETATM    2  N   UNL     1      41.596 -12.754   3.562  1.00  0.00    -0.333 N 
HETATM    3  C   UNL     1      40.223 -12.525   3.376  1.00  0.00     0.275 A 
HETATM    4  O   UNL     1      39.581 -12.643   2.346  1.00  0.00    -0.266 OA
HETATM    5  C   UNL     1      39.766 -12.073   4.673  1.00  0.00     0.155 A 
HETATM    6  C   UNL     1      40.820 -12.070   5.596  1.00  0.00     0.034 A 
HETATM    7  N   UNL     1      38.627 -11.607   5.172  1.00  0.00    -0.168 NA
HETATM    8  N   UNL     1      38.970 -11.312   6.449  1.00  0.00    -0.276 N 
HETATM    9  H   UNL     1      38.256 -10.940   7.069  1.00  0.00     0.189 HD
HETATM   10  C   UNL     1      40.315 -11.490   6.735  1.00  0.00     0.074 A 
ENDROOT
BRANCH   1  11
HETATM   11  C   UNL     1      42.391 -13.897   5.637  1.00  0.00    -0.031 A 
HETATM   12  C   UNL     1      41.402 -14.885   5.760  1.00  0.00     0.011 A 
HETATM   13  C   UNL     1      41.696 -16.126   6.338  1.00  0.00     0.019 A 
HETATM   14  C   UNL     1      42.983 -16.408   6.801  1.00  0.00    -0.000 A 
HETATM   15  C   UNL     1      43.962 -15.418   6.727  1.00  0.00     0.019 A 
HETATM   16  C   UNL     1      43.671 -14.178   6.154  1.00  0.00     0.011 A 
BRANCH  14  17
HETATM   17  S   UNL     1      43.332 -18.013   7.495  1.00  0.00    -0.134 SA
HETATM   18  C   UNL     1      44.941 -18.342   6.722  1.00  0.00     0.095 C 
ENDBRANCH  14  17
ENDBRANCH   1  11
BRANCH   2  19
HETATM   19  C   UNL     1      42.507 -13.098   2.483  1.00  0.00     0.132 C 
BRANCH  19  20
HETATM   20  C   UNL     1      41.995 -14.276   1.645  1.00  0.00     0.058 C 
BRANCH  20  21
HETATM   21  C   UNL     1      42.247 -15.618   2.286  1.00  0.00    -0.057 A 
HETATM   22  C   UNL     1      41.217 -16.558   2.419  1.00  0.00     0.007 A 
HETATM   23  C   UNL     1      41.466 -17.805   2.993  1.00  0.00     0.001 A 
HETATM   24  C   UNL     1      42.747 -18.128   3.437  1.00  0.00     0.000 A 
HETATM   25  C   UNL     1      43.781 -17.203   3.306  1.00  0.00     0.001 A 
HETATM   26  C   UNL     1      43.533 -15.954   2.735  1.00  0.00     0.007 A 
ENDBRANCH  20  21
ENDBRANCH  19  20
ENDBRANCH   2  19
BRANCH  10  27
HETATM   27  C   UNL     1      40.904 -11.091   8.008  1.00  0.00     0.026 A 
HETATM   28  C   UNL     1      40.135 -11.008   9.181  1.00  0.00     0.078 A 
HETATM   29  C   UNL     1      40.715 -10.688  10.406  1.00  0.00     0.037 A 
HETATM   30  C   UNL     1      42.078 -10.411  10.475  1.00  0.00     0.003 A 
HETATM   31  C   UNL     1      42.856 -10.468   9.320  1.00  0.00     0.001 A 
HETATM   32  C   UNL     1      42.274 -10.816   8.096  1.00  0.00     0.016 A 
BRANCH  28  33
HETATM   33  O   UNL     1      38.782 -11.222   9.188  1.00  0.00    -0.360 OA
HETATM   34  H   UNL     1      38.627 -12.154   9.426  1.00  0.00     0.217 HD
ENDBRANCH  28  33
ENDBRANCH  10  27
TORSDOF 7
ENDMDL
MODEL 10
REMARK VINA RESULT:      -7.1      3.565      5.271
REMARK  7 active torsions:
REMARK  status: ('A' for Active; 'I' for Inactive)
REMARK    1  A    between atoms: S_2  and  C_3 
REMARK    2  A    between atoms: C_6  and  C_7 
REMARK    3  A    between atoms: N_8  and  C_9 
REMARK    4  A    between atoms: C_9  and  C_10 
REMARK    5  A    between atoms: C_10  and  C_11 
REMARK    6  A    between atoms: C_24  and  C_25 
REMARK    7  A    between atoms: C_26  and  O_27 
ROOT
HETATM    1  C   UNL     1      41.514 -16.476   3.490  1.00  0.00     0.159 A 
HETATM    2  N   UNL     1      40.760 -15.591   2.571  1.00  0.00    -0.333 N 
HETATM    3  C   UNL     1      41.241 -15.586   1.252  1.00  0.00     0.275 A 
HETATM    4  O   UNL     1      40.838 -14.916   0.315  1.00  0.00    -0.266 OA
HETATM    5  C   UNL     1      42.284 -16.589   1.256  1.00  0.00     0.155 A 
HETATM    6  C   UNL     1      42.436 -17.139   2.535  1.00  0.00     0.034 A 
HETATM    7  N   UNL     1      43.068 -17.151   0.343  1.00  0.00    -0.168 NA
HETATM    8  N   UNL     1      43.743 -18.073   1.071  1.00  0.00    -0.276 N 
HETATM    9  H   UNL     1      44.437 -18.647   0.602  1.00  0.00     0.189 HD
HETATM   10  C   UNL     1      43.333 -18.170   2.393  1.00  0.00     0.074 A 
ENDROOT
BRANCH   1  11
HETATM   11  C   UNL     1      42.373 -15.711   4.476  1.00  0.00    -0.031 A 
HETATM   12  C   UNL     1      42.448 -16.139   5.810  1.00  0.00     0.011 A 
HETATM   13  C   UNL     1      43.272 -15.479   6.730  1.00  0.00     0.019 A 
HETATM   14  C   UNL     1      44.041 -14.382   6.337  1.00  0.00    -0.000 A 
HETATM   15  C   UNL     1      43.940 -13.918   5.026  1.00  0.00     0.019 A 
HETATM   16  C   UNL     1      43.116 -14.573   4.107  1.00  0.00     0.011 A 
BRANCH  14  17
HETATM   17  S   UNL     1      45.109 -13.591   7.525  1.00  0.00    -0.134 SA
HETATM   18  C   UNL     1      43.991 -12.294   8.131  1.00  0.00     0.095 C 
ENDBRANCH  14  17
ENDBRANCH   1  11
BRANCH   2  19
HETATM   19  C   UNL     1      39.605 -14.826   3.010  1.00  0.00     0.132 C 
BRANCH  19  20
HETATM   20  C   UNL     1      39.848 -13.313   2.931  1.00  0.00     0.058 C 
BRANCH  20  21
HETATM   21  C   UNL     1      38.724 -12.563   2.259  1.00  0.00    -0.057 A 
HETATM   22  C   UNL     1      37.994 -13.145   1.216  1.00  0.00     0.007 A 
HETATM   23  C   UNL     1      36.941 -12.452   0.616  1.00  0.00     0.001 A 
HETATM   24  C   UNL     1      36.606 -11.172   1.055  1.00  0.00     0.000 A 
HETATM   25  C   UNL     1      37.323 -10.585   2.095  1.00  0.00     0.001 A 
HETATM   26  C   UNL     1      38.377 -11.276   2.694  1.00  0.00     0.007 A 
ENDBRANCH  20  21
ENDBRANCH  19  20
ENDBRANCH   2  19
BRANCH  10  27
HETATM   27  C   UNL     1      43.837 -19.200   3.294  1.00  0.00     0.026 A 
HETATM   28  C   UNL     1      44.064 -20.515   2.856  1.00  0.00     0.078 A 
HETATM   29  C   UNL     1      44.605 -21.478   3.704  1.00  0.00     0.037 A 
HETATM   30  C   UNL     1      44.900 -21.149   5.024  1.00  0.00     0.003 A 
HETATM   31  C   UNL     1      44.666 -19.855   5.486  1.00  0.00     0.001 A 
HETATM   32  C   UNL     1      44.146 -18.884   4.623  1.00  0.00     0.016 A 
BRANCH  28  33
HETATM   33  O   UNL     1      43.758 -20.928   1.586  1.00  0.00    -0.360 OA
HETATM   34  H   UNL     1      44.478 -21.507   1.277  1.00  0.00     0.217 HD
ENDBRANCH  28  33
ENDBRANCH  10  27
TORSDOF 7
ENDMDL
