MODEL 1
REMARK VINA RESULT:      -8.6      0.000      0.000
REMARK  8 active torsions:
REMARK  status: ('A' for Active; 'I' for Inactive)
REMARK    1  A    between atoms: C_2  and  N_3 
REMARK    2  A    between atoms: C_2  and  C_26 
REMARK       I    between atoms: N_3  and  C_4 
REMARK    3  A    between atoms: C_4  and  C_5 
REMARK    4  A    between atoms: C_5  and  S_6 
REMARK    5  A    between atoms: S_6  and  C_7 
REMARK    6  A    between atoms: C_10  and  C_11 
REMARK    7  A    between atoms: C_11  and  O_12 
REMARK    8  A    between atoms: O_12  and  C_13 
ROOT
HETATM    1  C   UNL     1      40.378 -13.888   2.746  1.00  0.00     0.191 A 
HETATM    2  N   UNL     1      40.980 -14.333   1.602  1.00  0.00    -0.314 N 
HETATM    3  C   UNL     1      41.694 -13.563   0.616  1.00  0.00     0.160 C 
HETATM    4  C   UNL     1      40.814 -15.701   1.607  1.00  0.00     0.154 A 
HETATM    5  N   UNL     1      40.110 -16.040   2.673  1.00  0.00    -0.132 NA
HETATM    6  N   UNL     1      39.846 -14.901   3.390  1.00  0.00    -0.123 NA
ENDROOT
BRANCH   1   7
HETATM    7  S   UNL     1      40.386 -12.240   3.263  1.00  0.00    -0.081 SA
BRANCH   7   8
HETATM    8  C   UNL     1      41.037 -12.396   4.949  1.00  0.00     0.185 C 
BRANCH   8   9
HETATM    9  C   UNL     1      42.391 -13.082   4.936  1.00  0.00     0.227 C 
HETATM   10  N   UNL     1      42.653 -13.839   6.055  1.00  0.00    -0.352 N 
HETATM   11  H   UNL     1      42.100 -13.639   6.888  1.00  0.00     0.163 HD
HETATM   12  O   UNL     1      43.174 -12.972   3.996  1.00  0.00    -0.273 OA
BRANCH  10  13
HETATM   13  C   UNL     1      43.939 -14.479   6.264  1.00  0.00     0.113 C 
HETATM   14  C   UNL     1      44.765 -13.730   7.312  1.00  0.00     0.037 C 
BRANCH  13  15
HETATM   15  C   UNL     1      43.738 -15.938   6.632  1.00  0.00    -0.036 A 
HETATM   16  C   UNL     1      44.851 -16.741   6.934  1.00  0.00     0.009 A 
HETATM   17  C   UNL     1      44.689 -18.087   7.270  1.00  0.00     0.001 A 
HETATM   18  C   UNL     1      43.416 -18.649   7.303  1.00  0.00     0.000 A 
HETATM   19  C   UNL     1      42.302 -17.869   6.999  1.00  0.00     0.001 A 
HETATM   20  C   UNL     1      42.461 -16.522   6.664  1.00  0.00     0.009 A 
ENDBRANCH  13  15
ENDBRANCH  10  13
ENDBRANCH   8   9
ENDBRANCH   7   8
ENDBRANCH   1   7
BRANCH   4  21
HETATM   21  C   UNL     1      41.404 -16.631   0.604  1.00  0.00     0.256 C 
BRANCH  21  22
HETATM   22  O   UNL     1      42.807 -16.680   0.850  1.00  0.00    -0.344 OA
BRANCH  22  23
HETATM   23  C   UNL     1      43.267 -17.712   1.621  1.00  0.00     0.069 A 
HETATM   24  C   UNL     1      43.286 -19.063   1.267  1.00  0.00     0.044 A 
HETATM   25  C   UNL     1      43.776 -20.034   2.160  1.00  0.00    -0.049 A 
HETATM   26  C   UNL     1      44.236 -19.643   3.429  1.00  0.00    -0.052 A 
HETATM   27  C   UNL     1      43.733 -21.488   1.755  1.00  0.00     0.039 C 
HETATM   28  C   UNL     1      44.802 -20.643   4.408  1.00  0.00     0.039 C 
HETATM   29  C   UNL     1      44.226 -18.284   3.772  1.00  0.00     0.010 A 
HETATM   30  C   UNL     1      44.405 -22.084   4.095  1.00  0.00     0.005 C 
HETATM   31  C   UNL     1      44.619 -22.384   2.617  1.00  0.00     0.005 C 
HETATM   32  C   UNL     1      43.740 -17.331   2.876  1.00  0.00     0.037 A 
ENDBRANCH  22  23
ENDBRANCH  21  22
ENDBRANCH   4  21
TORSDOF 8
ENDMDL
MODEL 2
REMARK VINA RESULT:      -8.3      1.445      2.466
REMARK  8 active torsions:
REMARK  status: ('A' for Active; 'I' for Inactive)
REMARK    1  A    between atoms: C_2  and  N_3 
REMARK    2  A    between atoms: C_2  and  C_26 
REMARK       I    between atoms: N_3  and  C_4 
REMARK    3  A    between atoms: C_4  and  C_5 
REMARK    4  A    between atoms: C_5  and  S_6 
REMARK    5  A    between atoms: S_6  and  C_7 
REMARK    6  A    between atoms: C_10  and  C_11 
REMARK    7  A    between atoms: C_11  and  O_12 
REMARK    8  A    between atoms: O_12  and  C_13 
ROOT
HETATM    1  C   UNL     1      39.693 -14.604   1.227  1.00  0.00     0.191 A 
HETATM    2  N   UNL     1      40.844 -14.947   0.575  1.00  0.00    -0.314 N 
HETATM    3  C   UNL     1      41.563 -14.189  -0.418  1.00  0.00     0.160 C 
HETATM    4  C   UNL     1      41.220 -16.162   1.105  1.00  0.00     0.154 A 
HETATM    5  N   UNL     1      40.313 -16.538   1.990  1.00  0.00    -0.132 NA
HETATM    6  N   UNL     1      39.361 -15.554   2.070  1.00  0.00    -0.123 NA
ENDROOT
BRANCH   1   7
HETATM    7  S   UNL     1      38.858 -13.110   0.993  1.00  0.00    -0.081 SA
BRANCH   7   8
HETATM    8  C   UNL     1      38.915 -12.401   2.662  1.00  0.00     0.185 C 
BRANCH   8   9
HETATM    9  C   UNL     1      40.328 -12.453   3.214  1.00  0.00     0.227 C 
HETATM   10  N   UNL     1      40.479 -13.279   4.305  1.00  0.00    -0.352 N 
HETATM   11  H   UNL     1      39.634 -13.524   4.819  1.00  0.00     0.163 HD
HETATM   12  O   UNL     1      41.252 -11.815   2.716  1.00  0.00    -0.273 OA
BRANCH  10  13
HETATM   13  C   UNL     1      41.734 -13.371   5.029  1.00  0.00     0.113 C 
HETATM   14  C   UNL     1      41.867 -12.237   6.048  1.00  0.00     0.037 C 
BRANCH  13  15
HETATM   15  C   UNL     1      41.860 -14.738   5.677  1.00  0.00    -0.036 A 
HETATM   16  C   UNL     1      40.775 -15.630   5.640  1.00  0.00     0.009 A 
HETATM   17  C   UNL     1      40.867 -16.890   6.235  1.00  0.00     0.001 A 
HETATM   18  C   UNL     1      42.041 -17.274   6.877  1.00  0.00     0.000 A 
HETATM   19  C   UNL     1      43.124 -16.399   6.929  1.00  0.00     0.001 A 
HETATM   20  C   UNL     1      43.035 -15.137   6.335  1.00  0.00     0.009 A 
ENDBRANCH  13  15
ENDBRANCH  10  13
ENDBRANCH   8   9
ENDBRANCH   7   8
ENDBRANCH   1   7
BRANCH   4  21
HETATM   21  C   UNL     1      42.484 -16.878   0.774  1.00  0.00     0.256 C 
BRANCH  21  22
HETATM   22  O   UNL     1      43.286 -16.881   1.952  1.00  0.00    -0.344 OA
BRANCH  22  23
HETATM   23  C   UNL     1      43.586 -18.100   2.496  1.00  0.00     0.069 A 
HETATM   24  C   UNL     1      43.785 -18.373   3.851  1.00  0.00     0.044 A 
HETATM   25  C   UNL     1      44.102 -19.674   4.284  1.00  0.00    -0.049 A 
HETATM   26  C   UNL     1      44.237 -20.707   3.341  1.00  0.00    -0.052 A 
HETATM   27  C   UNL     1      44.357 -19.915   5.753  1.00  0.00     0.039 C 
HETATM   28  C   UNL     1      44.542 -22.125   3.759  1.00  0.00     0.039 C 
HETATM   29  C   UNL     1      44.022 -20.429   1.984  1.00  0.00     0.010 A 
HETATM   30  C   UNL     1      45.129 -22.225   5.165  1.00  0.00     0.005 C 
HETATM   31  C   UNL     1      44.312 -21.390   6.142  1.00  0.00     0.005 C 
HETATM   32  C   UNL     1      43.705 -19.135   1.569  1.00  0.00     0.037 A 
ENDBRANCH  22  23
ENDBRANCH  21  22
ENDBRANCH   4  21
TORSDOF 8
ENDMDL
MODEL 3
REMARK VINA RESULT:      -8.2      3.074      4.428
REMARK  8 active torsions:
REMARK  status: ('A' for Active; 'I' for Inactive)
REMARK    1  A    between atoms: C_2  and  N_3 
REMARK    2  A    between atoms: C_2  and  C_26 
REMARK       I    between atoms: N_3  and  C_4 
REMARK    3  A    between atoms: C_4  and  C_5 
REMARK    4  A    between atoms: C_5  and  S_6 
REMARK    5  A    between atoms: S_6  and  C_7 
REMARK    6  A    between atoms: C_10  and  C_11 
REMARK    7  A    between atoms: C_11  and  O_12 
REMARK    8  A    between atoms: O_12  and  C_13 
ROOT
HETATM    1  C   UNL     1      41.667 -12.383   5.076  1.00  0.00     0.191 A 
HETATM    2  N   UNL     1      41.909 -13.122   3.952  1.00  0.00    -0.314 N 
HETATM    3  C   UNL     1      41.373 -12.929   2.629  1.00  0.00     0.160 C 
HETATM    4  C   UNL     1      42.828 -14.077   4.330  1.00  0.00     0.154 A 
HETATM    5  N   UNL     1      43.080 -13.938   5.619  1.00  0.00    -0.132 NA
HETATM    6  N   UNL     1      42.357 -12.868   6.083  1.00  0.00    -0.123 NA
ENDROOT
BRANCH   1   7
HETATM    7  S   UNL     1      40.646 -10.990   5.116  1.00  0.00    -0.081 SA
BRANCH   7   8
HETATM    8  C   UNL     1      39.513 -11.414   6.468  1.00  0.00     0.185 C 
BRANCH   8   9
HETATM    9  C   UNL     1      39.839 -10.605   7.709  1.00  0.00     0.227 C 
HETATM   10  N   UNL     1      40.792 -11.175   8.523  1.00  0.00    -0.352 N 
HETATM   11  H   UNL     1      40.960 -12.174   8.408  1.00  0.00     0.163 HD
HETATM   12  O   UNL     1      39.299  -9.528   7.953  1.00  0.00    -0.273 OA
BRANCH  10  13
HETATM   13  C   UNL     1      41.151 -10.596   9.805  1.00  0.00     0.113 C 
HETATM   14  C   UNL     1      40.284 -11.166  10.930  1.00  0.00     0.037 C 
BRANCH  13  15
HETATM   15  C   UNL     1      42.633 -10.798  10.068  1.00  0.00    -0.036 A 
HETATM   16  C   UNL     1      43.155 -10.546  11.348  1.00  0.00     0.009 A 
HETATM   17  C   UNL     1      44.515 -10.720  11.610  1.00  0.00     0.001 A 
HETATM   18  C   UNL     1      45.372 -11.143  10.598  1.00  0.00     0.000 A 
HETATM   19  C   UNL     1      44.872 -11.391   9.321  1.00  0.00     0.001 A 
HETATM   20  C   UNL     1      43.512 -11.218   9.056  1.00  0.00     0.009 A 
ENDBRANCH  13  15
ENDBRANCH  10  13
ENDBRANCH   8   9
ENDBRANCH   7   8
ENDBRANCH   1   7
BRANCH   4  21
HETATM   21  C   UNL     1      43.473 -15.048   3.401  1.00  0.00     0.256 C 
BRANCH  21  22
HETATM   22  O   UNL     1      42.586 -16.154   3.266  1.00  0.00    -0.344 OA
BRANCH  22  23
HETATM   23  C   UNL     1      43.125 -17.404   3.410  1.00  0.00     0.069 A 
HETATM   24  C   UNL     1      43.068 -18.440   2.476  1.00  0.00     0.044 A 
HETATM   25  C   UNL     1      43.655 -19.689   2.751  1.00  0.00    -0.049 A 
HETATM   26  C   UNL     1      44.291 -19.903   3.986  1.00  0.00    -0.052 A 
HETATM   27  C   UNL     1      43.528 -20.797   1.733  1.00  0.00     0.039 C 
HETATM   28  C   UNL     1      44.964 -21.213   4.313  1.00  0.00     0.039 C 
HETATM   29  C   UNL     1      44.356 -18.854   4.913  1.00  0.00     0.010 A 
HETATM   30  C   UNL     1      44.499 -22.367   3.428  1.00  0.00     0.005 C 
HETATM   31  C   UNL     1      44.504 -21.949   1.964  1.00  0.00     0.005 C 
HETATM   32  C   UNL     1      43.772 -17.619   4.626  1.00  0.00     0.037 A 
ENDBRANCH  22  23
ENDBRANCH  21  22
ENDBRANCH   4  21
TORSDOF 8
ENDMDL
MODEL 4
REMARK VINA RESULT:      -8.1      3.145      4.709
REMARK  8 active torsions:
REMARK  status: ('A' for Active; 'I' for Inactive)
REMARK    1  A    between atoms: C_2  and  N_3 
REMARK    2  A    between atoms: C_2  and  C_26 
REMARK       I    between atoms: N_3  and  C_4 
REMARK    3  A    between atoms: C_4  and  C_5 
REMARK    4  A    between atoms: C_5  and  S_6 
REMARK    5  A    between atoms: S_6  and  C_7 
REMARK    6  A    between atoms: C_10  and  C_11 
REMARK    7  A    between atoms: C_11  and  O_12 
REMARK    8  A    between atoms: O_12  and  C_13 
ROOT
HETATM    1  C   UNL     1      41.582 -12.577   5.334  1.00  0.00     0.191 A 
HETATM    2  N   UNL     1      41.729 -13.572   4.408  1.00  0.00    -0.314 N 
HETATM    3  C   UNL     1      40.903 -13.849   3.261  1.00  0.00     0.160 C 
HETATM    4  C   UNL     1      42.881 -14.240   4.766  1.00  0.00     0.154 A 
HETATM    5  N   UNL     1      43.361 -13.697   5.871  1.00  0.00    -0.132 NA
HETATM    6  N   UNL     1      42.548 -12.649   6.220  1.00  0.00    -0.123 NA
ENDROOT
BRANCH   1   7
HETATM    7  S   UNL     1      40.331 -11.387   5.282  1.00  0.00    -0.081 SA
BRANCH   7   8
HETATM    8  C   UNL     1      39.321 -11.865   6.711  1.00  0.00     0.185 C 
BRANCH   8   9
HETATM    9  C   UNL     1      39.602 -10.954   7.891  1.00  0.00     0.227 C 
HETATM   10  N   UNL     1      40.676 -11.341   8.662  1.00  0.00    -0.352 N 
HETATM   11  H   UNL     1      40.978 -12.310   8.579  1.00  0.00     0.163 HD
HETATM   12  O   UNL     1      38.929  -9.953   8.124  1.00  0.00    -0.273 OA
BRANCH  10  13
HETATM   13  C   UNL     1      41.026 -10.650   9.890  1.00  0.00     0.113 C 
HETATM   14  C   UNL     1      40.183 -11.152  11.064  1.00  0.00     0.037 C 
BRANCH  13  15
HETATM   15  C   UNL     1      42.514 -10.788  10.156  1.00  0.00    -0.036 A 
HETATM   16  C   UNL     1      43.028 -10.475  11.425  1.00  0.00     0.009 A 
HETATM   17  C   UNL     1      44.395 -10.589  11.689  1.00  0.00     0.001 A 
HETATM   18  C   UNL     1      45.265 -11.012  10.689  1.00  0.00     0.000 A 
HETATM   19  C   UNL     1      44.773 -11.321   9.423  1.00  0.00     0.001 A 
HETATM   20  C   UNL     1      43.407 -11.208   9.155  1.00  0.00     0.009 A 
ENDBRANCH  13  15
ENDBRANCH  10  13
ENDBRANCH   8   9
ENDBRANCH   7   8
ENDBRANCH   1   7
BRANCH   4  21
HETATM   21  C   UNL     1      43.503 -15.341   3.978  1.00  0.00     0.256 C 
BRANCH  21  22
HETATM   22  O   UNL     1      43.417 -16.524   4.768  1.00  0.00    -0.344 OA
BRANCH  22  23
HETATM   23  C   UNL     1      43.522 -17.719   4.111  1.00  0.00     0.069 A 
HETATM   24  C   UNL     1      44.172 -18.864   4.577  1.00  0.00     0.044 A 
HETATM   25  C   UNL     1      44.220 -20.033   3.795  1.00  0.00    -0.049 A 
HETATM   26  C   UNL     1      43.622 -20.044   2.523  1.00  0.00    -0.052 A 
HETATM   27  C   UNL     1      44.975 -21.232   4.317  1.00  0.00     0.039 C 
HETATM   28  C   UNL     1      43.617 -21.284   1.662  1.00  0.00     0.039 C 
HETATM   29  C   UNL     1      42.959 -18.897   2.068  1.00  0.00     0.010 A 
HETATM   30  C   UNL     1      44.674 -22.307   2.073  1.00  0.00     0.005 C 
HETATM   31  C   UNL     1      44.642 -22.527   3.580  1.00  0.00     0.005 C 
HETATM   32  C   UNL     1      42.917 -17.745   2.855  1.00  0.00     0.037 A 
ENDBRANCH  22  23
ENDBRANCH  21  22
ENDBRANCH   4  21
TORSDOF 8
ENDMDL
MODEL 5
REMARK VINA RESULT:      -8.1      1.889      4.641
REMARK  8 active torsions:
REMARK  status: ('A' for Active; 'I' for Inactive)
REMARK    1  A    between atoms: C_2  and  N_3 
REMARK    2  A    between atoms: C_2  and  C_26 
REMARK       I    between atoms: N_3  and  C_4 
REMARK    3  A    between atoms: C_4  and  C_5 
REMARK    4  A    between atoms: C_5  and  S_6 
REMARK    5  A    between atoms: S_6  and  C_7 
REMARK    6  A    between atoms: C_10  and  C_11 
REMARK    7  A    between atoms: C_11  and  O_12 
REMARK    8  A    between atoms: O_12  and  C_13 
ROOT
HETATM    1  C   UNL     1      40.886 -13.005   5.300  1.00  0.00     0.191 A 
HETATM    2  N   UNL     1      41.289 -14.282   5.576  1.00  0.00    -0.314 N 
HETATM    3  C   UNL     1      40.480 -15.400   5.988  1.00  0.00     0.160 C 
HETATM    4  C   UNL     1      42.643 -14.303   5.323  1.00  0.00     0.154 A 
HETATM    5  N   UNL     1      43.028 -13.091   4.962  1.00  0.00    -0.132 NA
HETATM    6  N   UNL     1      41.921 -12.281   4.941  1.00  0.00    -0.123 NA
ENDROOT
BRANCH   1   7
HETATM    7  S   UNL     1      39.244 -12.474   5.370  1.00  0.00    -0.081 SA
BRANCH   7   8
HETATM    8  C   UNL     1      39.206 -11.249   4.033  1.00  0.00     0.185 C 
BRANCH   8   9
HETATM    9  C   UNL     1      38.980 -11.928   2.695  1.00  0.00     0.227 C 
HETATM   10  N   UNL     1      40.110 -12.498   2.152  1.00  0.00    -0.352 N 
HETATM   11  H   UNL     1      41.007 -12.169   2.504  1.00  0.00     0.163 HD
HETATM   12  O   UNL     1      37.877 -11.967   2.156  1.00  0.00    -0.273 OA
BRANCH  10  13
HETATM   13  C   UNL     1      40.106 -13.096   0.829  1.00  0.00     0.113 C 
HETATM   14  C   UNL     1      41.062 -12.361  -0.112  1.00  0.00     0.037 C 
BRANCH  13  15
HETATM   15  C   UNL     1      40.428 -14.576   0.930  1.00  0.00    -0.036 A 
HETATM   16  C   UNL     1      39.896 -15.336   1.985  1.00  0.00     0.009 A 
HETATM   17  C   UNL     1      40.185 -16.698   2.100  1.00  0.00     0.001 A 
HETATM   18  C   UNL     1      41.012 -17.317   1.166  1.00  0.00     0.000 A 
HETATM   19  C   UNL     1      41.553 -16.576   0.117  1.00  0.00     0.001 A 
HETATM   20  C   UNL     1      41.266 -15.214  -0.000  1.00  0.00     0.009 A 
ENDBRANCH  13  15
ENDBRANCH  10  13
ENDBRANCH   8   9
ENDBRANCH   7   8
ENDBRANCH   1   7
BRANCH   4  21
HETATM   21  C   UNL     1      43.499 -15.522   5.380  1.00  0.00     0.256 C 
BRANCH  21  22
HETATM   22  O   UNL     1      43.322 -16.218   4.150  1.00  0.00    -0.344 OA
BRANCH  22  23
HETATM   23  C   UNL     1      43.705 -17.532   4.118  1.00  0.00     0.069 A 
HETATM   24  C   UNL     1      43.555 -18.410   3.043  1.00  0.00     0.044 A 
HETATM   25  C   UNL     1      43.981 -19.748   3.142  1.00  0.00    -0.049 A 
HETATM   26  C   UNL     1      44.548 -20.210   4.342  1.00  0.00    -0.052 A 
HETATM   27  C   UNL     1      43.756 -20.676   1.972  1.00  0.00     0.039 C 
HETATM   28  C   UNL     1      45.051 -21.626   4.485  1.00  0.00     0.039 C 
HETATM   29  C   UNL     1      44.708 -19.319   5.412  1.00  0.00     0.010 A 
HETATM   30  C   UNL     1      44.481 -22.577   3.435  1.00  0.00     0.005 C 
HETATM   31  C   UNL     1      44.582 -21.958   2.047  1.00  0.00     0.005 C 
HETATM   32  C   UNL     1      44.284 -17.995   5.299  1.00  0.00     0.037 A 
ENDBRANCH  22  23
ENDBRANCH  21  22
ENDBRANCH   4  21
TORSDOF 8
ENDMDL
MODEL 6
REMARK VINA RESULT:      -8.1      0.930      1.467
REMARK  8 active torsions:
REMARK  status: ('A' for Active; 'I' for Inactive)
REMARK    1  A    between atoms: C_2  and  N_3 
REMARK    2  A    between atoms: C_2  and  C_26 
REMARK       I    between atoms: N_3  and  C_4 
REMARK    3  A    between atoms: C_4  and  C_5 
REMARK    4  A    between atoms: C_5  and  S_6 
REMARK    5  A    between atoms: S_6  and  C_7 
REMARK    6  A    between atoms: C_10  and  C_11 
REMARK    7  A    between atoms: C_11  and  O_12 
REMARK    8  A    between atoms: O_12  and  C_13 
ROOT
HETATM    1  C   UNL     1      40.267 -13.971   2.377  1.00  0.00     0.191 A 
HETATM    2  N   UNL     1      41.048 -14.440   1.358  1.00  0.00    -0.314 N 
HETATM    3  C   UNL     1      42.009 -13.714   0.568  1.00  0.00     0.160 C 
HETATM    4  C   UNL     1      40.768 -15.786   1.269  1.00  0.00     0.154 A 
HETATM    5  N   UNL     1      39.838 -16.086   2.158  1.00  0.00    -0.132 NA
HETATM    6  N   UNL     1      39.532 -14.947   2.857  1.00  0.00    -0.123 NA
ENDROOT
BRANCH   1   7
HETATM    7  S   UNL     1      40.310 -12.345   2.957  1.00  0.00    -0.081 SA
BRANCH   7   8
HETATM    8  C   UNL     1      41.644 -12.436   4.183  1.00  0.00     0.185 C 
BRANCH   8   9
HETATM    9  C   UNL     1      41.228 -13.299   5.360  1.00  0.00     0.227 C 
HETATM   10  N   UNL     1      41.814 -14.545   5.382  1.00  0.00    -0.352 N 
HETATM   11  H   UNL     1      42.202 -14.889   4.505  1.00  0.00     0.163 HD
HETATM   12  O   UNL     1      40.441 -12.906   6.218  1.00  0.00    -0.273 OA
BRANCH  10  13
HETATM   13  C   UNL     1      41.452 -15.544   6.372  1.00  0.00     0.113 C 
HETATM   14  C   UNL     1      40.236 -16.355   5.919  1.00  0.00     0.037 C 
BRANCH  13  15
HETATM   15  C   UNL     1      42.648 -16.429   6.675  1.00  0.00    -0.036 A 
HETATM   16  C   UNL     1      43.948 -15.937   6.473  1.00  0.00     0.009 A 
HETATM   17  C   UNL     1      45.062 -16.736   6.739  1.00  0.00     0.001 A 
HETATM   18  C   UNL     1      44.892 -18.037   7.207  1.00  0.00     0.000 A 
HETATM   19  C   UNL     1      43.609 -18.542   7.407  1.00  0.00     0.001 A 
HETATM   20  C   UNL     1      42.493 -17.745   7.141  1.00  0.00     0.009 A 
ENDBRANCH  13  15
ENDBRANCH  10  13
ENDBRANCH   8   9
ENDBRANCH   7   8
ENDBRANCH   1   7
BRANCH   4  21
HETATM   21  C   UNL     1      41.468 -16.741   0.364  1.00  0.00     0.256 C 
BRANCH  21  22
HETATM   22  O   UNL     1      42.847 -16.728   0.724  1.00  0.00    -0.344 OA
BRANCH  22  23
HETATM   23  C   UNL     1      43.287 -17.741   1.532  1.00  0.00     0.069 A 
HETATM   24  C   UNL     1      43.319 -19.100   1.210  1.00  0.00     0.044 A 
HETATM   25  C   UNL     1      43.785 -20.049   2.139  1.00  0.00    -0.049 A 
HETATM   26  C   UNL     1      44.209 -19.627   3.411  1.00  0.00    -0.052 A 
HETATM   27  C   UNL     1      43.756 -21.512   1.767  1.00  0.00     0.039 C 
HETATM   28  C   UNL     1      44.750 -20.602   4.428  1.00  0.00     0.039 C 
HETATM   29  C   UNL     1      44.187 -18.261   3.721  1.00  0.00     0.010 A 
HETATM   30  C   UNL     1      44.364 -22.051   4.138  1.00  0.00     0.005 C 
HETATM   31  C   UNL     1      44.620 -22.386   2.674  1.00  0.00     0.005 C 
HETATM   32  C   UNL     1      43.725 -17.330   2.790  1.00  0.00     0.037 A 
ENDBRANCH  22  23
ENDBRANCH  21  22
ENDBRANCH   4  21
TORSDOF 8
ENDMDL
MODEL 7
REMARK VINA RESULT:      -8.0      2.555      6.093
REMARK  8 active torsions:
REMARK  status: ('A' for Active; 'I' for Inactive)
REMARK    1  A    between atoms: C_2  and  N_3 
REMARK    2  A    between atoms: C_2  and  C_26 
REMARK       I    between atoms: N_3  and  C_4 
REMARK    3  A    between atoms: C_4  and  C_5 
REMARK    4  A    between atoms: C_5  and  S_6 
REMARK    5  A    between atoms: S_6  and  C_7 
REMARK    6  A    between atoms: C_10  and  C_11 
REMARK    7  A    between atoms: C_11  and  O_12 
REMARK    8  A    between atoms: O_12  and  C_13 
ROOT
HETATM    1  C   UNL     1      40.700 -12.778   3.379  1.00  0.00     0.191 A 
HETATM    2  N   UNL     1      40.676 -14.119   3.646  1.00  0.00    -0.314 N 
HETATM    3  C   UNL     1      39.819 -15.124   3.071  1.00  0.00     0.160 C 
HETATM    4  C   UNL     1      41.693 -14.332   4.551  1.00  0.00     0.154 A 
HETATM    5  N   UNL     1      42.256 -13.172   4.839  1.00  0.00    -0.132 NA
HETATM    6  N   UNL     1      41.636 -12.200   4.096  1.00  0.00    -0.123 NA
ENDROOT
BRANCH   1   7
HETATM    7  S   UNL     1      39.675 -12.004   2.224  1.00  0.00    -0.081 SA
BRANCH   7   8
HETATM    8  C   UNL     1      40.889 -11.158   1.175  1.00  0.00     0.185 C 
BRANCH   8   9
HETATM    9  C   UNL     1      41.525 -12.134   0.203  1.00  0.00     0.227 C 
HETATM   10  N   UNL     1      40.693 -13.155  -0.199  1.00  0.00    -0.352 N 
HETATM   11  H   UNL     1      39.882 -13.349   0.388  1.00  0.00     0.163 HD
HETATM   12  O   UNL     1      42.681 -12.010  -0.192  1.00  0.00    -0.273 OA
BRANCH  10  13
HETATM   13  C   UNL     1      41.163 -14.240  -1.042  1.00  0.00     0.113 C 
HETATM   14  C   UNL     1      41.612 -15.437  -0.202  1.00  0.00     0.037 C 
BRANCH  13  15
HETATM   15  C   UNL     1      40.088 -14.619  -2.045  1.00  0.00    -0.036 A 
HETATM   16  C   UNL     1      38.813 -14.036  -1.956  1.00  0.00     0.009 A 
HETATM   17  C   UNL     1      37.808 -14.374  -2.864  1.00  0.00     0.001 A 
HETATM   18  C   UNL     1      38.062 -15.302  -3.871  1.00  0.00     0.000 A 
HETATM   19  C   UNL     1      39.319 -15.894  -3.970  1.00  0.00     0.001 A 
HETATM   20  C   UNL     1      40.326 -15.558  -3.063  1.00  0.00     0.009 A 
ENDBRANCH  13  15
ENDBRANCH  10  13
ENDBRANCH   8   9
ENDBRANCH   7   8
ENDBRANCH   1   7
BRANCH   4  21
HETATM   21  C   UNL     1      42.118 -15.670   5.051  1.00  0.00     0.256 C 
BRANCH  21  22
HETATM   22  O   UNL     1      43.332 -16.003   4.383  1.00  0.00    -0.344 OA
BRANCH  22  23
HETATM   23  C   UNL     1      43.422 -17.258   3.847  1.00  0.00     0.069 A 
HETATM   24  C   UNL     1      44.130 -18.336   4.383  1.00  0.00     0.044 A 
HETATM   25  C   UNL     1      44.154 -19.580   3.725  1.00  0.00    -0.049 A 
HETATM   26  C   UNL     1      43.471 -19.735   2.506  1.00  0.00    -0.052 A 
HETATM   27  C   UNL     1      44.973 -20.704   4.314  1.00  0.00     0.039 C 
HETATM   28  C   UNL     1      43.439 -21.059   1.781  1.00  0.00     0.039 C 
HETATM   29  C   UNL     1      42.751 -18.654   1.982  1.00  0.00     0.010 A 
HETATM   30  C   UNL     1      44.547 -22.014   2.220  1.00  0.00     0.005 C 
HETATM   31  C   UNL     1      44.623 -22.075   3.740  1.00  0.00     0.005 C 
HETATM   32  C   UNL     1      42.733 -17.427   2.646  1.00  0.00     0.037 A 
ENDBRANCH  22  23
ENDBRANCH  21  22
ENDBRANCH   4  21
TORSDOF 8
ENDMDL
MODEL 8
REMARK VINA RESULT:      -8.0      3.703      4.888
REMARK  8 active torsions:
REMARK  status: ('A' for Active; 'I' for Inactive)
REMARK    1  A    between atoms: C_2  and  N_3 
REMARK    2  A    between atoms: C_2  and  C_26 
REMARK       I    between atoms: N_3  and  C_4 
REMARK    3  A    between atoms: C_4  and  C_5 
REMARK    4  A    between atoms: C_5  and  S_6 
REMARK    5  A    between atoms: S_6  and  C_7 
REMARK    6  A    between atoms: C_10  and  C_11 
REMARK    7  A    between atoms: C_11  and  O_12 
REMARK    8  A    between atoms: O_12  and  C_13 
ROOT
HETATM    1  C   UNL     1      40.112 -13.284   4.819  1.00  0.00     0.191 A 
HETATM    2  N   UNL     1      40.502 -14.593   4.766  1.00  0.00    -0.314 N 
HETATM    3  C   UNL     1      40.825 -15.470   5.862  1.00  0.00     0.160 C 
HETATM    4  C   UNL     1      40.472 -14.932   3.430  1.00  0.00     0.154 A 
HETATM    5  N   UNL     1      40.128 -13.867   2.729  1.00  0.00    -0.132 NA
HETATM    6  N   UNL     1      39.894 -12.837   3.604  1.00  0.00    -0.123 NA
ENDROOT
BRANCH   1   7
HETATM    7  S   UNL     1      39.894 -12.400   6.286  1.00  0.00    -0.081 SA
BRANCH   7   8
HETATM    8  C   UNL     1      41.563 -11.744   6.562  1.00  0.00     0.185 C 
BRANCH   8   9
HETATM    9  C   UNL     1      41.514 -10.530   7.472  1.00  0.00     0.227 C 
HETATM   10  N   UNL     1      40.992 -10.780   8.721  1.00  0.00    -0.352 N 
HETATM   11  H   UNL     1      40.424 -11.619   8.825  1.00  0.00     0.163 HD
HETATM   12  O   UNL     1      41.917  -9.426   7.116  1.00  0.00    -0.273 OA
BRANCH  10  13
HETATM   13  C   UNL     1      40.769  -9.717   9.685  1.00  0.00     0.113 C 
HETATM   14  C   UNL     1      39.275  -9.469   9.897  1.00  0.00     0.037 C 
BRANCH  13  15
HETATM   15  C   UNL     1      41.485 -10.038  10.985  1.00  0.00    -0.036 A 
HETATM   16  C   UNL     1      40.824 -10.776  11.981  1.00  0.00     0.009 A 
HETATM   17  C   UNL     1      41.461 -11.077  13.187  1.00  0.00     0.001 A 
HETATM   18  C   UNL     1      42.764 -10.643  13.414  1.00  0.00     0.000 A 
HETATM   19  C   UNL     1      43.432  -9.905  12.439  1.00  0.00     0.001 A 
HETATM   20  C   UNL     1      42.797  -9.602  11.233  1.00  0.00     0.009 A 
ENDBRANCH  13  15
ENDBRANCH  10  13
ENDBRANCH   8   9
ENDBRANCH   7   8
ENDBRANCH   1   7
BRANCH   4  21
HETATM   21  C   UNL     1      40.717 -16.302   2.896  1.00  0.00     0.256 C 
BRANCH  21  22
HETATM   22  O   UNL     1      42.096 -16.374   2.542  1.00  0.00    -0.344 OA
BRANCH  22  23
HETATM   23  C   UNL     1      42.759 -17.527   2.861  1.00  0.00     0.069 A 
HETATM   24  C   UNL     1      42.813 -18.689   2.088  1.00  0.00     0.044 A 
HETATM   25  C   UNL     1      43.524 -19.819   2.536  1.00  0.00    -0.049 A 
HETATM   26  C   UNL     1      44.174 -19.782   3.782  1.00  0.00    -0.052 A 
HETATM   27  C   UNL     1      43.515 -21.071   1.692  1.00  0.00     0.039 C 
HETATM   28  C   UNL     1      44.977 -20.956   4.290  1.00  0.00     0.039 C 
HETATM   29  C   UNL     1      44.127 -18.608   4.545  1.00  0.00     0.010 A 
HETATM   30  C   UNL     1      44.635 -22.268   3.587  1.00  0.00     0.005 C 
HETATM   31  C   UNL     1      44.603 -22.070   2.078  1.00  0.00     0.005 C 
HETATM   32  C   UNL     1      43.421 -17.495   4.087  1.00  0.00     0.037 A 
ENDBRANCH  22  23
ENDBRANCH  21  22
ENDBRANCH   4  21
TORSDOF 8
ENDMDL
MODEL 9
REMARK VINA RESULT:      -7.9      3.888      8.775
REMARK  8 active torsions:
REMARK  status: ('A' for Active; 'I' for Inactive)
REMARK    1  A    between atoms: C_2  and  N_3 
REMARK    2  A    between atoms: C_2  and  C_26 
REMARK       I    between atoms: N_3  and  C_4 
REMARK    3  A    between atoms: C_4  and  C_5 
REMARK    4  A    between atoms: C_5  and  S_6 
REMARK    5  A    between atoms: S_6  and  C_7 
REMARK    6  A    between atoms: C_10  and  C_11 
REMARK    7  A    between atoms: C_11  and  O_12 
REMARK    8  A    between atoms: O_12  and  C_13 
ROOT
HETATM    1  C   UNL     1      40.792 -14.390   5.290  1.00  0.00     0.191 A 
HETATM    2  N   UNL     1      41.488 -13.371   5.876  1.00  0.00    -0.314 N 
HETATM    3  C   UNL     1      42.909 -13.277   6.096  1.00  0.00     0.160 C 
HETATM    4  C   UNL     1      40.550 -12.407   6.172  1.00  0.00     0.154 A 
HETATM    5  N   UNL     1      39.357 -12.852   5.822  1.00  0.00    -0.132 NA
HETATM    6  N   UNL     1      39.513 -14.094   5.261  1.00  0.00    -0.123 NA
ENDROOT
BRANCH   1   7
HETATM    7  S   UNL     1      41.524 -15.815   4.644  1.00  0.00    -0.081 SA
BRANCH   7   8
HETATM    8  C   UNL     1      40.478 -16.131   3.195  1.00  0.00     0.185 C 
BRANCH   8   9
HETATM    9  C   UNL     1      41.257 -16.881   2.130  1.00  0.00     0.227 C 
HETATM   10  N   UNL     1      42.266 -17.679   2.623  1.00  0.00    -0.352 N 
HETATM   11  H   UNL     1      42.599 -17.474   3.564  1.00  0.00     0.163 HD
HETATM   12  O   UNL     1      40.995 -16.785   0.934  1.00  0.00    -0.273 OA
BRANCH  10  13
HETATM   13  C   UNL     1      43.182 -18.385   1.746  1.00  0.00     0.113 C 
HETATM   14  C   UNL     1      44.312 -17.468   1.275  1.00  0.00     0.037 C 
BRANCH  13  15
HETATM   15  C   UNL     1      43.707 -19.629   2.439  1.00  0.00    -0.036 A 
HETATM   16  C   UNL     1      44.251 -19.531   3.730  1.00  0.00     0.009 A 
HETATM   17  C   UNL     1      44.745 -20.661   4.384  1.00  0.00     0.001 A 
HETATM   18  C   UNL     1      44.707 -21.903   3.755  1.00  0.00     0.000 A 
HETATM   19  C   UNL     1      44.177 -22.017   2.472  1.00  0.00     0.001 A 
HETATM   20  C   UNL     1      43.682 -20.888   1.815  1.00  0.00     0.009 A 
ENDBRANCH  13  15
ENDBRANCH  10  13
ENDBRANCH   8   9
ENDBRANCH   7   8
ENDBRANCH   1   7
BRANCH   4  21
HETATM   21  C   UNL     1      40.864 -11.059   6.727  1.00  0.00     0.256 C 
BRANCH  21  22
HETATM   22  O   UNL     1      40.197 -10.956   7.982  1.00  0.00    -0.344 OA
BRANCH  22  23
HETATM   23  C   UNL     1      40.980 -10.757   9.087  1.00  0.00     0.069 A 
HETATM   24  C   UNL     1      40.537 -10.682  10.409  1.00  0.00     0.044 A 
HETATM   25  C   UNL     1      41.447 -10.460  11.460  1.00  0.00    -0.049 A 
HETATM   26  C   UNL     1      42.813 -10.297  11.175  1.00  0.00    -0.052 A 
HETATM   27  C   UNL     1      40.919 -10.337  12.870  1.00  0.00     0.039 C 
HETATM   28  C   UNL     1      43.831 -10.093  12.271  1.00  0.00     0.039 C 
HETATM   29  C   UNL     1      43.251 -10.388   9.847  1.00  0.00     0.010 A 
HETATM   30  C   UNL     1      43.213  -9.626  13.588  1.00  0.00     0.005 C 
HETATM   31  C   UNL     1      42.002 -10.481  13.938  1.00  0.00     0.005 C 
HETATM   32  C   UNL     1      42.339 -10.611   8.815  1.00  0.00     0.037 A 
ENDBRANCH  22  23
ENDBRANCH  21  22
ENDBRANCH   4  21
TORSDOF 8
ENDMDL
MODEL 10
REMARK VINA RESULT:      -7.8      2.723      6.033
REMARK  8 active torsions:
REMARK  status: ('A' for Active; 'I' for Inactive)
REMARK    1  A    between atoms: C_2  and  N_3 
REMARK    2  A    between atoms: C_2  and  C_26 
REMARK       I    between atoms: N_3  and  C_4 
REMARK    3  A    between atoms: C_4  and  C_5 
REMARK    4  A    between atoms: C_5  and  S_6 
REMARK    5  A    between atoms: S_6  and  C_7 
REMARK    6  A    between atoms: C_10  and  C_11 
REMARK    7  A    between atoms: C_11  and  O_12 
REMARK    8  A    between atoms: O_12  and  C_13 
ROOT
HETATM    1  C   UNL     1      40.022 -13.514   3.321  1.00  0.00     0.191 A 
HETATM    2  N   UNL     1      41.370 -13.551   3.542  1.00  0.00    -0.314 N 
HETATM    3  C   UNL     1      42.231 -12.476   3.966  1.00  0.00     0.160 C 
HETATM    4  C   UNL     1      41.744 -14.859   3.327  1.00  0.00     0.154 A 
HETATM    5  N   UNL     1      40.680 -15.549   2.954  1.00  0.00    -0.132 NA
HETATM    6  N   UNL     1      39.600 -14.704   2.959  1.00  0.00    -0.123 NA
ENDROOT
BRANCH   1   7
HETATM    7  S   UNL     1      39.043 -12.110   3.548  1.00  0.00    -0.081 SA
BRANCH   7   8
HETATM    8  C   UNL     1      38.198 -11.998   1.947  1.00  0.00     0.185 C 
BRANCH   8   9
HETATM    9  C   UNL     1      39.203 -12.036   0.811  1.00  0.00     0.227 C 
HETATM   10  N   UNL     1      39.238 -13.230   0.126  1.00  0.00    -0.352 N 
HETATM   11  H   UNL     1      38.850 -14.045   0.598  1.00  0.00     0.163 HD
HETATM   12  O   UNL     1      39.913 -11.073   0.529  1.00  0.00    -0.273 OA
BRANCH  10  13
HETATM   13  C   UNL     1      40.212 -13.484  -0.920  1.00  0.00     0.113 C 
HETATM   14  C   UNL     1      41.468 -14.150  -0.355  1.00  0.00     0.037 C 
BRANCH  13  15
HETATM   15  C   UNL     1      39.579 -14.307  -2.028  1.00  0.00    -0.036 A 
HETATM   16  C   UNL     1      38.215 -14.146  -2.324  1.00  0.00     0.009 A 
HETATM   17  C   UNL     1      37.610 -14.897  -3.334  1.00  0.00     0.001 A 
HETATM   18  C   UNL     1      38.359 -15.821  -4.059  1.00  0.00     0.000 A 
HETATM   19  C   UNL     1      39.711 -15.997  -3.774  1.00  0.00     0.001 A 
HETATM   20  C   UNL     1      40.318 -15.248  -2.763  1.00  0.00     0.009 A 
ENDBRANCH  13  15
ENDBRANCH  10  13
ENDBRANCH   8   9
ENDBRANCH   7   8
ENDBRANCH   1   7
BRANCH   4  21
HETATM   21  C   UNL     1      43.113 -15.400   3.558  1.00  0.00     0.256 C 
BRANCH  21  22
HETATM   22  O   UNL     1      43.031 -16.295   4.664  1.00  0.00    -0.344 OA
BRANCH  22  23
HETATM   23  C   UNL     1      43.487 -17.570   4.467  1.00  0.00     0.069 A 
HETATM   24  C   UNL     1      43.291 -18.349   3.324  1.00  0.00     0.044 A 
HETATM   25  C   UNL     1      43.804 -19.658   3.250  1.00  0.00    -0.049 A 
HETATM   26  C   UNL     1      44.507 -20.193   4.343  1.00  0.00    -0.052 A 
HETATM   27  C   UNL     1      43.527 -20.483   2.015  1.00  0.00     0.039 C 
HETATM   28  C   UNL     1      45.105 -21.578   4.297  1.00  0.00     0.039 C 
HETATM   29  C   UNL     1      44.711 -19.400   5.480  1.00  0.00     0.010 A 
HETATM   30  C   UNL     1      44.497 -22.461   3.209  1.00  0.00     0.005 C 
HETATM   31  C   UNL     1      44.431 -21.707   1.888  1.00  0.00     0.005 C 
HETATM   32  C   UNL     1      44.200 -18.103   5.539  1.00  0.00     0.037 A 
ENDBRANCH  22  23
ENDBRANCH  21  22
ENDBRANCH   4  21
TORSDOF 8
ENDMDL
