MODEL 1
REMARK VINA RESULT:      -7.4      0.000      0.000
REMARK  6 active torsions:
REMARK  status: ('A' for Active; 'I' for Inactive)
REMARK    1  A    between atoms: C_3  and  N_4 
REMARK    2  A    between atoms: N_4  and  C_5 
REMARK    3  A    between atoms: C_5  and  C_6 
REMARK    4  A    between atoms: N_8  and  C_10 
REMARK    5  A    between atoms: C_10  and  C_11 
REMARK    6  A    between atoms: C_12  and  O_13 
ROOT
HETATM    1  C   UNL     1      44.379 -17.780   6.657  1.00  0.00     0.031 C 
HETATM    2  C   UNL     1      43.815 -16.877   5.557  1.00  0.00     0.241 C 
HETATM    3  N   UNL     1      42.351 -16.724   5.881  1.00  0.00    -0.067 N 
HETATM    4  H   UNL     1      42.125 -15.710   5.878  1.00  0.00     0.280 HD
HETATM    5  C   UNL     1      42.118 -17.223   7.286  1.00  0.00     0.235 C 
HETATM    6  C   UNL     1      43.516 -17.391   7.857  1.00  0.00     0.035 C 
ENDROOT
BRANCH   3   7
HETATM    7  C   UNL     1      41.407 -17.271   4.840  1.00  0.00     0.276 C 
BRANCH   7   8
HETATM    8  C   UNL     1      40.950 -16.240   3.849  1.00  0.00     0.002 A 
HETATM    9  C   UNL     1      40.181 -15.143   4.259  1.00  0.00     0.073 A 
HETATM   10  C   UNL     1      39.769 -14.168   3.355  1.00  0.00     0.038 A 
HETATM   11  C   UNL     1      40.123 -14.286   2.009  1.00  0.00     0.022 A 
HETATM   12  C   UNL     1      40.885 -15.372   1.586  1.00  0.00     0.011 A 
HETATM   13 BR   UNL     1      41.352 -15.543  -0.237  1.00  0.00    -0.051 Br
HETATM   14  C   UNL     1      41.305 -16.343   2.496  1.00  0.00     0.030 A 
BRANCH   9  15
HETATM   15  O   UNL     1      39.818 -15.069   5.578  1.00  0.00    -0.360 OA
HETATM   16  H   UNL     1      38.866 -14.840   5.611  1.00  0.00     0.217 HD
ENDBRANCH   9  15
ENDBRANCH   7   8
ENDBRANCH   3   7
BRANCH   1  17
HETATM   17  C   UNL     1      44.287 -19.271   6.283  1.00  0.00     0.127 C 
BRANCH  17  18
HETATM   18  N   UNL     1      45.138 -19.572   5.127  1.00  0.00    -0.376 N 
HETATM   19  H   UNL     1      46.100 -19.787   5.374  1.00  0.00     0.161 HD
BRANCH  18  20
HETATM   20  C   UNL     1      44.624 -20.190   3.998  1.00  0.00     0.100 A 
HETATM   21  C   UNL     1      43.909 -19.523   2.994  1.00  0.00     0.048 A 
HETATM   22  C   UNL     1      43.421 -20.224   1.892  1.00  0.00     0.005 A 
HETATM   23  C   UNL     1      43.661 -21.586   1.786  1.00  0.00     0.017 A 
HETATM   24  C   UNL     1      44.399 -22.210   2.777  1.00  0.00     0.089 A 
HETATM   25  N   UNL     1      44.854 -21.504   3.824  1.00  0.00    -0.353 N 
HETATM   26  H   UNL     1      45.403 -21.995   4.524  1.00  0.00     0.166 HD
ENDBRANCH  18  20
ENDBRANCH  17  18
ENDBRANCH   1  17
TORSDOF 6
ENDMDL
MODEL 2
REMARK VINA RESULT:      -7.4      2.408      4.368
REMARK  6 active torsions:
REMARK  status: ('A' for Active; 'I' for Inactive)
REMARK    1  A    between atoms: C_3  and  N_4 
REMARK    2  A    between atoms: N_4  and  C_5 
REMARK    3  A    between atoms: C_5  and  C_6 
REMARK    4  A    between atoms: N_8  and  C_10 
REMARK    5  A    between atoms: C_10  and  C_11 
REMARK    6  A    between atoms: C_12  and  O_13 
ROOT
HETATM    1  C   UNL     1      41.878 -17.425   0.977  1.00  0.00     0.031 C 
HETATM    2  C   UNL     1      41.233 -16.972   2.289  1.00  0.00     0.241 C 
HETATM    3  N   UNL     1      41.308 -15.467   2.269  1.00  0.00    -0.067 N 
HETATM    4  H   UNL     1      40.360 -15.094   2.472  1.00  0.00     0.280 HD
HETATM    5  C   UNL     1      41.665 -15.025   0.871  1.00  0.00     0.235 C 
HETATM    6  C   UNL     1      41.507 -16.282   0.033  1.00  0.00     0.035 C 
ENDROOT
BRANCH   3   7
HETATM    7  C   UNL     1      42.141 -14.856   3.369  1.00  0.00     0.276 C 
BRANCH   7   8
HETATM    8  C   UNL     1      42.153 -15.672   4.630  1.00  0.00     0.002 A 
HETATM    9  C   UNL     1      40.990 -15.829   5.394  1.00  0.00     0.073 A 
HETATM   10  C   UNL     1      40.983 -16.600   6.553  1.00  0.00     0.038 A 
HETATM   11  C   UNL     1      42.161 -17.226   6.968  1.00  0.00     0.022 A 
HETATM   12  C   UNL     1      43.326 -17.078   6.220  1.00  0.00     0.011 A 
HETATM   13 BR   UNL     1      44.924 -17.910   6.788  1.00  0.00    -0.051 Br
HETATM   14  C   UNL     1      43.328 -16.311   5.054  1.00  0.00     0.030 A 
BRANCH   9  15
HETATM   15  O   UNL     1      39.858 -15.176   4.983  1.00  0.00    -0.360 OA
HETATM   16  H   UNL     1      39.667 -14.474   5.639  1.00  0.00     0.217 HD
ENDBRANCH   9  15
ENDBRANCH   7   8
ENDBRANCH   3   7
BRANCH   1  17
HETATM   17  C   UNL     1      43.395 -17.642   1.124  1.00  0.00     0.127 C 
BRANCH  17  18
HETATM   18  N   UNL     1      43.718 -18.184   2.448  1.00  0.00    -0.376 N 
HETATM   19  H   UNL     1      43.271 -17.685   3.212  1.00  0.00     0.161 HD
BRANCH  18  20
HETATM   20  C   UNL     1      43.956 -19.536   2.631  1.00  0.00     0.100 A 
HETATM   21  C   UNL     1      43.646 -20.524   1.687  1.00  0.00     0.048 A 
HETATM   22  C   UNL     1      43.915 -21.866   1.956  1.00  0.00     0.005 A 
HETATM   23  C   UNL     1      44.507 -22.218   3.159  1.00  0.00     0.017 A 
HETATM   24  C   UNL     1      44.833 -21.216   4.057  1.00  0.00     0.089 A 
HETATM   25  N   UNL     1      44.561 -19.935   3.766  1.00  0.00    -0.353 N 
HETATM   26  H   UNL     1      44.827 -19.227   4.444  1.00  0.00     0.166 HD
ENDBRANCH  18  20
ENDBRANCH  17  18
ENDBRANCH   1  17
TORSDOF 6
ENDMDL
MODEL 3
REMARK VINA RESULT:      -7.3      3.055      5.244
REMARK  6 active torsions:
REMARK  status: ('A' for Active; 'I' for Inactive)
REMARK    1  A    between atoms: C_3  and  N_4 
REMARK    2  A    between atoms: N_4  and  C_5 
REMARK    3  A    between atoms: C_5  and  C_6 
REMARK    4  A    between atoms: N_8  and  C_10 
REMARK    5  A    between atoms: C_10  and  C_11 
REMARK    6  A    between atoms: C_12  and  O_13 
ROOT
HETATM    1  C   UNL     1      40.105 -14.733   5.086  1.00  0.00     0.031 C 
HETATM    2  C   UNL     1      40.986 -15.629   5.960  1.00  0.00     0.241 C 
HETATM    3  N   UNL     1      42.211 -14.805   6.262  1.00  0.00    -0.067 N 
HETATM    4  H   UNL     1      42.365 -14.821   7.290  1.00  0.00     0.280 HD
HETATM    5  C   UNL     1      41.931 -13.373   5.880  1.00  0.00     0.235 C 
HETATM    6  C   UNL     1      40.433 -13.343   5.628  1.00  0.00     0.035 C 
ENDROOT
BRANCH   3   7
HETATM    7  C   UNL     1      43.506 -15.370   5.732  1.00  0.00     0.276 C 
BRANCH   7   8
HETATM    8  C   UNL     1      43.779 -16.771   6.198  1.00  0.00     0.002 A 
HETATM    9  C   UNL     1      43.747 -17.093   7.561  1.00  0.00     0.073 A 
HETATM   10  C   UNL     1      43.978 -18.393   8.004  1.00  0.00     0.038 A 
HETATM   11  C   UNL     1      44.253 -19.397   7.073  1.00  0.00     0.022 A 
HETATM   12  C   UNL     1      44.290 -19.092   5.715  1.00  0.00     0.011 A 
HETATM   13 BR   UNL     1      44.678 -20.445   4.455  1.00  0.00    -0.051 Br
HETATM   14  C   UNL     1      44.050 -17.790   5.273  1.00  0.00     0.030 A 
BRANCH   9  15
HETATM   15  O   UNL     1      43.510 -16.083   8.454  1.00  0.00    -0.360 OA
HETATM   16  H   UNL     1      43.766 -16.407   9.343  1.00  0.00     0.217 HD
ENDBRANCH   9  15
ENDBRANCH   7   8
ENDBRANCH   3   7
BRANCH   1  17
HETATM   17  C   UNL     1      40.414 -14.905   3.587  1.00  0.00     0.127 C 
BRANCH  17  18
HETATM   18  N   UNL     1      40.563 -16.323   3.245  1.00  0.00    -0.376 N 
HETATM   19  H   UNL     1      39.689 -16.773   2.986  1.00  0.00     0.161 HD
BRANCH  18  20
HETATM   20  C   UNL     1      41.718 -16.801   2.649  1.00  0.00     0.100 A 
HETATM   21  C   UNL     1      41.900 -18.129   2.238  1.00  0.00     0.048 A 
HETATM   22  C   UNL     1      43.100 -18.527   1.650  1.00  0.00     0.005 A 
HETATM   23  C   UNL     1      44.111 -17.597   1.459  1.00  0.00     0.017 A 
HETATM   24  C   UNL     1      43.889 -16.286   1.844  1.00  0.00     0.089 A 
HETATM   25  N   UNL     1      42.721 -15.937   2.406  1.00  0.00    -0.353 N 
HETATM   26  H   UNL     1      42.591 -14.963   2.663  1.00  0.00     0.166 HD
ENDBRANCH  18  20
ENDBRANCH  17  18
ENDBRANCH   1  17
TORSDOF 6
ENDMDL
MODEL 4
REMARK VINA RESULT:      -7.2      4.039      7.212
REMARK  6 active torsions:
REMARK  status: ('A' for Active; 'I' for Inactive)
REMARK    1  A    between atoms: C_3  and  N_4 
REMARK    2  A    between atoms: N_4  and  C_5 
REMARK    3  A    between atoms: C_5  and  C_6 
REMARK    4  A    between atoms: N_8  and  C_10 
REMARK    5  A    between atoms: C_10  and  C_11 
REMARK    6  A    between atoms: C_12  and  O_13 
ROOT
HETATM    1  C   UNL     1      40.579 -16.037   0.825  1.00  0.00     0.031 C 
HETATM    2  C   UNL     1      41.371 -17.261   1.288  1.00  0.00     0.241 C 
HETATM    3  N   UNL     1      41.673 -17.011   2.743  1.00  0.00    -0.067 N 
HETATM    4  H   UNL     1      41.382 -17.850   3.281  1.00  0.00     0.280 HD
HETATM    5  C   UNL     1      40.816 -15.864   3.218  1.00  0.00     0.235 C 
HETATM    6  C   UNL     1      39.816 -15.656   2.093  1.00  0.00     0.035 C 
ENDROOT
BRANCH   3   7
HETATM    7  C   UNL     1      43.140 -16.901   3.080  1.00  0.00     0.276 C 
BRANCH   7   8
HETATM    8  C   UNL     1      43.744 -18.196   3.540  1.00  0.00     0.002 A 
HETATM    9  C   UNL     1      44.222 -18.339   4.849  1.00  0.00     0.073 A 
HETATM   10  C   UNL     1      44.764 -19.542   5.295  1.00  0.00     0.038 A 
HETATM   11  C   UNL     1      44.841 -20.627   4.419  1.00  0.00     0.022 A 
HETATM   12  C   UNL     1      44.372 -20.499   3.114  1.00  0.00     0.011 A 
HETATM   13 BR   UNL     1      44.489 -21.961   1.923  1.00  0.00    -0.051 Br
HETATM   14  C   UNL     1      43.820 -19.296   2.673  1.00  0.00     0.030 A 
BRANCH   9  15
HETATM   15  O   UNL     1      44.166 -17.249   5.676  1.00  0.00    -0.360 OA
HETATM   16  H   UNL     1      45.024 -16.780   5.606  1.00  0.00     0.217 HD
ENDBRANCH   9  15
ENDBRANCH   7   8
ENDBRANCH   3   7
BRANCH   1  17
HETATM   17  C   UNL     1      41.498 -14.921   0.294  1.00  0.00     0.127 C 
BRANCH  17  18
HETATM   18  N   UNL     1      41.651 -15.020  -1.161  1.00  0.00    -0.376 N 
HETATM   19  H   UNL     1      42.481 -15.532  -1.449  1.00  0.00     0.161 HD
BRANCH  18  20
HETATM   20  C   UNL     1      40.548 -15.086  -1.997  1.00  0.00     0.100 A 
HETATM   21  C   UNL     1      40.458 -15.926  -3.115  1.00  0.00     0.048 A 
HETATM   22  C   UNL     1      39.311 -15.925  -3.907  1.00  0.00     0.005 A 
HETATM   23  C   UNL     1      38.249 -15.098  -3.573  1.00  0.00     0.017 A 
HETATM   24  C   UNL     1      38.354 -14.304  -2.444  1.00  0.00     0.089 A 
HETATM   25  N   UNL     1      39.473 -14.331  -1.703  1.00  0.00    -0.353 N 
HETATM   26  H   UNL     1      39.508 -13.745  -0.874  1.00  0.00     0.166 HD
ENDBRANCH  18  20
ENDBRANCH  17  18
ENDBRANCH   1  17
TORSDOF 6
ENDMDL
MODEL 5
REMARK VINA RESULT:      -7.2      1.902      2.355
REMARK  6 active torsions:
REMARK  status: ('A' for Active; 'I' for Inactive)
REMARK    1  A    between atoms: C_3  and  N_4 
REMARK    2  A    between atoms: N_4  and  C_5 
REMARK    3  A    between atoms: C_5  and  C_6 
REMARK    4  A    between atoms: N_8  and  C_10 
REMARK    5  A    between atoms: C_10  and  C_11 
REMARK    6  A    between atoms: C_12  and  O_13 
ROOT
HETATM    1  C   UNL     1      43.375 -17.073   5.941  1.00  0.00     0.031 C 
HETATM    2  C   UNL     1      43.277 -16.396   4.572  1.00  0.00     0.241 C 
HETATM    3  N   UNL     1      41.801 -16.281   4.291  1.00  0.00    -0.067 N 
HETATM    4  H   UNL     1      41.599 -15.296   4.027  1.00  0.00     0.280 HD
HETATM    5  C   UNL     1      41.048 -16.558   5.568  1.00  0.00     0.235 C 
HETATM    6  C   UNL     1      42.123 -16.547   6.642  1.00  0.00     0.035 C 
ENDROOT
BRANCH   3   7
HETATM    7  C   UNL     1      41.321 -17.046   3.082  1.00  0.00     0.276 C 
BRANCH   7   8
HETATM    8  C   UNL     1      40.942 -16.161   1.930  1.00  0.00     0.002 A 
HETATM    9  C   UNL     1      41.799 -16.005   0.833  1.00  0.00     0.073 A 
HETATM   10  C   UNL     1      41.450 -15.205  -0.252  1.00  0.00     0.038 A 
HETATM   11  C   UNL     1      40.223 -14.539  -0.247  1.00  0.00     0.022 A 
HETATM   12  C   UNL     1      39.361 -14.682   0.837  1.00  0.00     0.011 A 
HETATM   13 BR   UNL     1      37.707 -13.769   0.855  1.00  0.00    -0.051 Br
HETATM   14  C   UNL     1      39.709 -15.492   1.920  1.00  0.00     0.030 A 
BRANCH   9  15
HETATM   15  O   UNL     1      43.011 -16.642   0.869  1.00  0.00    -0.360 OA
HETATM   16  H   UNL     1      43.234 -16.907  -0.048  1.00  0.00     0.217 HD
ENDBRANCH   9  15
ENDBRANCH   7   8
ENDBRANCH   3   7
BRANCH   1  17
HETATM   17  C   UNL     1      43.423 -18.607   5.824  1.00  0.00     0.127 C 
BRANCH  17  18
HETATM   18  N   UNL     1      44.537 -19.030   4.968  1.00  0.00    -0.376 N 
HETATM   19  H   UNL     1      45.435 -19.041   5.444  1.00  0.00     0.161 HD
BRANCH  18  20
HETATM   20  C   UNL     1      44.351 -19.951   3.951  1.00  0.00     0.100 A 
HETATM   21  C   UNL     1      43.829 -19.635   2.689  1.00  0.00     0.048 A 
HETATM   22  C   UNL     1      43.669 -20.628   1.723  1.00  0.00     0.005 A 
HETATM   23  C   UNL     1      44.045 -21.931   2.011  1.00  0.00     0.017 A 
HETATM   24  C   UNL     1      44.589 -22.206   3.254  1.00  0.00     0.089 A 
HETATM   25  N   UNL     1      44.729 -21.226   4.160  1.00  0.00    -0.353 N 
HETATM   26  H   UNL     1      45.145 -21.464   5.056  1.00  0.00     0.166 HD
ENDBRANCH  18  20
ENDBRANCH  17  18
ENDBRANCH   1  17
TORSDOF 6
ENDMDL
MODEL 6
REMARK VINA RESULT:      -7.0      4.101      7.312
REMARK  6 active torsions:
REMARK  status: ('A' for Active; 'I' for Inactive)
REMARK    1  A    between atoms: C_3  and  N_4 
REMARK    2  A    between atoms: N_4  and  C_5 
REMARK    3  A    between atoms: C_5  and  C_6 
REMARK    4  A    between atoms: N_8  and  C_10 
REMARK    5  A    between atoms: C_10  and  C_11 
REMARK    6  A    between atoms: C_12  and  O_13 
ROOT
HETATM    1  C   UNL     1      42.854 -15.389   6.570  1.00  0.00     0.031 C 
HETATM    2  C   UNL     1      42.250 -16.214   5.432  1.00  0.00     0.241 C 
HETATM    3  N   UNL     1      43.149 -17.416   5.293  1.00  0.00    -0.067 N 
HETATM    4  H   UNL     1      42.554 -18.267   5.307  1.00  0.00     0.280 HD
HETATM    5  C   UNL     1      44.045 -17.485   6.505  1.00  0.00     0.235 C 
HETATM    6  C   UNL     1      43.444 -16.475   7.469  1.00  0.00     0.035 C 
ENDROOT
BRANCH   3   7
HETATM    7  C   UNL     1      43.855 -17.534   3.965  1.00  0.00     0.276 C 
BRANCH   7   8
HETATM    8  C   UNL     1      43.988 -18.951   3.485  1.00  0.00     0.002 A 
HETATM    9  C   UNL     1      43.656 -19.297   2.169  1.00  0.00     0.073 A 
HETATM   10  C   UNL     1      43.796 -20.603   1.706  1.00  0.00     0.038 A 
HETATM   11  C   UNL     1      44.271 -21.591   2.571  1.00  0.00     0.022 A 
HETATM   12  C   UNL     1      44.604 -21.263   3.883  1.00  0.00     0.011 A 
HETATM   13 BR   UNL     1      45.231 -22.600   5.060  1.00  0.00    -0.051 Br
HETATM   14  C   UNL     1      44.471 -19.951   4.342  1.00  0.00     0.030 A 
BRANCH   9  15
HETATM   15  O   UNL     1      43.160 -18.316   1.352  1.00  0.00    -0.360 OA
HETATM   16  H   UNL     1      43.623 -18.385   0.492  1.00  0.00     0.217 HD
ENDBRANCH   9  15
ENDBRANCH   7   8
ENDBRANCH   3   7
BRANCH   1  17
HETATM   17  C   UNL     1      43.892 -14.373   6.059  1.00  0.00     0.127 C 
BRANCH  17  18
HETATM   18  N   UNL     1      45.043 -14.303   6.965  1.00  0.00    -0.376 N 
HETATM   19  H   UNL     1      45.889 -14.714   6.582  1.00  0.00     0.161 HD
BRANCH  18  20
HETATM   20  C   UNL     1      45.199 -13.245   7.846  1.00  0.00     0.100 A 
HETATM   21  C   UNL     1      46.353 -12.454   7.928  1.00  0.00     0.048 A 
HETATM   22  C   UNL     1      46.428 -11.409   8.849  1.00  0.00     0.005 A 
HETATM   23  C   UNL     1      45.347 -11.147   9.676  1.00  0.00     0.017 A 
HETATM   24  C   UNL     1      44.208 -11.924   9.549  1.00  0.00     0.089 A 
HETATM   25  N   UNL     1      44.170 -12.920   8.650  1.00  0.00    -0.353 N 
HETATM   26  H   UNL     1      43.312 -13.460   8.577  1.00  0.00     0.166 HD
ENDBRANCH  18  20
ENDBRANCH  17  18
ENDBRANCH   1  17
TORSDOF 6
ENDMDL
MODEL 7
REMARK VINA RESULT:      -6.9      2.897      4.495
REMARK  6 active torsions:
REMARK  status: ('A' for Active; 'I' for Inactive)
REMARK    1  A    between atoms: C_3  and  N_4 
REMARK    2  A    between atoms: N_4  and  C_5 
REMARK    3  A    between atoms: C_5  and  C_6 
REMARK    4  A    between atoms: N_8  and  C_10 
REMARK    5  A    between atoms: C_10  and  C_11 
REMARK    6  A    between atoms: C_12  and  O_13 
ROOT
HETATM    1  C   UNL     1      42.852 -17.729   1.030  1.00  0.00     0.031 C 
HETATM    2  C   UNL     1      41.914 -16.536   1.233  1.00  0.00     0.241 C 
HETATM    3  N   UNL     1      42.572 -15.691   2.293  1.00  0.00    -0.067 N 
HETATM    4  H   UNL     1      42.621 -14.714   1.942  1.00  0.00     0.280 HD
HETATM    5  C   UNL     1      43.992 -16.167   2.471  1.00  0.00     0.235 C 
HETATM    6  C   UNL     1      44.220 -17.102   1.296  1.00  0.00     0.035 C 
ENDROOT
BRANCH   3   7
HETATM    7  C   UNL     1      41.780 -15.538   3.568  1.00  0.00     0.276 C 
BRANCH   7   8
HETATM    8  C   UNL     1      42.640 -15.440   4.795  1.00  0.00     0.002 A 
HETATM    9  C   UNL     1      43.310 -14.251   5.109  1.00  0.00     0.073 A 
HETATM   10  C   UNL     1      44.093 -14.141   6.255  1.00  0.00     0.038 A 
HETATM   11  C   UNL     1      44.221 -15.239   7.107  1.00  0.00     0.022 A 
HETATM   12  C   UNL     1      43.562 -16.430   6.808  1.00  0.00     0.011 A 
HETATM   13 BR   UNL     1      43.746 -17.922   7.951  1.00  0.00    -0.051 Br
HETATM   14  C   UNL     1      42.771 -16.534   5.663  1.00  0.00     0.030 A 
BRANCH   9  15
HETATM   15  O   UNL     1      43.197 -13.200   4.238  1.00  0.00    -0.360 OA
HETATM   16  H   UNL     1      42.282 -13.205   3.886  1.00  0.00     0.217 HD
ENDBRANCH   9  15
ENDBRANCH   7   8
ENDBRANCH   3   7
BRANCH   1  17
HETATM   17  C   UNL     1      42.511 -18.898   1.972  1.00  0.00     0.127 C 
BRANCH  17  18
HETATM   18  N   UNL     1      43.487 -19.983   1.831  1.00  0.00    -0.376 N 
HETATM   19  H   UNL     1      44.100 -19.878   1.027  1.00  0.00     0.161 HD
BRANCH  18  20
HETATM   20  C   UNL     1      44.008 -20.629   2.940  1.00  0.00     0.100 A 
HETATM   21  C   UNL     1      44.298 -19.993   4.155  1.00  0.00     0.048 A 
HETATM   22  C   UNL     1      44.828 -20.718   5.222  1.00  0.00     0.005 A 
HETATM   23  C   UNL     1      45.052 -22.080   5.080  1.00  0.00     0.017 A 
HETATM   24  C   UNL     1      44.724 -22.685   3.879  1.00  0.00     0.089 A 
HETATM   25  N   UNL     1      44.215 -21.957   2.874  1.00  0.00    -0.353 N 
HETATM   26  H   UNL     1      43.974 -22.440   2.013  1.00  0.00     0.166 HD
ENDBRANCH  18  20
ENDBRANCH  17  18
ENDBRANCH   1  17
TORSDOF 6
ENDMDL
MODEL 8
REMARK VINA RESULT:      -6.8      3.655      6.864
REMARK  6 active torsions:
REMARK  status: ('A' for Active; 'I' for Inactive)
REMARK    1  A    between atoms: C_3  and  N_4 
REMARK    2  A    between atoms: N_4  and  C_5 
REMARK    3  A    between atoms: C_5  and  C_6 
REMARK    4  A    between atoms: N_8  and  C_10 
REMARK    5  A    between atoms: C_10  and  C_11 
REMARK    6  A    between atoms: C_12  and  O_13 
ROOT
HETATM    1  C   UNL     1      40.009 -15.018   2.298  1.00  0.00     0.031 C 
HETATM    2  C   UNL     1      40.606 -16.426   2.239  1.00  0.00     0.241 C 
HETATM    3  N   UNL     1      41.609 -16.478   3.363  1.00  0.00    -0.067 N 
HETATM    4  H   UNL     1      41.415 -17.328   3.929  1.00  0.00     0.280 HD
HETATM    5  C   UNL     1      41.381 -15.289   4.263  1.00  0.00     0.235 C 
HETATM    6  C   UNL     1      40.052 -14.720   3.796  1.00  0.00     0.035 C 
ENDROOT
BRANCH   3   7
HETATM    7  C   UNL     1      43.039 -16.694   2.933  1.00  0.00     0.276 C 
BRANCH   7   8
HETATM    8  C   UNL     1      43.604 -18.010   3.383  1.00  0.00     0.002 A 
HETATM    9  C   UNL     1      44.078 -18.177   4.691  1.00  0.00     0.073 A 
HETATM   10  C   UNL     1      44.585 -19.398   5.127  1.00  0.00     0.038 A 
HETATM   11  C   UNL     1      44.629 -20.479   4.244  1.00  0.00     0.022 A 
HETATM   12  C   UNL     1      44.163 -20.328   2.940  1.00  0.00     0.011 A 
HETATM   13 BR   UNL     1      44.236 -21.783   1.738  1.00  0.00    -0.051 Br
HETATM   14  C   UNL     1      43.647 -19.105   2.508  1.00  0.00     0.030 A 
BRANCH   9  15
HETATM   15  O   UNL     1      44.056 -17.092   5.526  1.00  0.00    -0.360 OA
HETATM   16  H   UNL     1      43.355 -16.487   5.207  1.00  0.00     0.217 HD
ENDBRANCH   9  15
ENDBRANCH   7   8
ENDBRANCH   3   7
BRANCH   1  17
HETATM   17  C   UNL     1      40.806 -14.016   1.442  1.00  0.00     0.127 C 
BRANCH  17  18
HETATM   18  N   UNL     1      41.483 -14.700   0.336  1.00  0.00    -0.376 N 
HETATM   19  H   UNL     1      41.758 -15.654   0.553  1.00  0.00     0.161 HD
BRANCH  18  20
HETATM   20  C   UNL     1      41.164 -14.421  -0.983  1.00  0.00     0.100 A 
HETATM   21  C   UNL     1      41.917 -13.579  -1.813  1.00  0.00     0.048 A 
HETATM   22  C   UNL     1      41.520 -13.348  -3.130  1.00  0.00     0.005 A 
HETATM   23  C   UNL     1      40.382 -13.971  -3.621  1.00  0.00     0.017 A 
HETATM   24  C   UNL     1      39.679 -14.824  -2.788  1.00  0.00     0.089 A 
HETATM   25  N   UNL     1      40.090 -15.024  -1.526  1.00  0.00    -0.353 N 
HETATM   26  H   UNL     1      39.556 -15.668  -0.949  1.00  0.00     0.166 HD
ENDBRANCH  18  20
ENDBRANCH  17  18
ENDBRANCH   1  17
TORSDOF 6
ENDMDL
MODEL 9
REMARK VINA RESULT:      -6.7      3.502      4.766
REMARK  6 active torsions:
REMARK  status: ('A' for Active; 'I' for Inactive)
REMARK    1  A    between atoms: C_3  and  N_4 
REMARK    2  A    between atoms: N_4  and  C_5 
REMARK    3  A    between atoms: C_5  and  C_6 
REMARK    4  A    between atoms: N_8  and  C_10 
REMARK    5  A    between atoms: C_10  and  C_11 
REMARK    6  A    between atoms: C_12  and  O_13 
ROOT
HETATM    1  C   UNL     1      42.302 -16.057   3.007  1.00  0.00     0.031 C 
HETATM    2  C   UNL     1      41.918 -14.956   2.017  1.00  0.00     0.241 C 
HETATM    3  N   UNL     1      40.978 -15.613   1.038  1.00  0.00    -0.067 N 
HETATM    4  H   UNL     1      40.125 -15.025   0.966  1.00  0.00     0.280 HD
HETATM    5  C   UNL     1      40.550 -16.944   1.606  1.00  0.00     0.235 C 
HETATM    6  C   UNL     1      41.030 -16.903   3.048  1.00  0.00     0.035 C 
ENDROOT
BRANCH   3   7
HETATM    7  C   UNL     1      41.468 -15.651  -0.388  1.00  0.00     0.276 C 
BRANCH   7   8
HETATM    8  C   UNL     1      40.655 -14.798  -1.320  1.00  0.00     0.002 A 
HETATM    9  C   UNL     1      40.886 -14.823  -2.701  1.00  0.00     0.073 A 
HETATM   10  C   UNL     1      40.125 -14.053  -3.577  1.00  0.00     0.038 A 
HETATM   11  C   UNL     1      39.114 -13.235  -3.070  1.00  0.00     0.022 A 
HETATM   12  C   UNL     1      38.873 -13.198  -1.699  1.00  0.00     0.011 A 
HETATM   13 BR   UNL     1      37.516 -12.079  -1.010  1.00  0.00    -0.051 Br
HETATM   14  C   UNL     1      39.631 -13.977  -0.824  1.00  0.00     0.030 A 
BRANCH   9  15
HETATM   15  O   UNL     1      41.907 -15.607  -3.168  1.00  0.00    -0.360 OA
HETATM   16  H   UNL     1      41.713 -16.532  -2.907  1.00  0.00     0.217 HD
ENDBRANCH   9  15
ENDBRANCH   7   8
ENDBRANCH   3   7
BRANCH   1  17
HETATM   17  C   UNL     1      43.551 -16.834   2.550  1.00  0.00     0.127 C 
BRANCH  17  18
HETATM   18  N   UNL     1      43.926 -17.847   3.542  1.00  0.00    -0.376 N 
HETATM   19  H   UNL     1      43.618 -17.628   4.485  1.00  0.00     0.161 HD
BRANCH  18  20
HETATM   20  C   UNL     1      44.011 -19.188   3.202  1.00  0.00     0.100 A 
HETATM   21  C   UNL     1      43.497 -19.732   2.017  1.00  0.00     0.048 A 
HETATM   22  C   UNL     1      43.621 -21.096   1.755  1.00  0.00     0.005 A 
HETATM   23  C   UNL     1      44.271 -21.912   2.669  1.00  0.00     0.017 A 
HETATM   24  C   UNL     1      44.797 -21.340   3.815  1.00  0.00     0.089 A 
HETATM   25  N   UNL     1      44.661 -20.023   4.034  1.00  0.00    -0.353 N 
HETATM   26  H   UNL     1      45.072 -19.637   4.879  1.00  0.00     0.166 HD
ENDBRANCH  18  20
ENDBRANCH  17  18
ENDBRANCH   1  17
TORSDOF 6
ENDMDL
MODEL 10
REMARK VINA RESULT:      -6.7      3.348      6.377
REMARK  6 active torsions:
REMARK  status: ('A' for Active; 'I' for Inactive)
REMARK    1  A    between atoms: C_3  and  N_4 
REMARK    2  A    between atoms: N_4  and  C_5 
REMARK    3  A    between atoms: C_5  and  C_6 
REMARK    4  A    between atoms: N_8  and  C_10 
REMARK    5  A    between atoms: C_10  and  C_11 
REMARK    6  A    between atoms: C_12  and  O_13 
ROOT
HETATM    1  C   UNL     1      40.733 -15.532   4.070  1.00  0.00     0.031 C 
HETATM    2  C   UNL     1      41.293 -16.950   3.931  1.00  0.00     0.241 C 
HETATM    3  N   UNL     1      42.605 -16.933   4.672  1.00  0.00    -0.067 N 
HETATM    4  H   UNL     1      42.611 -17.734   5.334  1.00  0.00     0.280 HD
HETATM    5  C   UNL     1      42.668 -15.675   5.502  1.00  0.00     0.235 C 
HETATM    6  C   UNL     1      41.254 -15.122   5.447  1.00  0.00     0.035 C 
ENDROOT
BRANCH   3   7
HETATM    7  C   UNL     1      43.821 -17.204   3.822  1.00  0.00     0.276 C 
BRANCH   7   8
HETATM    8  C   UNL     1      43.934 -18.636   3.383  1.00  0.00     0.002 A 
HETATM    9  C   UNL     1      43.627 -19.010   2.069  1.00  0.00     0.073 A 
HETATM   10  C   UNL     1      43.749 -20.330   1.644  1.00  0.00     0.038 A 
HETATM   11  C   UNL     1      44.180 -21.305   2.547  1.00  0.00     0.022 A 
HETATM   12  C   UNL     1      44.486 -20.949   3.858  1.00  0.00     0.011 A 
HETATM   13 BR   UNL     1      45.054 -22.268   5.085  1.00  0.00    -0.051 Br
HETATM   14  C   UNL     1      44.372 -19.623   4.278  1.00  0.00     0.030 A 
BRANCH   9  15
HETATM   15  O   UNL     1      43.174 -18.041   1.214  1.00  0.00    -0.360 OA
HETATM   16  H   UNL     1      42.510 -17.507   1.697  1.00  0.00     0.217 HD
ENDBRANCH   9  15
ENDBRANCH   7   8
ENDBRANCH   3   7
BRANCH   1  17
HETATM   17  C   UNL     1      41.203 -14.612   2.928  1.00  0.00     0.127 C 
BRANCH  17  18
HETATM   18  N   UNL     1      41.585 -15.397   1.750  1.00  0.00    -0.376 N 
HETATM   19  H   UNL     1      41.800 -16.367   1.959  1.00  0.00     0.161 HD
BRANCH  18  20
HETATM   20  C   UNL     1      41.049 -15.125   0.501  1.00  0.00     0.100 A 
HETATM   21  C   UNL     1      40.046 -14.175   0.266  1.00  0.00     0.048 A 
HETATM   22  C   UNL     1      39.558 -13.969  -1.024  1.00  0.00     0.005 A 
HETATM   23  C   UNL     1      40.083 -14.699  -2.079  1.00  0.00     0.017 A 
HETATM   24  C   UNL     1      41.096 -15.606  -1.821  1.00  0.00     0.089 A 
HETATM   25  N   UNL     1      41.543 -15.779  -0.567  1.00  0.00    -0.353 N 
HETATM   26  H   UNL     1      42.297 -16.444  -0.419  1.00  0.00     0.166 HD
ENDBRANCH  18  20
ENDBRANCH  17  18
ENDBRANCH   1  17
TORSDOF 6
ENDMDL
