MODEL 1
REMARK VINA RESULT:      -8.2      0.000      0.000
REMARK  7 active torsions:
REMARK  status: ('A' for Active; 'I' for Inactive)
REMARK    1  A    between atoms: C_4  and  C_5 
REMARK    2  A    between atoms: C_5  and  O_6 
REMARK    3  A    between atoms: C_5  and  C_7 
REMARK    4  A    between atoms: C_7  and  N_8 
REMARK       I    between atoms: N_8  and  C_9 
REMARK    5  A    between atoms: N_8  and  C_20 
REMARK    6  A    between atoms: C_9  and  C_10 
REMARK    7  A    between atoms: C_14  and  C_15 
ROOT
HETATM    1  N   UNL     1      41.660 -16.057   3.418  1.00  0.00    -0.339 N 
HETATM    2  C   UNL     1      41.145 -14.842   2.905  1.00  0.00     0.274 C 
HETATM    3  O   UNL     1      41.106 -13.830   3.610  1.00  0.00    -0.266 OA
ENDROOT
BRANCH   1   4
HETATM    4  C   UNL     1      41.842 -17.276   2.593  1.00  0.00     0.163 C 
BRANCH   4   5
HETATM    5  C   UNL     1      43.301 -17.558   2.166  1.00  0.00     0.169 C 
BRANCH   5   6
HETATM    6  C   UNL     1      43.730 -18.951   2.586  1.00  0.00    -0.028 A 
HETATM    7  C   UNL     1      43.536 -20.039   1.721  1.00  0.00     0.010 A 
HETATM    8  C   UNL     1      43.952 -21.321   2.087  1.00  0.00     0.001 A 
HETATM    9  C   UNL     1      44.568 -21.531   3.319  1.00  0.00     0.000 A 
HETATM   10  C   UNL     1      44.766 -20.461   4.188  1.00  0.00     0.001 A 
HETATM   11  C   UNL     1      44.351 -19.180   3.824  1.00  0.00     0.010 A 
ENDBRANCH   5   6
BRANCH   5  12
HETATM   12  O   UNL     1      43.426 -17.483   0.741  1.00  0.00    -0.389 OA
HETATM   13  H   UNL     1      44.377 -17.563   0.553  1.00  0.00     0.210 HD
ENDBRANCH   5  12
ENDBRANCH   4   5
ENDBRANCH   1   4
BRANCH   1  14
HETATM   14  C   UNL     1      42.080 -16.042   4.842  1.00  0.00     0.087 C 
HETATM   15  C   UNL     1      43.551 -15.676   5.110  1.00  0.00     0.025 C 
HETATM   16  C   UNL     1      43.843 -15.591   6.608  1.00  0.00     0.002 C 
HETATM   17  C   UNL     1      43.468 -16.883   7.326  1.00  0.00     0.000 C 
HETATM   18  C   UNL     1      42.017 -17.271   7.062  1.00  0.00     0.002 C 
HETATM   19  C   UNL     1      41.711 -17.351   5.567  1.00  0.00     0.025 C 
ENDBRANCH   1  14
BRANCH   2  20
HETATM   20  C   UNL     1      40.690 -14.740   1.499  1.00  0.00     0.146 A 
HETATM   21  N   UNL     1      39.405 -14.756   1.091  1.00  0.00    -0.169 NA
HETATM   22  N   UNL     1      39.476 -14.642  -0.247  1.00  0.00    -0.281 N 
HETATM   23  H   UNL     1      38.614 -14.653  -0.782  1.00  0.00     0.189 HD
HETATM   24  C   UNL     1      40.746 -14.525  -0.719  1.00  0.00     0.034 A 
HETATM   25  C   UNL     1      41.559 -14.552   0.383  1.00  0.00     0.066 A 
BRANCH  24  26
HETATM   26  C   UNL     1      41.199 -14.398  -2.156  1.00  0.00     0.037 A 
HETATM   27  C   UNL     1      41.007 -15.582  -3.080  1.00  0.00     0.011 A 
HETATM   28  C   UNL     1      40.158 -14.370  -3.255  1.00  0.00     0.011 A 
ENDBRANCH  24  26
ENDBRANCH   2  20
TORSDOF 7
ENDMDL
MODEL 2
REMARK VINA RESULT:      -7.5      2.014      5.952
REMARK  7 active torsions:
REMARK  status: ('A' for Active; 'I' for Inactive)
REMARK    1  A    between atoms: C_4  and  C_5 
REMARK    2  A    between atoms: C_5  and  O_6 
REMARK    3  A    between atoms: C_5  and  C_7 
REMARK    4  A    between atoms: C_7  and  N_8 
REMARK       I    between atoms: N_8  and  C_9 
REMARK    5  A    between atoms: N_8  and  C_20 
REMARK    6  A    between atoms: C_9  and  C_10 
REMARK    7  A    between atoms: C_14  and  C_15 
ROOT
HETATM    1  N   UNL     1      40.878 -15.094   1.249  1.00  0.00    -0.339 N 
HETATM    2  C   UNL     1      41.447 -16.133   0.475  1.00  0.00     0.274 C 
HETATM    3  O   UNL     1      41.160 -16.257  -0.719  1.00  0.00    -0.266 OA
ENDROOT
BRANCH   1   4
HETATM    4  C   UNL     1      41.266 -14.819   2.653  1.00  0.00     0.163 C 
BRANCH   4   5
HETATM    5  C   UNL     1      40.611 -15.747   3.701  1.00  0.00     0.169 C 
BRANCH   5   6
HETATM    6  C   UNL     1      41.664 -16.511   4.483  1.00  0.00    -0.028 A 
HETATM    7  C   UNL     1      41.365 -17.771   5.023  1.00  0.00     0.010 A 
HETATM    8  C   UNL     1      42.335 -18.494   5.721  1.00  0.00     0.001 A 
HETATM    9  C   UNL     1      43.614 -17.967   5.887  1.00  0.00     0.000 A 
HETATM   10  C   UNL     1      43.925 -16.717   5.359  1.00  0.00     0.001 A 
HETATM   11  C   UNL     1      42.957 -15.994   4.660  1.00  0.00     0.010 A 
ENDBRANCH   5   6
BRANCH   5  12
HETATM   12  O   UNL     1      39.852 -14.980   4.642  1.00  0.00    -0.389 OA
HETATM   13  H   UNL     1      39.075 -14.657   4.157  1.00  0.00     0.210 HD
ENDBRANCH   5  12
ENDBRANCH   4   5
ENDBRANCH   1   4
BRANCH   1  14
HETATM   14  C   UNL     1      39.892 -14.226   0.556  1.00  0.00     0.087 C 
HETATM   15  C   UNL     1      40.285 -12.746   0.399  1.00  0.00     0.025 C 
HETATM   16  C   UNL     1      39.247 -11.974  -0.414  1.00  0.00     0.002 C 
HETATM   17  C   UNL     1      37.853 -12.101   0.191  1.00  0.00     0.000 C 
HETATM   18  C   UNL     1      37.449 -13.561   0.368  1.00  0.00     0.002 C 
HETATM   19  C   UNL     1      38.485 -14.346   1.174  1.00  0.00     0.025 C 
ENDBRANCH   1  14
BRANCH   2  20
HETATM   20  C   UNL     1      42.440 -17.065   1.060  1.00  0.00     0.146 A 
HETATM   21  N   UNL     1      43.754 -16.808   1.217  1.00  0.00    -0.169 NA
HETATM   22  N   UNL     1      44.250 -17.926   1.776  1.00  0.00    -0.281 N 
HETATM   23  H   UNL     1      45.245 -17.973   1.970  1.00  0.00     0.189 HD
HETATM   24  C   UNL     1      43.311 -18.882   2.012  1.00  0.00     0.034 A 
HETATM   25  C   UNL     1      42.121 -18.350   1.592  1.00  0.00     0.066 A 
BRANCH  24  26
HETATM   26  C   UNL     1      43.510 -20.257   2.607  1.00  0.00     0.037 A 
HETATM   27  C   UNL     1      44.028 -21.362   1.711  1.00  0.00     0.011 A 
HETATM   28  C   UNL     1      44.917 -20.794   2.763  1.00  0.00     0.011 A 
ENDBRANCH  24  26
ENDBRANCH   2  20
TORSDOF 7
ENDMDL
MODEL 3
REMARK VINA RESULT:      -7.4      2.726      6.300
REMARK  7 active torsions:
REMARK  status: ('A' for Active; 'I' for Inactive)
REMARK    1  A    between atoms: C_4  and  C_5 
REMARK    2  A    between atoms: C_5  and  O_6 
REMARK    3  A    between atoms: C_5  and  C_7 
REMARK    4  A    between atoms: C_7  and  N_8 
REMARK       I    between atoms: N_8  and  C_9 
REMARK    5  A    between atoms: N_8  and  C_20 
REMARK    6  A    between atoms: C_9  and  C_10 
REMARK    7  A    between atoms: C_14  and  C_15 
ROOT
HETATM    1  N   UNL     1      42.870 -17.513   3.812  1.00  0.00    -0.339 N 
HETATM    2  C   UNL     1      42.298 -17.206   5.070  1.00  0.00     0.274 C 
HETATM    3  O   UNL     1      42.155 -18.084   5.925  1.00  0.00    -0.266 OA
ENDROOT
BRANCH   1   4
HETATM    4  C   UNL     1      43.175 -16.488   2.785  1.00  0.00     0.163 C 
BRANCH   4   5
HETATM    5  C   UNL     1      42.065 -16.274   1.731  1.00  0.00     0.169 C 
BRANCH   5   6
HETATM    6  C   UNL     1      41.371 -14.940   1.936  1.00  0.00    -0.028 A 
HETATM    7  C   UNL     1      42.125 -13.789   2.210  1.00  0.00     0.010 A 
HETATM    8  C   UNL     1      41.499 -12.551   2.374  1.00  0.00     0.001 A 
HETATM    9  C   UNL     1      40.114 -12.449   2.264  1.00  0.00     0.000 A 
HETATM   10  C   UNL     1      39.352 -13.583   1.994  1.00  0.00     0.001 A 
HETATM   11  C   UNL     1      39.977 -14.820   1.829  1.00  0.00     0.010 A 
ENDBRANCH   5   6
BRANCH   5  12
HETATM   12  O   UNL     1      42.623 -16.267   0.412  1.00  0.00    -0.389 OA
HETATM   13  H   UNL     1      42.008 -16.779  -0.139  1.00  0.00     0.210 HD
ENDBRANCH   5  12
ENDBRANCH   4   5
ENDBRANCH   1   4
BRANCH   1  14
HETATM   14  C   UNL     1      43.219 -18.938   3.580  1.00  0.00     0.087 C 
HETATM   15  C   UNL     1      44.545 -19.419   4.197  1.00  0.00     0.025 C 
HETATM   16  C   UNL     1      44.750 -20.918   3.984  1.00  0.00     0.002 C 
HETATM   17  C   UNL     1      44.674 -21.290   2.507  1.00  0.00     0.000 C 
HETATM   18  C   UNL     1      43.373 -20.810   1.873  1.00  0.00     0.002 C 
HETATM   19  C   UNL     1      43.153 -19.312   2.087  1.00  0.00     0.025 C 
ENDBRANCH   1  14
BRANCH   2  20
HETATM   20  C   UNL     1      41.906 -15.819   5.411  1.00  0.00     0.146 A 
HETATM   21  N   UNL     1      42.752 -14.837   5.784  1.00  0.00    -0.169 NA
HETATM   22  N   UNL     1      41.959 -13.772   5.993  1.00  0.00    -0.281 N 
HETATM   23  H   UNL     1      42.382 -12.905   6.308  1.00  0.00     0.189 HD
HETATM   24  C   UNL     1      40.643 -14.013   5.746  1.00  0.00     0.034 A 
HETATM   25  C   UNL     1      40.572 -15.318   5.336  1.00  0.00     0.066 A 
BRANCH  24  26
HETATM   26  C   UNL     1      39.478 -13.061   5.891  1.00  0.00     0.037 A 
HETATM   27  C   UNL     1      39.387 -12.217   7.145  1.00  0.00     0.011 A 
HETATM   28  C   UNL     1      39.736 -11.570   5.849  1.00  0.00     0.011 A 
ENDBRANCH  24  26
ENDBRANCH   2  20
TORSDOF 7
ENDMDL
MODEL 4
REMARK VINA RESULT:      -7.4      2.226      6.006
REMARK  7 active torsions:
REMARK  status: ('A' for Active; 'I' for Inactive)
REMARK    1  A    between atoms: C_4  and  C_5 
REMARK    2  A    between atoms: C_5  and  O_6 
REMARK    3  A    between atoms: C_5  and  C_7 
REMARK    4  A    between atoms: C_7  and  N_8 
REMARK       I    between atoms: N_8  and  C_9 
REMARK    5  A    between atoms: N_8  and  C_20 
REMARK    6  A    between atoms: C_9  and  C_10 
REMARK    7  A    between atoms: C_14  and  C_15 
ROOT
HETATM    1  N   UNL     1      39.881 -15.029   2.607  1.00  0.00    -0.339 N 
HETATM    2  C   UNL     1      40.417 -14.929   3.913  1.00  0.00     0.274 C 
HETATM    3  O   UNL     1      40.181 -13.940   4.614  1.00  0.00    -0.266 OA
ENDROOT
BRANCH   1   4
HETATM    4  C   UNL     1      40.029 -16.235   1.757  1.00  0.00     0.163 C 
BRANCH   4   5
HETATM    5  C   UNL     1      41.266 -16.228   0.830  1.00  0.00     0.169 C 
BRANCH   5   6
HETATM    6  C   UNL     1      42.285 -17.259   1.278  1.00  0.00    -0.028 A 
HETATM    7  C   UNL     1      43.653 -16.947   1.274  1.00  0.00     0.010 A 
HETATM    8  C   UNL     1      44.597 -17.878   1.710  1.00  0.00     0.001 A 
HETATM    9  C   UNL     1      44.187 -19.133   2.156  1.00  0.00     0.000 A 
HETATM   10  C   UNL     1      42.833 -19.458   2.165  1.00  0.00     0.001 A 
HETATM   11  C   UNL     1      41.888 -18.528   1.730  1.00  0.00     0.010 A 
ENDBRANCH   5   6
BRANCH   5  12
HETATM   12  O   UNL     1      40.887 -16.557  -0.511  1.00  0.00    -0.389 OA
HETATM   13  H   UNL     1      40.047 -17.042  -0.439  1.00  0.00     0.210 HD
ENDBRANCH   5  12
ENDBRANCH   4   5
ENDBRANCH   1   4
BRANCH   1  14
HETATM   14  C   UNL     1      39.088 -13.866   2.132  1.00  0.00     0.087 C 
HETATM   15  C   UNL     1      37.988 -14.173   1.100  1.00  0.00     0.025 C 
HETATM   16  C   UNL     1      37.173 -12.924   0.763  1.00  0.00     0.002 C 
HETATM   17  C   UNL     1      38.066 -11.787   0.278  1.00  0.00     0.000 C 
HETATM   18  C   UNL     1      39.173 -11.476   1.281  1.00  0.00     0.002 C 
HETATM   19  C   UNL     1      39.989 -12.720   1.632  1.00  0.00     0.025 C 
ENDBRANCH   1  14
BRANCH   2  20
HETATM   20  C   UNL     1      41.228 -16.025   4.491  1.00  0.00     0.146 A 
HETATM   21  N   UNL     1      40.746 -17.204   4.934  1.00  0.00    -0.169 NA
HETATM   22  N   UNL     1      41.831 -17.869   5.367  1.00  0.00    -0.281 N 
HETATM   23  H   UNL     1      41.706 -18.791   5.772  1.00  0.00     0.189 HD
HETATM   24  C   UNL     1      42.995 -17.185   5.200  1.00  0.00     0.034 A 
HETATM   25  C   UNL     1      42.650 -15.999   4.606  1.00  0.00     0.066 A 
BRANCH  24  26
HETATM   26  C   UNL     1      44.392 -17.614   5.584  1.00  0.00     0.037 A 
HETATM   27  C   UNL     1      44.630 -18.117   6.992  1.00  0.00     0.011 A 
HETATM   28  C   UNL     1      44.663 -19.079   5.855  1.00  0.00     0.011 A 
ENDBRANCH  24  26
ENDBRANCH   2  20
TORSDOF 7
ENDMDL
MODEL 5
REMARK VINA RESULT:      -7.4      2.130      5.196
REMARK  7 active torsions:
REMARK  status: ('A' for Active; 'I' for Inactive)
REMARK    1  A    between atoms: C_4  and  C_5 
REMARK    2  A    between atoms: C_5  and  O_6 
REMARK    3  A    between atoms: C_5  and  C_7 
REMARK    4  A    between atoms: C_7  and  N_8 
REMARK       I    between atoms: N_8  and  C_9 
REMARK    5  A    between atoms: N_8  and  C_20 
REMARK    6  A    between atoms: C_9  and  C_10 
REMARK    7  A    between atoms: C_14  and  C_15 
ROOT
HETATM    1  N   UNL     1      43.023 -18.164   2.843  1.00  0.00    -0.339 N 
HETATM    2  C   UNL     1      43.142 -17.351   1.690  1.00  0.00     0.274 C 
HETATM    3  O   UNL     1      43.864 -17.696   0.751  1.00  0.00    -0.266 OA
ENDROOT
BRANCH   1   4
HETATM    4  C   UNL     1      42.087 -17.867   3.954  1.00  0.00     0.163 C 
BRANCH   4   5
HETATM    5  C   UNL     1      42.671 -16.974   5.072  1.00  0.00     0.169 C 
BRANCH   5   6
HETATM    6  C   UNL     1      41.958 -15.635   5.125  1.00  0.00    -0.028 A 
HETATM    7  C   UNL     1      40.604 -15.543   4.769  1.00  0.00     0.010 A 
HETATM    8  C   UNL     1      39.931 -14.321   4.840  1.00  0.00     0.001 A 
HETATM    9  C   UNL     1      40.602 -13.178   5.268  1.00  0.00     0.000 A 
HETATM   10  C   UNL     1      41.947 -13.253   5.623  1.00  0.00     0.001 A 
HETATM   11  C   UNL     1      42.620 -14.473   5.553  1.00  0.00     0.010 A 
ENDBRANCH   5   6
BRANCH   5  12
HETATM   12  O   UNL     1      42.501 -17.598   6.351  1.00  0.00    -0.389 OA
HETATM   13  H   UNL     1      41.693 -18.132   6.280  1.00  0.00     0.210 HD
ENDBRANCH   5  12
ENDBRANCH   4   5
ENDBRANCH   1   4
BRANCH   1  14
HETATM   14  C   UNL     1      43.852 -19.395   2.865  1.00  0.00     0.087 C 
HETATM   15  C   UNL     1      43.344 -20.570   2.011  1.00  0.00     0.025 C 
HETATM   16  C   UNL     1      44.325 -21.742   2.028  1.00  0.00     0.002 C 
HETATM   17  C   UNL     1      44.625 -22.199   3.451  1.00  0.00     0.000 C 
HETATM   18  C   UNL     1      45.118 -21.046   4.319  1.00  0.00     0.002 C 
HETATM   19  C   UNL     1      44.148 -19.865   4.303  1.00  0.00     0.025 C 
ENDBRANCH   1  14
BRANCH   2  20
HETATM   20  C   UNL     1      42.366 -16.095   1.559  1.00  0.00     0.146 A 
HETATM   21  N   UNL     1      42.785 -14.874   1.950  1.00  0.00    -0.169 NA
HETATM   22  N   UNL     1      41.765 -14.055   1.640  1.00  0.00    -0.281 N 
HETATM   23  H   UNL     1      41.847 -13.069   1.868  1.00  0.00     0.189 HD
HETATM   24  C   UNL     1      40.718 -14.686   1.043  1.00  0.00     0.034 A 
HETATM   25  C   UNL     1      41.083 -16.003   0.943  1.00  0.00     0.066 A 
BRANCH  24  26
HETATM   26  C   UNL     1      39.410 -14.087   0.580  1.00  0.00     0.037 A 
HETATM   27  C   UNL     1      38.150 -14.427   1.348  1.00  0.00     0.011 A 
HETATM   28  C   UNL     1      38.725 -13.056   1.451  1.00  0.00     0.011 A 
ENDBRANCH  24  26
ENDBRANCH   2  20
TORSDOF 7
ENDMDL
MODEL 6
REMARK VINA RESULT:      -7.3      1.913      6.287
REMARK  7 active torsions:
REMARK  status: ('A' for Active; 'I' for Inactive)
REMARK    1  A    between atoms: C_4  and  C_5 
REMARK    2  A    between atoms: C_5  and  O_6 
REMARK    3  A    between atoms: C_5  and  C_7 
REMARK    4  A    between atoms: C_7  and  N_8 
REMARK       I    between atoms: N_8  and  C_9 
REMARK    5  A    between atoms: N_8  and  C_20 
REMARK    6  A    between atoms: C_9  and  C_10 
REMARK    7  A    between atoms: C_14  and  C_15 
ROOT
HETATM    1  N   UNL     1      40.320 -14.309   1.627  1.00  0.00    -0.339 N 
HETATM    2  C   UNL     1      40.992 -13.372   2.449  1.00  0.00     0.274 C 
HETATM    3  O   UNL     1      41.097 -12.193   2.100  1.00  0.00    -0.266 OA
ENDROOT
BRANCH   1   4
HETATM    4  C   UNL     1      40.058 -15.710   2.036  1.00  0.00     0.163 C 
BRANCH   4   5
HETATM    5  C   UNL     1      41.132 -16.727   1.588  1.00  0.00     0.169 C 
BRANCH   5   6
HETATM    6  C   UNL     1      41.865 -17.304   2.785  1.00  0.00    -0.028 A 
HETATM    7  C   UNL     1      43.217 -17.664   2.677  1.00  0.00     0.010 A 
HETATM    8  C   UNL     1      43.909 -18.170   3.779  1.00  0.00     0.001 A 
HETATM    9  C   UNL     1      43.259 -18.322   5.003  1.00  0.00     0.000 A 
HETATM   10  C   UNL     1      41.917 -17.971   5.125  1.00  0.00     0.001 A 
HETATM   11  C   UNL     1      41.225 -17.464   4.024  1.00  0.00     0.010 A 
ENDBRANCH   5   6
BRANCH   5  12
HETATM   12  O   UNL     1      40.524 -17.821   0.891  1.00  0.00    -0.389 OA
HETATM   13  H   UNL     1      39.597 -17.838   1.181  1.00  0.00     0.210 HD
ENDBRANCH   5  12
ENDBRANCH   4   5
ENDBRANCH   1   4
BRANCH   1  14
HETATM   14  C   UNL     1      39.819 -13.798   0.326  1.00  0.00     0.087 C 
HETATM   15  C   UNL     1      38.304 -13.925   0.087  1.00  0.00     0.025 C 
HETATM   16  C   UNL     1      37.889 -13.277  -1.234  1.00  0.00     0.002 C 
HETATM   17  C   UNL     1      38.671 -13.851  -2.410  1.00  0.00     0.000 C 
HETATM   18  C   UNL     1      40.176 -13.747  -2.187  1.00  0.00     0.002 C 
HETATM   19  C   UNL     1      40.602 -14.385  -0.865  1.00  0.00     0.025 C 
ENDBRANCH   1  14
BRANCH   2  20
HETATM   20  C   UNL     1      41.540 -13.769   3.767  1.00  0.00     0.146 A 
HETATM   21  N   UNL     1      40.829 -13.872   4.909  1.00  0.00    -0.169 NA
HETATM   22  N   UNL     1      41.730 -14.251   5.832  1.00  0.00    -0.281 N 
HETATM   23  H   UNL     1      41.422 -14.373   6.791  1.00  0.00     0.189 HD
HETATM   24  C   UNL     1      42.984 -14.423   5.334  1.00  0.00     0.034 A 
HETATM   25  C   UNL     1      42.895 -14.152   3.993  1.00  0.00     0.066 A 
BRANCH  24  26
HETATM   26  C   UNL     1      44.236 -14.823   6.079  1.00  0.00     0.037 A 
HETATM   27  C   UNL     1      44.567 -14.106   7.370  1.00  0.00     0.011 A 
HETATM   28  C   UNL     1      44.105 -15.522   7.415  1.00  0.00     0.011 A 
ENDBRANCH  24  26
ENDBRANCH   2  20
TORSDOF 7
ENDMDL
MODEL 7
REMARK VINA RESULT:      -7.2      2.168      5.015
REMARK  7 active torsions:
REMARK  status: ('A' for Active; 'I' for Inactive)
REMARK    1  A    between atoms: C_4  and  C_5 
REMARK    2  A    between atoms: C_5  and  O_6 
REMARK    3  A    between atoms: C_5  and  C_7 
REMARK    4  A    between atoms: C_7  and  N_8 
REMARK       I    between atoms: N_8  and  C_9 
REMARK    5  A    between atoms: N_8  and  C_20 
REMARK    6  A    between atoms: C_9  and  C_10 
REMARK    7  A    between atoms: C_14  and  C_15 
ROOT
HETATM    1  N   UNL     1      42.147 -16.508   3.169  1.00  0.00    -0.339 N 
HETATM    2  C   UNL     1      42.834 -16.361   1.940  1.00  0.00     0.274 C 
HETATM    3  O   UNL     1      44.017 -16.699   1.838  1.00  0.00    -0.266 OA
ENDROOT
BRANCH   1   4
HETATM    4  C   UNL     1      40.699 -16.231   3.330  1.00  0.00     0.163 C 
BRANCH   4   5
HETATM    5  C   UNL     1      40.360 -14.790   3.773  1.00  0.00     0.169 C 
BRANCH   5   6
HETATM    6  C   UNL     1      39.416 -14.127   2.787  1.00  0.00    -0.028 A 
HETATM    7  C   UNL     1      38.731 -14.900   1.837  1.00  0.00     0.010 A 
HETATM    8  C   UNL     1      37.840 -14.303   0.943  1.00  0.00     0.001 A 
HETATM    9  C   UNL     1      37.621 -12.928   0.987  1.00  0.00     0.000 A 
HETATM   10  C   UNL     1      38.295 -12.147   1.923  1.00  0.00     0.001 A 
HETATM   11  C   UNL     1      39.185 -12.742   2.818  1.00  0.00     0.010 A 
ENDBRANCH   5   6
BRANCH   5  12
HETATM   12  O   UNL     1      39.707 -14.800   5.048  1.00  0.00    -0.389 OA
HETATM   13  H   UNL     1      38.767 -14.634   4.866  1.00  0.00     0.210 HD
ENDBRANCH   5  12
ENDBRANCH   4   5
ENDBRANCH   1   4
BRANCH   1  14
HETATM   14  C   UNL     1      42.945 -17.027   4.309  1.00  0.00     0.087 C 
HETATM   15  C   UNL     1      42.410 -18.301   4.987  1.00  0.00     0.025 C 
HETATM   16  C   UNL     1      43.361 -18.799   6.074  1.00  0.00     0.002 C 
HETATM   17  C   UNL     1      43.646 -17.715   7.108  1.00  0.00     0.000 C 
HETATM   18  C   UNL     1      44.165 -16.439   6.456  1.00  0.00     0.002 C 
HETATM   19  C   UNL     1      43.225 -15.936   5.361  1.00  0.00     0.025 C 
ENDBRANCH   1  14
BRANCH   2  20
HETATM   20  C   UNL     1      42.141 -15.848   0.735  1.00  0.00     0.146 A 
HETATM   21  N   UNL     1      41.399 -16.588  -0.113  1.00  0.00    -0.169 NA
HETATM   22  N   UNL     1      40.980 -15.713  -1.043  1.00  0.00    -0.281 N 
HETATM   23  H   UNL     1      40.412 -16.055  -1.812  1.00  0.00     0.189 HD
HETATM   24  C   UNL     1      41.394 -14.436  -0.820  1.00  0.00     0.034 A 
HETATM   25  C   UNL     1      42.122 -14.477   0.341  1.00  0.00     0.066 A 
BRANCH  24  26
HETATM   26  C   UNL     1      41.129 -13.209  -1.661  1.00  0.00     0.037 A 
HETATM   27  C   UNL     1      39.700 -12.731  -1.808  1.00  0.00     0.011 A 
HETATM   28  C   UNL     1      40.657 -11.941  -0.982  1.00  0.00     0.011 A 
ENDBRANCH  24  26
ENDBRANCH   2  20
TORSDOF 7
ENDMDL
MODEL 8
REMARK VINA RESULT:      -7.1      3.525      7.154
REMARK  7 active torsions:
REMARK  status: ('A' for Active; 'I' for Inactive)
REMARK    1  A    between atoms: C_4  and  C_5 
REMARK    2  A    between atoms: C_5  and  O_6 
REMARK    3  A    between atoms: C_5  and  C_7 
REMARK    4  A    between atoms: C_7  and  N_8 
REMARK       I    between atoms: N_8  and  C_9 
REMARK    5  A    between atoms: N_8  and  C_20 
REMARK    6  A    between atoms: C_9  and  C_10 
REMARK    7  A    between atoms: C_14  and  C_15 
ROOT
HETATM    1  N   UNL     1      43.613 -18.633   4.452  1.00  0.00    -0.339 N 
HETATM    2  C   UNL     1      43.863 -18.580   5.844  1.00  0.00     0.274 C 
HETATM    3  O   UNL     1      44.175 -19.600   6.465  1.00  0.00    -0.266 OA
ENDROOT
BRANCH   1   4
HETATM    4  C   UNL     1      43.347 -17.430   3.627  1.00  0.00     0.163 C 
BRANCH   4   5
HETATM    5  C   UNL     1      41.858 -17.028   3.526  1.00  0.00     0.169 C 
BRANCH   5   6
HETATM    6  C   UNL     1      41.611 -15.688   4.192  1.00  0.00    -0.028 A 
HETATM    7  C   UNL     1      42.215 -14.527   3.685  1.00  0.00     0.010 A 
HETATM    8  C   UNL     1      41.973 -13.284   4.274  1.00  0.00     0.001 A 
HETATM    9  C   UNL     1      41.124 -13.185   5.374  1.00  0.00     0.000 A 
HETATM   10  C   UNL     1      40.519 -14.329   5.889  1.00  0.00     0.001 A 
HETATM   11  C   UNL     1      40.759 -15.571   5.302  1.00  0.00     0.010 A 
ENDBRANCH   5   6
BRANCH   5  12
HETATM   12  O   UNL     1      41.467 -16.902   2.153  1.00  0.00    -0.389 OA
HETATM   13  H   UNL     1      40.959 -16.076   2.097  1.00  0.00     0.210 HD
ENDBRANCH   5  12
ENDBRANCH   4   5
ENDBRANCH   1   4
BRANCH   1  14
HETATM   14  C   UNL     1      43.690 -19.976   3.823  1.00  0.00     0.087 C 
HETATM   15  C   UNL     1      44.964 -20.788   4.115  1.00  0.00     0.025 C 
HETATM   16  C   UNL     1      44.889 -22.187   3.503  1.00  0.00     0.002 C 
HETATM   17  C   UNL     1      44.617 -22.129   2.004  1.00  0.00     0.000 C 
HETATM   18  C   UNL     1      43.365 -21.316   1.692  1.00  0.00     0.002 C 
HETATM   19  C   UNL     1      43.425 -19.918   2.306  1.00  0.00     0.025 C 
ENDBRANCH   1  14
BRANCH   2  20
HETATM   20  C   UNL     1      43.810 -17.296   6.581  1.00  0.00     0.146 A 
HETATM   21  N   UNL     1      43.221 -17.107   7.780  1.00  0.00    -0.169 NA
HETATM   22  N   UNL     1      43.417 -15.804   8.048  1.00  0.00    -0.281 N 
HETATM   23  H   UNL     1      43.035 -15.422   8.907  1.00  0.00     0.189 HD
HETATM   24  C   UNL     1      44.128 -15.149   7.091  1.00  0.00     0.034 A 
HETATM   25  C   UNL     1      44.429 -16.088   6.140  1.00  0.00     0.066 A 
BRANCH  24  26
HETATM   26  C   UNL     1      44.516 -13.689   7.054  1.00  0.00     0.037 A 
HETATM   27  C   UNL     1      45.207 -13.095   8.263  1.00  0.00     0.011 A 
HETATM   28  C   UNL     1      45.983 -13.319   7.011  1.00  0.00     0.011 A 
ENDBRANCH  24  26
ENDBRANCH   2  20
TORSDOF 7
ENDMDL
MODEL 9
REMARK VINA RESULT:      -7.1      1.910      2.735
REMARK  7 active torsions:
REMARK  status: ('A' for Active; 'I' for Inactive)
REMARK    1  A    between atoms: C_4  and  C_5 
REMARK    2  A    between atoms: C_5  and  O_6 
REMARK    3  A    between atoms: C_5  and  C_7 
REMARK    4  A    between atoms: C_7  and  N_8 
REMARK       I    between atoms: N_8  and  C_9 
REMARK    5  A    between atoms: N_8  and  C_20 
REMARK    6  A    between atoms: C_9  and  C_10 
REMARK    7  A    between atoms: C_14  and  C_15 
ROOT
HETATM    1  N   UNL     1      41.148 -14.658   2.096  1.00  0.00    -0.339 N 
HETATM    2  C   UNL     1      41.130 -13.789   0.979  1.00  0.00     0.274 C 
HETATM    3  O   UNL     1      41.734 -12.712   1.012  1.00  0.00    -0.266 OA
ENDROOT
BRANCH   1   4
HETATM    4  C   UNL     1      40.543 -16.012   2.082  1.00  0.00     0.163 C 
BRANCH   4   5
HETATM    5  C   UNL     1      41.356 -17.078   1.315  1.00  0.00     0.169 C 
BRANCH   5   6
HETATM    6  C   UNL     1      42.273 -17.841   2.253  1.00  0.00    -0.028 A 
HETATM    7  C   UNL     1      42.042 -17.819   3.637  1.00  0.00     0.010 A 
HETATM    8  C   UNL     1      42.864 -18.538   4.507  1.00  0.00     0.001 A 
HETATM    9  C   UNL     1      43.924 -19.290   4.006  1.00  0.00     0.000 A 
HETATM   10  C   UNL     1      44.167 -19.321   2.635  1.00  0.00     0.001 A 
HETATM   11  C   UNL     1      43.346 -18.602   1.764  1.00  0.00     0.010 A 
ENDBRANCH   5   6
BRANCH   5  12
HETATM   12  O   UNL     1      40.479 -18.033   0.706  1.00  0.00    -0.389 OA
HETATM   13  H   UNL     1      39.699 -18.083   1.283  1.00  0.00     0.210 HD
ENDBRANCH   5  12
ENDBRANCH   4   5
ENDBRANCH   1   4
BRANCH   1  14
HETATM   14  C   UNL     1      41.873 -14.169   3.296  1.00  0.00     0.087 C 
HETATM   15  C   UNL     1      43.360 -14.553   3.393  1.00  0.00     0.025 C 
HETATM   16  C   UNL     1      44.026 -13.913   4.610  1.00  0.00     0.002 C 
HETATM   17  C   UNL     1      43.292 -14.265   5.900  1.00  0.00     0.000 C 
HETATM   18  C   UNL     1      41.813 -13.904   5.820  1.00  0.00     0.002 C 
HETATM   19  C   UNL     1      41.138 -14.533   4.601  1.00  0.00     0.025 C 
ENDBRANCH   1  14
BRANCH   2  20
HETATM   20  C   UNL     1      40.434 -14.168  -0.273  1.00  0.00     0.146 A 
HETATM   21  N   UNL     1      40.978 -14.872  -1.286  1.00  0.00    -0.169 NA
HETATM   22  N   UNL     1      39.991 -14.970  -2.194  1.00  0.00    -0.281 N 
HETATM   23  H   UNL     1      40.180 -15.450  -3.067  1.00  0.00     0.189 HD
HETATM   24  C   UNL     1      38.827 -14.385  -1.802  1.00  0.00     0.034 A 
HETATM   25  C   UNL     1      39.064 -13.882  -0.550  1.00  0.00     0.066 A 
BRANCH  24  26
HETATM   26  C   UNL     1      37.529 -14.287  -2.569  1.00  0.00     0.037 A 
HETATM   27  C   UNL     1      37.521 -13.532  -3.881  1.00  0.00     0.011 A 
HETATM   28  C   UNL     1      37.397 -15.017  -3.889  1.00  0.00     0.011 A 
ENDBRANCH  24  26
ENDBRANCH   2  20
TORSDOF 7
ENDMDL
MODEL 10
REMARK VINA RESULT:      -7.0      1.753      6.456
REMARK  7 active torsions:
REMARK  status: ('A' for Active; 'I' for Inactive)
REMARK    1  A    between atoms: C_4  and  C_5 
REMARK    2  A    between atoms: C_5  and  O_6 
REMARK    3  A    between atoms: C_5  and  C_7 
REMARK    4  A    between atoms: C_7  and  N_8 
REMARK       I    between atoms: N_8  and  C_9 
REMARK    5  A    between atoms: N_8  and  C_20 
REMARK    6  A    between atoms: C_9  and  C_10 
REMARK    7  A    between atoms: C_14  and  C_15 
ROOT
HETATM    1  N   UNL     1      41.607 -15.700   1.985  1.00  0.00    -0.339 N 
HETATM    2  C   UNL     1      41.326 -17.087   1.964  1.00  0.00     0.274 C 
HETATM    3  O   UNL     1      40.313 -17.514   1.404  1.00  0.00    -0.266 OA
ENDROOT
BRANCH   1   4
HETATM    4  C   UNL     1      42.860 -15.132   2.538  1.00  0.00     0.163 C 
BRANCH   4   5
HETATM    5  C   UNL     1      42.659 -14.083   3.655  1.00  0.00     0.169 C 
BRANCH   5   6
HETATM    6  C   UNL     1      43.130 -14.620   4.994  1.00  0.00    -0.028 A 
HETATM    7  C   UNL     1      44.252 -14.060   5.623  1.00  0.00     0.010 A 
HETATM    8  C   UNL     1      44.678 -14.528   6.868  1.00  0.00     0.001 A 
HETATM    9  C   UNL     1      43.988 -15.560   7.500  1.00  0.00     0.000 A 
HETATM   10  C   UNL     1      42.873 -16.128   6.887  1.00  0.00     0.001 A 
HETATM   11  C   UNL     1      42.446 -15.660   5.644  1.00  0.00     0.010 A 
ENDBRANCH   5   6
BRANCH   5  12
HETATM   12  O   UNL     1      43.421 -12.903   3.376  1.00  0.00    -0.389 OA
HETATM   13  H   UNL     1      43.827 -12.643   4.220  1.00  0.00     0.210 HD
ENDBRANCH   5  12
ENDBRANCH   4   5
ENDBRANCH   1   4
BRANCH   1  14
HETATM   14  C   UNL     1      40.592 -14.817   1.356  1.00  0.00     0.087 C 
HETATM   15  C   UNL     1      39.140 -15.012   1.826  1.00  0.00     0.025 C 
HETATM   16  C   UNL     1      38.203 -13.985   1.191  1.00  0.00     0.002 C 
HETATM   17  C   UNL     1      38.287 -14.016  -0.331  1.00  0.00     0.000 C 
HETATM   18  C   UNL     1      39.721 -13.837  -0.818  1.00  0.00     0.002 C 
HETATM   19  C   UNL     1      40.669 -14.854  -0.183  1.00  0.00     0.025 C 
ENDBRANCH   1  14
BRANCH   2  20
HETATM   20  C   UNL     1      42.263 -18.065   2.565  1.00  0.00     0.146 A 
HETATM   21  N   UNL     1      42.525 -18.187   3.882  1.00  0.00    -0.169 NA
HETATM   22  N   UNL     1      43.424 -19.184   3.955  1.00  0.00    -0.281 N 
HETATM   23  H   UNL     1      43.790 -19.443   4.865  1.00  0.00     0.189 HD
HETATM   24  C   UNL     1      43.734 -19.730   2.748  1.00  0.00     0.034 A 
HETATM   25  C   UNL     1      42.979 -19.053   1.826  1.00  0.00     0.066 A 
BRANCH  24  26
HETATM   26  C   UNL     1      44.709 -20.845   2.452  1.00  0.00     0.037 A 
HETATM   27  C   UNL     1      44.424 -22.221   3.016  1.00  0.00     0.011 A 
HETATM   28  C   UNL     1      44.275 -21.983   1.553  1.00  0.00     0.011 A 
ENDBRANCH  24  26
ENDBRANCH   2  20
TORSDOF 7
ENDMDL
