MODEL 1
REMARK VINA RESULT:      -8.0      0.000      0.000
REMARK  7 active torsions:
REMARK  status: ('A' for Active; 'I' for Inactive)
REMARK    1  A    between atoms: C_2  and  N_3 
REMARK    2  A    between atoms: C_4  and  C_5 
REMARK       I    between atoms: C_5  and  N_6 
REMARK    3  A    between atoms: N_6  and  C_7 
REMARK    4  A    between atoms: C_7  and  C_8 
REMARK    5  A    between atoms: C_19  and  N_20 
REMARK       I    between atoms: N_20  and  C_21 
REMARK    6  A    between atoms: C_21  and  C_22 
REMARK    7  A    between atoms: C_25  and  O_26 
ROOT
HETATM    1  N   UNL     1      43.406 -15.686   5.257  1.00  0.00    -0.342 N 
HETATM    2  C   UNL     1      43.788 -14.372   5.485  1.00  0.00     0.104 A 
HETATM    3  C   UNL     1      43.221 -13.624   4.463  1.00  0.00     0.049 A 
HETATM    4  C   UNL     1      42.524 -14.491   3.588  1.00  0.00    -0.005 A 
HETATM    5  C   UNL     1      42.672 -15.784   4.084  1.00  0.00     0.045 A 
HETATM    6  C   UNL     1      41.780 -14.279   2.409  1.00  0.00     0.043 A 
HETATM    7  C   UNL     1      41.203 -15.360   1.737  1.00  0.00     0.035 A 
HETATM    8  C   UNL     1      41.391 -16.651   2.239  1.00  0.00     0.032 A 
HETATM    9  C   UNL     1      42.118 -16.887   3.415  1.00  0.00     0.033 A 
ENDROOT
BRANCH   7  10
HETATM   10  N   UNL     1      40.440 -15.223   0.555  1.00  0.00    -0.323 N 
HETATM   11  C   UNL     1      40.856 -14.654  -0.636  1.00  0.00     0.256 C 
HETATM   12  O   UNL     1      41.926 -14.105  -0.860  1.00  0.00    -0.267 OA
HETATM   13  H   UNL     1      39.466 -15.487   0.624  1.00  0.00     0.169 HD
BRANCH  11  14
HETATM   14  C   UNL     1      39.852 -14.689  -1.732  1.00  0.00     0.032 A 
HETATM   15  C   UNL     1      40.121 -15.472  -2.858  1.00  0.00     0.020 A 
HETATM   16  C   UNL     1      39.183 -15.560  -3.887  1.00  0.00     0.038 A 
HETATM   17  C   UNL     1      37.960 -14.894  -3.788  1.00  0.00     0.068 A 
HETATM   18  C   UNL     1      37.692 -14.105  -2.665  1.00  0.00     0.038 A 
HETATM   19  C   UNL     1      38.635 -14.004  -1.635  1.00  0.00     0.020 A 
BRANCH  17  20
HETATM   20  O   UNL     1      37.117 -15.076  -4.849  1.00  0.00    -0.356 OA
HETATM   21  C   UNL     1      35.956 -14.254  -4.875  1.00  0.00     0.210 C 
ENDBRANCH  17  20
ENDBRANCH  11  14
ENDBRANCH   7  10
BRANCH   2  22
HETATM   22  C   UNL     1      44.603 -13.904   6.595  1.00  0.00     0.268 C 
HETATM   23  N   UNL     1      43.868 -13.516   7.697  1.00  0.00    -0.353 N 
HETATM   24  H   UNL     1      42.868 -13.435   7.585  1.00  0.00     0.162 HD
HETATM   25  O   UNL     1      45.828 -13.851   6.569  1.00  0.00    -0.266 OA
BRANCH  23  26
HETATM   26  C   UNL     1      44.482 -12.867   8.841  1.00  0.00     0.160 C 
BRANCH  26  27
HETATM   27  C   UNL     1      43.821 -11.514   9.225  1.00  0.00     0.073 C 
HETATM   28  O   UNL     1      44.811 -10.469   9.283  1.00  0.00    -0.379 OA
HETATM   29  C   UNL     1      45.249 -10.315  10.642  1.00  0.00     0.169 C 
HETATM   30  C   UNL     1      44.448 -11.275  11.499  1.00  0.00     0.029 C 
HETATM   31  C   UNL     1      43.243 -11.569  10.639  1.00  0.00     0.041 C 
HETATM   32  C   UNL     1      42.759 -11.109   8.204  1.00  0.00     0.047 C 
ENDBRANCH  26  27
ENDBRANCH  23  26
ENDBRANCH   2  22
BRANCH   1  33
HETATM   33  C   UNL     1      43.743 -16.819   6.109  1.00  0.00     0.125 C 
HETATM   34  C   UNL     1      42.736 -17.029   7.226  1.00  0.00     0.027 C 
ENDBRANCH   1  33
TORSDOF 7
ENDMDL
MODEL 2
REMARK VINA RESULT:      -8.0      2.069     10.862
REMARK  7 active torsions:
REMARK  status: ('A' for Active; 'I' for Inactive)
REMARK    1  A    between atoms: C_2  and  N_3 
REMARK    2  A    between atoms: C_4  and  C_5 
REMARK       I    between atoms: C_5  and  N_6 
REMARK    3  A    between atoms: N_6  and  C_7 
REMARK    4  A    between atoms: C_7  and  C_8 
REMARK    5  A    between atoms: C_19  and  N_20 
REMARK       I    between atoms: N_20  and  C_21 
REMARK    6  A    between atoms: C_21  and  C_22 
REMARK    7  A    between atoms: C_25  and  O_26 
ROOT
HETATM    1  N   UNL     1      42.475 -16.072   2.246  1.00  0.00    -0.342 N 
HETATM    2  C   UNL     1      42.082 -15.059   1.382  1.00  0.00     0.104 A 
HETATM    3  C   UNL     1      42.130 -13.885   2.121  1.00  0.00     0.049 A 
HETATM    4  C   UNL     1      42.513 -14.190   3.449  1.00  0.00    -0.005 A 
HETATM    5  C   UNL     1      42.700 -15.568   3.519  1.00  0.00     0.045 A 
HETATM    6  C   UNL     1      42.715 -13.401   4.601  1.00  0.00     0.043 A 
HETATM    7  C   UNL     1      43.090 -13.999   5.807  1.00  0.00     0.035 A 
HETATM    8  C   UNL     1      43.241 -15.388   5.858  1.00  0.00     0.032 A 
HETATM    9  C   UNL     1      43.057 -16.193   4.723  1.00  0.00     0.033 A 
ENDROOT
BRANCH   7  10
HETATM   10  N   UNL     1      43.314 -13.273   6.998  1.00  0.00    -0.323 N 
HETATM   11  C   UNL     1      44.539 -13.006   7.584  1.00  0.00     0.256 C 
HETATM   12  O   UNL     1      45.637 -13.407   7.222  1.00  0.00    -0.267 OA
HETATM   13  H   UNL     1      42.488 -13.004   7.515  1.00  0.00     0.169 HD
BRANCH  11  14
HETATM   14  C   UNL     1      44.477 -12.175   8.816  1.00  0.00     0.032 A 
HETATM   15  C   UNL     1      43.336 -11.397   9.037  1.00  0.00     0.020 A 
HETATM   16  C   UNL     1      43.227 -10.636  10.202  1.00  0.00     0.038 A 
HETATM   17  C   UNL     1      44.236 -10.670  11.166  1.00  0.00     0.068 A 
HETATM   18  C   UNL     1      45.379 -11.442  10.942  1.00  0.00     0.038 A 
HETATM   19  C   UNL     1      45.500 -12.197   9.770  1.00  0.00     0.020 A 
BRANCH  17  20
HETATM   20  O   UNL     1      44.002  -9.900  12.272  1.00  0.00    -0.356 OA
HETATM   21  C   UNL     1      42.901 -10.291  13.085  1.00  0.00     0.210 C 
ENDBRANCH  17  20
ENDBRANCH  11  14
ENDBRANCH   7  10
BRANCH   2  22
HETATM   22  C   UNL     1      41.722 -15.227  -0.016  1.00  0.00     0.268 C 
HETATM   23  N   UNL     1      42.015 -14.130  -0.800  1.00  0.00    -0.353 N 
HETATM   24  H   UNL     1      42.289 -13.280  -0.328  1.00  0.00     0.162 HD
HETATM   25  O   UNL     1      41.202 -16.241  -0.471  1.00  0.00    -0.266 OA
BRANCH  23  26
HETATM   26  C   UNL     1      41.583 -14.035  -2.183  1.00  0.00     0.160 C 
BRANCH  26  27
HETATM   27  C   UNL     1      40.820 -12.722  -2.514  1.00  0.00     0.073 C 
HETATM   28  O   UNL     1      40.874 -12.451  -3.927  1.00  0.00    -0.379 OA
HETATM   29  C   UNL     1      41.961 -11.551  -4.191  1.00  0.00     0.169 C 
HETATM   30  C   UNL     1      42.592 -11.186  -2.862  1.00  0.00     0.029 C 
HETATM   31  C   UNL     1      41.503 -11.516  -1.870  1.00  0.00     0.041 C 
HETATM   32  C   UNL     1      39.352 -12.817  -2.102  1.00  0.00     0.047 C 
ENDBRANCH  26  27
ENDBRANCH  23  26
ENDBRANCH   2  22
BRANCH   1  33
HETATM   33  C   UNL     1      42.611 -17.477   1.886  1.00  0.00     0.125 C 
HETATM   34  C   UNL     1      43.997 -17.815   1.367  1.00  0.00     0.027 C 
ENDBRANCH   1  33
TORSDOF 7
ENDMDL
MODEL 3
REMARK VINA RESULT:      -8.0      4.740      6.627
REMARK  7 active torsions:
REMARK  status: ('A' for Active; 'I' for Inactive)
REMARK    1  A    between atoms: C_2  and  N_3 
REMARK    2  A    between atoms: C_4  and  C_5 
REMARK       I    between atoms: C_5  and  N_6 
REMARK    3  A    between atoms: N_6  and  C_7 
REMARK    4  A    between atoms: C_7  and  C_8 
REMARK    5  A    between atoms: C_19  and  N_20 
REMARK       I    between atoms: N_20  and  C_21 
REMARK    6  A    between atoms: C_21  and  C_22 
REMARK    7  A    between atoms: C_25  and  O_26 
ROOT
HETATM    1  N   UNL     1      40.626 -11.829   5.837  1.00  0.00    -0.342 N 
HETATM    2  C   UNL     1      41.649 -11.417   6.679  1.00  0.00     0.104 A 
HETATM    3  C   UNL     1      42.590 -12.437   6.669  1.00  0.00     0.049 A 
HETATM    4  C   UNL     1      42.120 -13.490   5.849  1.00  0.00    -0.005 A 
HETATM    5  C   UNL     1      40.876 -13.106   5.356  1.00  0.00     0.045 A 
HETATM    6  C   UNL     1      42.655 -14.745   5.488  1.00  0.00     0.043 A 
HETATM    7  C   UNL     1      41.937 -15.601   4.649  1.00  0.00     0.035 A 
HETATM    8  C   UNL     1      40.677 -15.204   4.192  1.00  0.00     0.032 A 
HETATM    9  C   UNL     1      40.128 -13.958   4.528  1.00  0.00     0.033 A 
ENDROOT
BRANCH   7  10
HETATM   10  N   UNL     1      42.411 -16.868   4.241  1.00  0.00    -0.323 N 
HETATM   11  C   UNL     1      43.198 -17.139   3.135  1.00  0.00     0.256 C 
HETATM   12  O   UNL     1      43.563 -16.349   2.275  1.00  0.00    -0.267 OA
HETATM   13  H   UNL     1      42.061 -17.660   4.762  1.00  0.00     0.169 HD
BRANCH  11  14
HETATM   14  C   UNL     1      43.587 -18.565   2.977  1.00  0.00     0.032 A 
HETATM   15  C   UNL     1      44.369 -19.156   3.974  1.00  0.00     0.020 A 
HETATM   16  C   UNL     1      44.719 -20.504   3.878  1.00  0.00     0.038 A 
HETATM   17  C   UNL     1      44.267 -21.277   2.806  1.00  0.00     0.068 A 
HETATM   18  C   UNL     1      43.492 -20.685   1.806  1.00  0.00     0.038 A 
HETATM   19  C   UNL     1      43.148 -19.331   1.891  1.00  0.00     0.020 A 
BRANCH  17  20
HETATM   20  O   UNL     1      44.658 -22.588   2.837  1.00  0.00    -0.356 OA
HETATM   21  C   UNL     1      44.800 -23.168   4.129  1.00  0.00     0.210 C 
ENDBRANCH  17  20
ENDBRANCH  11  14
ENDBRANCH   7  10
BRANCH   2  22
HETATM   22  C   UNL     1      41.701 -10.153   7.397  1.00  0.00     0.268 C 
HETATM   23  N   UNL     1      41.481 -10.276   8.754  1.00  0.00    -0.353 N 
HETATM   24  H   UNL     1      41.152 -11.169   9.093  1.00  0.00     0.162 HD
HETATM   25  O   UNL     1      41.915  -9.071   6.860  1.00  0.00    -0.266 OA
BRANCH  23  26
HETATM   26  C   UNL     1      41.327  -9.119   9.616  1.00  0.00     0.160 C 
BRANCH  26  27
HETATM   27  C   UNL     1      41.056  -9.477  11.104  1.00  0.00     0.073 C 
HETATM   28  O   UNL     1      41.329  -8.344  11.952  1.00  0.00    -0.379 OA
HETATM   29  C   UNL     1      42.665  -8.455  12.464  1.00  0.00     0.169 C 
HETATM   30  C   UNL     1      43.249  -9.760  11.960  1.00  0.00     0.029 C 
HETATM   31  C   UNL     1      42.021 -10.557  11.592  1.00  0.00     0.041 C 
HETATM   32  C   UNL     1      39.601  -9.892  11.317  1.00  0.00     0.047 C 
ENDBRANCH  26  27
ENDBRANCH  23  26
ENDBRANCH   2  22
BRANCH   1  33
HETATM   33  C   UNL     1      39.438 -11.050   5.514  1.00  0.00     0.125 C 
HETATM   34  C   UNL     1      39.600 -10.242   4.238  1.00  0.00     0.027 C 
ENDBRANCH   1  33
TORSDOF 7
ENDMDL
MODEL 4
REMARK VINA RESULT:      -7.8      5.156      9.984
REMARK  7 active torsions:
REMARK  status: ('A' for Active; 'I' for Inactive)
REMARK    1  A    between atoms: C_2  and  N_3 
REMARK    2  A    between atoms: C_4  and  C_5 
REMARK       I    between atoms: C_5  and  N_6 
REMARK    3  A    between atoms: N_6  and  C_7 
REMARK    4  A    between atoms: C_7  and  C_8 
REMARK    5  A    between atoms: C_19  and  N_20 
REMARK       I    between atoms: N_20  and  C_21 
REMARK    6  A    between atoms: C_21  and  C_22 
REMARK    7  A    between atoms: C_25  and  O_26 
ROOT
HETATM    1  N   UNL     1      38.399 -11.894   1.711  1.00  0.00    -0.342 N 
HETATM    2  C   UNL     1      37.414 -12.452   0.908  1.00  0.00     0.104 A 
HETATM    3  C   UNL     1      37.699 -13.808   0.836  1.00  0.00     0.049 A 
HETATM    4  C   UNL     1      38.883 -14.070   1.565  1.00  0.00    -0.005 A 
HETATM    5  C   UNL     1      39.325 -12.857   2.085  1.00  0.00     0.045 A 
HETATM    6  C   UNL     1      39.618 -15.247   1.822  1.00  0.00     0.043 A 
HETATM    7  C   UNL     1      40.787 -15.193   2.585  1.00  0.00     0.035 A 
HETATM    8  C   UNL     1      41.226 -13.958   3.071  1.00  0.00     0.032 A 
HETATM    9  C   UNL     1      40.507 -12.776   2.838  1.00  0.00     0.033 A 
ENDROOT
BRANCH   7  10
HETATM   10  N   UNL     1      41.570 -16.330   2.888  1.00  0.00    -0.323 N 
HETATM   11  C   UNL     1      42.476 -16.956   2.050  1.00  0.00     0.256 C 
HETATM   12  O   UNL     1      42.711 -16.687   0.880  1.00  0.00    -0.267 OA
HETATM   13  H   UNL     1      41.376 -16.778   3.773  1.00  0.00     0.169 HD
BRANCH  11  14
HETATM   14  C   UNL     1      43.196 -18.109   2.654  1.00  0.00     0.032 A 
HETATM   15  C   UNL     1      43.557 -18.036   4.002  1.00  0.00     0.020 A 
HETATM   16  C   UNL     1      44.198 -19.116   4.612  1.00  0.00     0.038 A 
HETATM   17  C   UNL     1      44.453 -20.285   3.892  1.00  0.00     0.068 A 
HETATM   18  C   UNL     1      44.098 -20.356   2.543  1.00  0.00     0.038 A 
HETATM   19  C   UNL     1      43.466 -19.271   1.922  1.00  0.00     0.020 A 
BRANCH  17  20
HETATM   20  O   UNL     1      45.064 -21.279   4.606  1.00  0.00    -0.356 OA
HETATM   21  C   UNL     1      44.664 -22.609   4.295  1.00  0.00     0.210 C 
ENDBRANCH  17  20
ENDBRANCH  11  14
ENDBRANCH   7  10
BRANCH   2  22
HETATM   22  C   UNL     1      36.307 -11.731   0.298  1.00  0.00     0.268 C 
HETATM   23  N   UNL     1      35.276 -11.456   1.173  1.00  0.00    -0.353 N 
HETATM   24  H   UNL     1      35.302 -11.902   2.078  1.00  0.00     0.162 HD
HETATM   25  O   UNL     1      36.276 -11.397  -0.882  1.00  0.00    -0.266 OA
BRANCH  23  26
HETATM   26  C   UNL     1      34.015 -10.894   0.723  1.00  0.00     0.160 C 
BRANCH  26  27
HETATM   27  C   UNL     1      33.256 -10.098   1.821  1.00  0.00     0.073 C 
HETATM   28  O   UNL     1      32.549 -10.998   2.697  1.00  0.00    -0.379 OA
HETATM   29  C   UNL     1      31.192 -11.120   2.246  1.00  0.00     0.169 C 
HETATM   30  C   UNL     1      31.014 -10.201   1.054  1.00  0.00     0.029 C 
HETATM   31  C   UNL     1      32.159  -9.228   1.205  1.00  0.00     0.041 C 
HETATM   32  C   UNL     1      34.218  -9.266   2.666  1.00  0.00     0.047 C 
ENDBRANCH  26  27
ENDBRANCH  23  26
ENDBRANCH   2  22
BRANCH   1  33
HETATM   33  C   UNL     1      38.475 -10.491   2.095  1.00  0.00     0.125 C 
HETATM   34  C   UNL     1      37.902 -10.232   3.477  1.00  0.00     0.027 C 
ENDBRANCH   1  33
TORSDOF 7
ENDMDL
MODEL 5
REMARK VINA RESULT:      -7.6      5.749     10.720
REMARK  7 active torsions:
REMARK  status: ('A' for Active; 'I' for Inactive)
REMARK    1  A    between atoms: C_2  and  N_3 
REMARK    2  A    between atoms: C_4  and  C_5 
REMARK       I    between atoms: C_5  and  N_6 
REMARK    3  A    between atoms: N_6  and  C_7 
REMARK    4  A    between atoms: C_7  and  C_8 
REMARK    5  A    between atoms: C_19  and  N_20 
REMARK       I    between atoms: N_20  and  C_21 
REMARK    6  A    between atoms: C_21  and  C_22 
REMARK    7  A    between atoms: C_25  and  O_26 
ROOT
HETATM    1  N   UNL     1      39.302 -13.290  -0.624  1.00  0.00    -0.342 N 
HETATM    2  C   UNL     1      39.834 -13.189  -1.902  1.00  0.00     0.104 A 
HETATM    3  C   UNL     1      40.715 -14.253  -2.037  1.00  0.00     0.049 A 
HETATM    4  C   UNL     1      40.749 -14.981  -0.823  1.00  0.00    -0.005 A 
HETATM    5  C   UNL     1      39.879 -14.350   0.061  1.00  0.00     0.045 A 
HETATM    6  C   UNL     1      41.455 -16.128  -0.406  1.00  0.00     0.043 A 
HETATM    7  C   UNL     1      41.291 -16.622   0.891  1.00  0.00     0.035 A 
HETATM    8  C   UNL     1      40.434 -15.953   1.770  1.00  0.00     0.032 A 
HETATM    9  C   UNL     1      39.713 -14.816   1.375  1.00  0.00     0.033 A 
ENDROOT
BRANCH   7  10
HETATM   10  N   UNL     1      41.960 -17.769   1.377  1.00  0.00    -0.323 N 
HETATM   11  C   UNL     1      43.306 -17.874   1.678  1.00  0.00     0.256 C 
HETATM   12  O   UNL     1      44.171 -17.025   1.512  1.00  0.00    -0.267 OA
HETATM   13  H   UNL     1      41.411 -18.617   1.418  1.00  0.00     0.169 HD
BRANCH  11  14
HETATM   14  C   UNL     1      43.726 -19.194   2.218  1.00  0.00     0.032 A 
HETATM   15  C   UNL     1      44.348 -19.235   3.469  1.00  0.00     0.020 A 
HETATM   16  C   UNL     1      44.719 -20.461   4.024  1.00  0.00     0.038 A 
HETATM   17  C   UNL     1      44.445 -21.653   3.352  1.00  0.00     0.068 A 
HETATM   18  C   UNL     1      43.829 -21.613   2.098  1.00  0.00     0.038 A 
HETATM   19  C   UNL     1      43.466 -20.386   1.531  1.00  0.00     0.020 A 
BRANCH  17  20
HETATM   20  O   UNL     1      44.836 -22.787   4.009  1.00  0.00    -0.356 OA
HETATM   21  C   UNL     1      45.155 -22.634   5.387  1.00  0.00     0.210 C 
ENDBRANCH  17  20
ENDBRANCH  11  14
ENDBRANCH   7  10
BRANCH   2  22
HETATM   22  C   UNL     1      39.496 -12.171  -2.884  1.00  0.00     0.268 C 
HETATM   23  N   UNL     1      40.388 -11.118  -2.920  1.00  0.00    -0.353 N 
HETATM   24  H   UNL     1      41.075 -11.064  -2.181  1.00  0.00     0.162 HD
HETATM   25  O   UNL     1      38.513 -12.226  -3.615  1.00  0.00    -0.266 OA
BRANCH  23  26
HETATM   26  C   UNL     1      40.140  -9.927  -3.711  1.00  0.00     0.160 C 
BRANCH  26  27
HETATM   27  C   UNL     1      41.042  -9.811  -4.972  1.00  0.00     0.073 C 
HETATM   28  O   UNL     1      41.435  -8.441  -5.184  1.00  0.00    -0.379 OA
HETATM   29  C   UNL     1      40.533  -7.836  -6.123  1.00  0.00     0.169 C 
HETATM   30  C   UNL     1      39.550  -8.899  -6.573  1.00  0.00     0.029 C 
HETATM   31  C   UNL     1      40.266 -10.184  -6.235  1.00  0.00     0.041 C 
HETATM   32  C   UNL     1      42.308 -10.654  -4.825  1.00  0.00     0.047 C 
ENDBRANCH  26  27
ENDBRANCH  23  26
ENDBRANCH   2  22
BRANCH   1  33
HETATM   33  C   UNL     1      38.297 -12.400  -0.059  1.00  0.00     0.125 C 
HETATM   34  C   UNL     1      38.904 -11.155   0.564  1.00  0.00     0.027 C 
ENDBRANCH   1  33
TORSDOF 7
ENDMDL
MODEL 6
REMARK VINA RESULT:      -7.4      4.899      6.939
REMARK  7 active torsions:
REMARK  status: ('A' for Active; 'I' for Inactive)
REMARK    1  A    between atoms: C_2  and  N_3 
REMARK    2  A    between atoms: C_4  and  C_5 
REMARK       I    between atoms: C_5  and  N_6 
REMARK    3  A    between atoms: N_6  and  C_7 
REMARK    4  A    between atoms: C_7  and  C_8 
REMARK    5  A    between atoms: C_19  and  N_20 
REMARK       I    between atoms: N_20  and  C_21 
REMARK    6  A    between atoms: C_21  and  C_22 
REMARK    7  A    between atoms: C_25  and  O_26 
ROOT
HETATM    1  N   UNL     1      40.559 -10.250   5.372  1.00  0.00    -0.342 N 
HETATM    2  C   UNL     1      39.997 -10.417   6.629  1.00  0.00     0.104 A 
HETATM    3  C   UNL     1      40.214 -11.744   6.974  1.00  0.00     0.049 A 
HETATM    4  C   UNL     1      40.876 -12.396   5.906  1.00  0.00    -0.005 A 
HETATM    5  C   UNL     1      41.061 -11.454   4.898  1.00  0.00     0.045 A 
HETATM    6  C   UNL     1      41.330 -13.718   5.715  1.00  0.00     0.043 A 
HETATM    7  C   UNL     1      41.954 -14.082   4.519  1.00  0.00     0.035 A 
HETATM    8  C   UNL     1      42.101 -13.125   3.511  1.00  0.00     0.032 A 
HETATM    9  C   UNL     1      41.667 -11.801   3.680  1.00  0.00     0.033 A 
ENDROOT
BRANCH   7  10
HETATM   10  N   UNL     1      42.439 -15.384   4.260  1.00  0.00    -0.323 N 
HETATM   11  C   UNL     1      41.836 -16.349   3.473  1.00  0.00     0.256 C 
HETATM   12  O   UNL     1      40.746 -16.280   2.921  1.00  0.00    -0.267 OA
HETATM   13  H   UNL     1      43.263 -15.660   4.778  1.00  0.00     0.169 HD
BRANCH  11  14
HETATM   14  C   UNL     1      42.601 -17.618   3.342  1.00  0.00     0.032 A 
HETATM   15  C   UNL     1      42.468 -18.355   2.161  1.00  0.00     0.020 A 
HETATM   16  C   UNL     1      43.202 -19.530   1.988  1.00  0.00     0.038 A 
HETATM   17  C   UNL     1      44.094 -19.959   2.972  1.00  0.00     0.068 A 
HETATM   18  C   UNL     1      44.222 -19.226   4.155  1.00  0.00     0.038 A 
HETATM   19  C   UNL     1      43.480 -18.053   4.340  1.00  0.00     0.020 A 
BRANCH  17  20
HETATM   20  O   UNL     1      44.770 -21.110   2.675  1.00  0.00    -0.356 OA
HETATM   21  C   UNL     1      44.187 -21.937   1.674  1.00  0.00     0.210 C 
ENDBRANCH  17  20
ENDBRANCH  11  14
ENDBRANCH   7  10
BRANCH   2  22
HETATM   22  C   UNL     1      39.339  -9.382   7.409  1.00  0.00     0.268 C 
HETATM   23  N   UNL     1      40.124  -8.867   8.421  1.00  0.00    -0.353 N 
HETATM   24  H   UNL     1      40.987  -9.346   8.630  1.00  0.00     0.162 HD
HETATM   25  O   UNL     1      38.193  -8.995   7.203  1.00  0.00    -0.266 OA
BRANCH  23  26
HETATM   26  C   UNL     1      39.595  -7.947   9.412  1.00  0.00     0.160 C 
BRANCH  26  27
HETATM   27  C   UNL     1      39.447  -8.568  10.829  1.00  0.00     0.073 C 
HETATM   28  O   UNL     1      39.768  -7.594  11.841  1.00  0.00    -0.379 OA
HETATM   29  C   UNL     1      41.142  -7.754  12.225  1.00  0.00     0.169 C 
HETATM   30  C   UNL     1      41.704  -8.932  11.456  1.00  0.00     0.029 C 
HETATM   31  C   UNL     1      40.464  -9.689  11.044  1.00  0.00     0.041 C 
HETATM   32  C   UNL     1      38.020  -9.056  11.072  1.00  0.00     0.047 C 
ENDBRANCH  26  27
ENDBRANCH  23  26
ENDBRANCH   2  22
BRANCH   1  33
HETATM   33  C   UNL     1      40.602  -8.997   4.630  1.00  0.00     0.125 C 
HETATM   34  C   UNL     1      41.873  -8.208   4.889  1.00  0.00     0.027 C 
ENDBRANCH   1  33
TORSDOF 7
ENDMDL
MODEL 7
REMARK VINA RESULT:      -7.3      2.676      4.379
REMARK  7 active torsions:
REMARK  status: ('A' for Active; 'I' for Inactive)
REMARK    1  A    between atoms: C_2  and  N_3 
REMARK    2  A    between atoms: C_4  and  C_5 
REMARK       I    between atoms: C_5  and  N_6 
REMARK    3  A    between atoms: N_6  and  C_7 
REMARK    4  A    between atoms: C_7  and  C_8 
REMARK    5  A    between atoms: C_19  and  N_20 
REMARK       I    between atoms: N_20  and  C_21 
REMARK    6  A    between atoms: C_21  and  C_22 
REMARK    7  A    between atoms: C_25  and  O_26 
ROOT
HETATM    1  N   UNL     1      41.510 -10.798   7.681  1.00  0.00    -0.342 N 
HETATM    2  C   UNL     1      42.673 -11.378   8.168  1.00  0.00     0.104 A 
HETATM    3  C   UNL     1      43.113 -12.245   7.178  1.00  0.00     0.049 A 
HETATM    4  C   UNL     1      42.194 -12.222   6.102  1.00  0.00    -0.005 A 
HETATM    5  C   UNL     1      41.180 -11.331   6.443  1.00  0.00     0.045 A 
HETATM    6  C   UNL     1      42.142 -12.894   4.862  1.00  0.00     0.043 A 
HETATM    7  C   UNL     1      41.075 -12.673   3.987  1.00  0.00     0.035 A 
HETATM    8  C   UNL     1      40.055 -11.796   4.366  1.00  0.00     0.032 A 
HETATM    9  C   UNL     1      40.089 -11.109   5.589  1.00  0.00     0.033 A 
ENDROOT
BRANCH   7  10
HETATM   10  N   UNL     1      40.960 -13.304   2.728  1.00  0.00    -0.323 N 
HETATM   11  C   UNL     1      41.686 -13.012   1.587  1.00  0.00     0.256 C 
HETATM   12  O   UNL     1      42.504 -12.114   1.440  1.00  0.00    -0.267 OA
HETATM   13  H   UNL     1      40.206 -13.972   2.635  1.00  0.00     0.169 HD
BRANCH  11  14
HETATM   14  C   UNL     1      41.385 -13.874   0.413  1.00  0.00     0.032 A 
HETATM   15  C   UNL     1      41.037 -13.258  -0.793  1.00  0.00     0.020 A 
HETATM   16  C   UNL     1      40.786 -14.036  -1.925  1.00  0.00     0.038 A 
HETATM   17  C   UNL     1      40.911 -15.425  -1.871  1.00  0.00     0.068 A 
HETATM   18  C   UNL     1      41.252 -16.041  -0.664  1.00  0.00     0.038 A 
HETATM   19  C   UNL     1      41.493 -15.268   0.478  1.00  0.00     0.020 A 
BRANCH  17  20
HETATM   20  O   UNL     1      40.662 -16.072  -3.050  1.00  0.00    -0.356 OA
HETATM   21  C   UNL     1      39.467 -15.700  -3.728  1.00  0.00     0.210 C 
ENDBRANCH  17  20
ENDBRANCH  11  14
ENDBRANCH   7  10
BRANCH   2  22
HETATM   22  C   UNL     1      43.290 -11.094   9.454  1.00  0.00     0.268 C 
HETATM   23  N   UNL     1      42.706 -11.766  10.509  1.00  0.00    -0.353 N 
HETATM   24  H   UNL     1      41.836 -12.246  10.331  1.00  0.00     0.162 HD
HETATM   25  O   UNL     1      44.237 -10.329   9.604  1.00  0.00    -0.266 OA
BRANCH  23  26
HETATM   26  C   UNL     1      43.067 -11.493  11.888  1.00  0.00     0.160 C 
BRANCH  26  27
HETATM   27  C   UNL     1      41.975 -10.720  12.680  1.00  0.00     0.073 C 
HETATM   28  O   UNL     1      41.759  -9.419  12.100  1.00  0.00    -0.379 OA
HETATM   29  C   UNL     1      42.553  -8.453  12.806  1.00  0.00     0.169 C 
HETATM   30  C   UNL     1      43.266  -9.174  13.933  1.00  0.00     0.029 C 
HETATM   31  C   UNL     1      42.440 -10.426  14.107  1.00  0.00     0.041 C 
HETATM   32  C   UNL     1      40.647 -11.474  12.671  1.00  0.00     0.047 C 
ENDBRANCH  26  27
ENDBRANCH  23  26
ENDBRANCH   2  22
BRANCH   1  33
HETATM   33  C   UNL     1      40.721  -9.787   8.374  1.00  0.00     0.125 C 
HETATM   34  C   UNL     1      39.593 -10.388   9.193  1.00  0.00     0.027 C 
ENDBRANCH   1  33
TORSDOF 7
ENDMDL
MODEL 8
REMARK VINA RESULT:      -7.3      3.930      5.579
REMARK  7 active torsions:
REMARK  status: ('A' for Active; 'I' for Inactive)
REMARK    1  A    between atoms: C_2  and  N_3 
REMARK    2  A    between atoms: C_4  and  C_5 
REMARK       I    between atoms: C_5  and  N_6 
REMARK    3  A    between atoms: N_6  and  C_7 
REMARK    4  A    between atoms: C_7  and  C_8 
REMARK    5  A    between atoms: C_19  and  N_20 
REMARK       I    between atoms: N_20  and  C_21 
REMARK    6  A    between atoms: C_21  and  C_22 
REMARK    7  A    between atoms: C_25  and  O_26 
ROOT
HETATM    1  N   UNL     1      41.945 -15.721   1.634  1.00  0.00    -0.342 N 
HETATM    2  C   UNL     1      41.181 -15.738   2.792  1.00  0.00     0.104 A 
HETATM    3  C   UNL     1      39.926 -15.269   2.431  1.00  0.00     0.049 A 
HETATM    4  C   UNL     1      39.938 -14.927   1.058  1.00  0.00    -0.005 A 
HETATM    5  C   UNL     1      41.218 -15.191   0.578  1.00  0.00     0.045 A 
HETATM    6  C   UNL     1      38.960 -14.411   0.182  1.00  0.00     0.043 A 
HETATM    7  C   UNL     1      39.276 -14.156  -1.155  1.00  0.00     0.035 A 
HETATM    8  C   UNL     1      40.576 -14.401  -1.604  1.00  0.00     0.032 A 
HETATM    9  C   UNL     1      41.564 -14.925  -0.756  1.00  0.00     0.033 A 
ENDROOT
BRANCH   7  10
HETATM   10  N   UNL     1      38.347 -13.645  -2.089  1.00  0.00    -0.323 N 
HETATM   11  C   UNL     1      37.814 -14.316  -3.175  1.00  0.00     0.256 C 
HETATM   12  O   UNL     1      38.100 -15.439  -3.566  1.00  0.00    -0.267 OA
HETATM   13  H   UNL     1      38.125 -12.662  -2.000  1.00  0.00     0.169 HD
BRANCH  11  14
HETATM   14  C   UNL     1      36.818 -13.541  -3.964  1.00  0.00     0.032 A 
HETATM   15  C   UNL     1      36.896 -12.145  -3.946  1.00  0.00     0.020 A 
HETATM   16  C   UNL     1      36.002 -11.388  -4.706  1.00  0.00     0.038 A 
HETATM   17  C   UNL     1      35.050 -12.016  -5.511  1.00  0.00     0.068 A 
HETATM   18  C   UNL     1      34.968 -13.411  -5.524  1.00  0.00     0.038 A 
HETATM   19  C   UNL     1      35.853 -14.175  -4.755  1.00  0.00     0.020 A 
BRANCH  17  20
HETATM   20  O   UNL     1      34.250 -11.167  -6.225  1.00  0.00    -0.356 OA
HETATM   21  C   UNL     1      33.356 -11.777  -7.149  1.00  0.00     0.210 C 
ENDBRANCH  17  20
ENDBRANCH  11  14
ENDBRANCH   7  10
BRANCH   2  22
HETATM   22  C   UNL     1      41.631 -16.186   4.100  1.00  0.00     0.268 C 
HETATM   23  N   UNL     1      41.744 -17.557   4.209  1.00  0.00    -0.353 N 
HETATM   24  H   UNL     1      41.362 -18.116   3.460  1.00  0.00     0.162 HD
HETATM   25  O   UNL     1      41.887 -15.429   5.031  1.00  0.00    -0.266 OA
BRANCH  23  26
HETATM   26  C   UNL     1      42.017 -18.209   5.477  1.00  0.00     0.160 C 
BRANCH  26  27
HETATM   27  C   UNL     1      43.485 -18.698   5.628  1.00  0.00     0.073 C 
HETATM   28  O   UNL     1      43.537 -19.886   6.441  1.00  0.00    -0.379 OA
HETATM   29  C   UNL     1      43.822 -19.512   7.797  1.00  0.00     0.169 C 
HETATM   30  C   UNL     1      44.019 -18.010   7.833  1.00  0.00     0.029 C 
HETATM   31  C   UNL     1      44.326 -17.676   6.393  1.00  0.00     0.041 C 
HETATM   32  C   UNL     1      44.102 -19.023   4.268  1.00  0.00     0.047 C 
ENDBRANCH  26  27
ENDBRANCH  23  26
ENDBRANCH   2  22
BRANCH   1  33
HETATM   33  C   UNL     1      43.327 -16.171   1.533  1.00  0.00     0.125 C 
HETATM   34  C   UNL     1      43.443 -17.577   0.970  1.00  0.00     0.027 C 
ENDBRANCH   1  33
TORSDOF 7
ENDMDL
MODEL 9
REMARK VINA RESULT:      -7.2      4.294      6.502
REMARK  7 active torsions:
REMARK  status: ('A' for Active; 'I' for Inactive)
REMARK    1  A    between atoms: C_2  and  N_3 
REMARK    2  A    between atoms: C_4  and  C_5 
REMARK       I    between atoms: C_5  and  N_6 
REMARK    3  A    between atoms: N_6  and  C_7 
REMARK    4  A    between atoms: C_7  and  C_8 
REMARK    5  A    between atoms: C_19  and  N_20 
REMARK       I    between atoms: N_20  and  C_21 
REMARK    6  A    between atoms: C_21  and  C_22 
REMARK    7  A    between atoms: C_25  and  O_26 
ROOT
HETATM    1  N   UNL     1      40.630 -15.111   1.852  1.00  0.00    -0.342 N 
HETATM    2  C   UNL     1      41.826 -15.470   1.246  1.00  0.00     0.104 A 
HETATM    3  C   UNL     1      41.689 -15.145  -0.096  1.00  0.00     0.049 A 
HETATM    4  C   UNL     1      40.391 -14.624  -0.315  1.00  0.00    -0.005 A 
HETATM    5  C   UNL     1      39.730 -14.634   0.910  1.00  0.00     0.045 A 
HETATM    6  C   UNL     1      39.724 -14.146  -1.463  1.00  0.00     0.043 A 
HETATM    7  C   UNL     1      38.405 -13.695  -1.372  1.00  0.00     0.035 A 
HETATM    8  C   UNL     1      37.753 -13.743  -0.137  1.00  0.00     0.032 A 
HETATM    9  C   UNL     1      38.398 -14.205   1.021  1.00  0.00     0.033 A 
ENDROOT
BRANCH   7  10
HETATM   10  N   UNL     1      37.676 -13.197  -2.476  1.00  0.00    -0.323 N 
HETATM   11  C   UNL     1      37.115 -13.942  -3.499  1.00  0.00     0.256 C 
HETATM   12  O   UNL     1      37.207 -15.149  -3.673  1.00  0.00    -0.267 OA
HETATM   13  H   UNL     1      37.645 -12.191  -2.568  1.00  0.00     0.169 HD
BRANCH  11  14
HETATM   14  C   UNL     1      36.361 -13.152  -4.508  1.00  0.00     0.032 A 
HETATM   15  C   UNL     1      35.643 -13.839  -5.491  1.00  0.00     0.020 A 
HETATM   16  C   UNL     1      34.891 -13.130  -6.430  1.00  0.00     0.038 A 
HETATM   17  C   UNL     1      34.825 -11.737  -6.376  1.00  0.00     0.068 A 
HETATM   18  C   UNL     1      35.548 -11.048  -5.398  1.00  0.00     0.038 A 
HETATM   19  C   UNL     1      36.313 -11.753  -4.461  1.00  0.00     0.020 A 
BRANCH  17  20
HETATM   20  O   UNL     1      34.039 -11.160  -7.335  1.00  0.00    -0.356 OA
HETATM   21  C   UNL     1      32.637 -11.364  -7.200  1.00  0.00     0.210 C 
ENDBRANCH  17  20
ENDBRANCH  11  14
ENDBRANCH   7  10
BRANCH   2  22
HETATM   22  C   UNL     1      42.979 -16.048   1.918  1.00  0.00     0.268 C 
HETATM   23  N   UNL     1      43.318 -17.303   1.456  1.00  0.00    -0.353 N 
HETATM   24  H   UNL     1      42.667 -17.763   0.836  1.00  0.00     0.162 HD
HETATM   25  O   UNL     1      43.599 -15.487   2.816  1.00  0.00    -0.266 OA
BRANCH  23  26
HETATM   26  C   UNL     1      44.330 -18.115   2.107  1.00  0.00     0.160 C 
BRANCH  26  27
HETATM   27  C   UNL     1      43.751 -19.299   2.931  1.00  0.00     0.073 C 
HETATM   28  O   UNL     1      42.593 -18.875   3.674  1.00  0.00    -0.379 OA
HETATM   29  C   UNL     1      42.995 -18.518   5.005  1.00  0.00     0.169 C 
HETATM   30  C   UNL     1      44.482 -18.787   5.127  1.00  0.00     0.029 C 
HETATM   31  C   UNL     1      44.743 -19.757   4.001  1.00  0.00     0.041 C 
HETATM   32  C   UNL     1      43.338 -20.455   2.021  1.00  0.00     0.047 C 
ENDBRANCH  26  27
ENDBRANCH  23  26
ENDBRANCH   2  22
BRANCH   1  33
HETATM   33  C   UNL     1      40.338 -15.237   3.274  1.00  0.00     0.125 C 
HETATM   34  C   UNL     1      40.581 -13.946   4.035  1.00  0.00     0.027 C 
ENDBRANCH   1  33
TORSDOF 7
ENDMDL
MODEL 10
REMARK VINA RESULT:      -7.2      4.822     11.396
REMARK  7 active torsions:
REMARK  status: ('A' for Active; 'I' for Inactive)
REMARK    1  A    between atoms: C_2  and  N_3 
REMARK    2  A    between atoms: C_4  and  C_5 
REMARK       I    between atoms: C_5  and  N_6 
REMARK    3  A    between atoms: N_6  and  C_7 
REMARK    4  A    between atoms: C_7  and  C_8 
REMARK    5  A    between atoms: C_19  and  N_20 
REMARK       I    between atoms: N_20  and  C_21 
REMARK    6  A    between atoms: C_21  and  C_22 
REMARK    7  A    between atoms: C_25  and  O_26 
ROOT
HETATM    1  N   UNL     1      38.210 -13.100  -0.228  1.00  0.00    -0.342 N 
HETATM    2  C   UNL     1      38.753 -12.939  -1.494  1.00  0.00     0.104 A 
HETATM    3  C   UNL     1      39.819 -13.825  -1.571  1.00  0.00     0.049 A 
HETATM    4  C   UNL     1      39.949 -14.499  -0.333  1.00  0.00    -0.005 A 
HETATM    5  C   UNL     1      38.951 -14.015   0.508  1.00  0.00     0.045 A 
HETATM    6  C   UNL     1      40.842 -15.484   0.140  1.00  0.00     0.043 A 
HETATM    7  C   UNL     1      40.731 -15.962   1.448  1.00  0.00     0.035 A 
HETATM    8  C   UNL     1      39.739 -15.438   2.282  1.00  0.00     0.032 A 
HETATM    9  C   UNL     1      38.833 -14.467   1.831  1.00  0.00     0.033 A 
ENDROOT
BRANCH   7  10
HETATM   10  N   UNL     1      41.584 -16.951   1.989  1.00  0.00    -0.323 N 
HETATM   11  C   UNL     1      42.671 -16.740   2.819  1.00  0.00     0.256 C 
HETATM   12  O   UNL     1      43.133 -15.664   3.177  1.00  0.00    -0.267 OA
HETATM   13  H   UNL     1      41.434 -17.894   1.658  1.00  0.00     0.169 HD
BRANCH  11  14
HETATM   14  C   UNL     1      43.361 -17.976   3.274  1.00  0.00     0.032 A 
HETATM   15  C   UNL     1      43.464 -19.048   2.383  1.00  0.00     0.020 A 
HETATM   16  C   UNL     1      44.141 -20.208   2.763  1.00  0.00     0.038 A 
HETATM   17  C   UNL     1      44.745 -20.295   4.019  1.00  0.00     0.068 A 
HETATM   18  C   UNL     1      44.637 -19.226   4.913  1.00  0.00     0.038 A 
HETATM   19  C   UNL     1      43.949 -18.065   4.542  1.00  0.00     0.020 A 
BRANCH  17  20
HETATM   20  O   UNL     1      45.397 -21.473   4.264  1.00  0.00    -0.356 OA
HETATM   21  C   UNL     1      44.922 -22.232   5.370  1.00  0.00     0.210 C 
ENDBRANCH  17  20
ENDBRANCH  11  14
ENDBRANCH   7  10
BRANCH   2  22
HETATM   22  C   UNL     1      38.265 -12.030  -2.518  1.00  0.00     0.268 C 
HETATM   23  N   UNL     1      37.162 -12.504  -3.201  1.00  0.00    -0.353 N 
HETATM   24  H   UNL     1      36.903 -13.468  -3.052  1.00  0.00     0.162 HD
HETATM   25  O   UNL     1      38.775 -10.942  -2.767  1.00  0.00    -0.266 OA
BRANCH  23  26
HETATM   26  C   UNL     1      36.628 -11.824  -4.366  1.00  0.00     0.160 C 
BRANCH  26  27
HETATM   27  C   UNL     1      35.506 -12.615  -5.095  1.00  0.00     0.073 C 
HETATM   28  O   UNL     1      35.542 -12.349  -6.511  1.00  0.00    -0.379 OA
HETATM   29  C   UNL     1      34.608 -11.301  -6.814  1.00  0.00     0.169 C 
HETATM   30  C   UNL     1      33.900 -10.924  -5.528  1.00  0.00     0.029 C 
HETATM   31  C   UNL     1      34.123 -12.135  -4.653  1.00  0.00     0.041 C 
HETATM   32  C   UNL     1      35.667 -14.120  -4.888  1.00  0.00     0.047 C 
ENDBRANCH  26  27
ENDBRANCH  23  26
ENDBRANCH   2  22
BRANCH   1  33
HETATM   33  C   UNL     1      37.041 -12.396   0.282  1.00  0.00     0.125 C 
HETATM   34  C   UNL     1      37.408 -11.151   1.071  1.00  0.00     0.027 C 
ENDBRANCH   1  33
TORSDOF 7
ENDMDL
