MODEL 1
REMARK VINA RESULT:      -9.9      0.000      0.000
REMARK  6 active torsions:
REMARK  status: ('A' for Active; 'I' for Inactive)
REMARK    1  A    between atoms: C_2  and  O_3 
REMARK    2  A    between atoms: O_3  and  C_4 
REMARK    3  A    between atoms: C_5  and  C_6 
REMARK       I    between atoms: C_6  and  N_7 
REMARK    4  A    between atoms: N_7  and  C_8 
REMARK    5  A    between atoms: N_9  and  C_10 
REMARK    6  A    between atoms: C_22  and  C_23 
ROOT
HETATM    1  C   UNL     1      43.623 -14.250   5.885  1.00  0.00     0.152 A 
HETATM    2  N   UNL     1      42.818 -13.121   5.921  1.00  0.00    -0.044 N 
HETATM    3  N   UNL     1      43.052 -12.346   7.022  1.00  0.00    -0.148 NA
HETATM    4  C   UNL     1      44.007 -13.013   7.685  1.00  0.00     0.115 A 
HETATM    5  C   UNL     1      44.373 -14.211   7.037  1.00  0.00     0.087 A 
ENDROOT
BRANCH   1   6
HETATM    6  N   UNL     1      43.598 -15.135   4.820  1.00  0.00    -0.307 N 
HETATM    7  C   UNL     1      42.692 -16.169   4.711  1.00  0.00     0.261 C 
HETATM    8  O   UNL     1      41.681 -16.349   5.375  1.00  0.00    -0.267 OA
HETATM    9  H   UNL     1      44.335 -15.047   4.120  1.00  0.00     0.170 HD
BRANCH   7  10
HETATM   10  C   UNL     1      43.041 -17.122   3.632  1.00  0.00     0.076 A 
HETATM   11  C   UNL     1      42.657 -16.784   2.319  1.00  0.00     0.085 A 
HETATM   12  C   UNL     1      42.947 -17.672   1.287  1.00  0.00     0.039 A 
HETATM   13  C   UNL     1      43.596 -18.879   1.563  1.00  0.00     0.015 A 
HETATM   14  C   UNL     1      43.971 -19.227   2.871  1.00  0.00    -0.025 A 
HETATM   15  C   UNL     1      43.700 -18.338   3.938  1.00  0.00    -0.007 A 
HETATM   16  C   UNL     1      44.605 -20.454   3.126  1.00  0.00     0.012 A 
HETATM   17  C   UNL     1      44.093 -18.725   5.241  1.00  0.00     0.013 A 
HETATM   18  C   UNL     1      44.721 -19.949   5.478  1.00  0.00     0.001 A 
HETATM   19  C   UNL     1      44.975 -20.814   4.422  1.00  0.00     0.001 A 
BRANCH  11  20
HETATM   20  O   UNL     1      41.994 -15.597   2.162  1.00  0.00    -0.350 OA
BRANCH  20  21
HETATM   21  C   UNL     1      40.883 -15.555   1.271  1.00  0.00     0.171 C 
HETATM   22  C   UNL     1      39.620 -15.551   2.114  1.00  0.00     0.034 C 
ENDBRANCH  20  21
ENDBRANCH  11  20
ENDBRANCH   7  10
ENDBRANCH   1   6
BRANCH   2  23
HETATM   23  C   UNL     1      41.838 -12.730   4.986  1.00  0.00     0.732 A 
HETATM   24  N   UNL     1      42.096 -12.526   3.732  1.00  0.00    -0.067 NA
HETATM   25  C   UNL     1      41.024 -12.180   2.940  1.00  0.00     0.065 A 
HETATM   26  C   UNL     1      39.764 -12.034   3.392  1.00  0.00     0.036 A 
HETATM   27  C   UNL     1      41.351 -12.001   1.474  1.00  0.00     0.060 C 
HETATM   28  C   UNL     1      38.592 -11.661   2.534  1.00  0.00     0.046 C 
HETATM   29  C   UNL     1      39.512 -12.262   4.837  1.00  0.00     0.268 A 
HETATM   30  C   UNL     1      38.999 -11.174   1.142  1.00  0.00     0.005 C 
HETATM   31  C   UNL     1      40.121 -12.030   0.566  1.00  0.00     0.006 C 
HETATM   32  O   UNL     1      38.398 -12.151   5.333  1.00  0.00    -0.267 OA
HETATM   33  N   UNL     1      40.607 -12.608   5.564  1.00  0.00    -0.152 N 
HETATM   34  H   UNL     1      40.505 -12.790   6.557  1.00  0.00     0.188 HD
ENDBRANCH   2  23
BRANCH   4  35
HETATM   35  C   UNL     1      44.614 -12.507   8.950  1.00  0.00     0.105 A 
HETATM   36  O   UNL     1      44.346 -13.011  10.194  1.00  0.00    -0.320 OA
HETATM   37  C   UNL     1      45.094 -12.311  11.084  1.00  0.00     0.142 A 
HETATM   38  C   UNL     1      45.846 -11.359  10.439  1.00  0.00     0.027 A 
HETATM   39  C   UNL     1      45.536 -11.483   9.062  1.00  0.00     0.041 A 
ENDBRANCH   4  35
TORSDOF 6
ENDMDL
MODEL 2
REMARK VINA RESULT:      -9.7      2.804      6.689
REMARK  6 active torsions:
REMARK  status: ('A' for Active; 'I' for Inactive)
REMARK    1  A    between atoms: C_2  and  O_3 
REMARK    2  A    between atoms: O_3  and  C_4 
REMARK    3  A    between atoms: C_5  and  C_6 
REMARK       I    between atoms: C_6  and  N_7 
REMARK    4  A    between atoms: N_7  and  C_8 
REMARK    5  A    between atoms: N_9  and  C_10 
REMARK    6  A    between atoms: C_22  and  C_23 
ROOT
HETATM    1  C   UNL     1      41.675 -16.225   1.553  1.00  0.00     0.152 A 
HETATM    2  N   UNL     1      41.225 -14.931   1.770  1.00  0.00    -0.044 N 
HETATM    3  N   UNL     1      40.660 -14.380   0.654  1.00  0.00    -0.148 NA
HETATM    4  C   UNL     1      40.777 -15.342  -0.272  1.00  0.00     0.115 A 
HETATM    5  C   UNL     1      41.424 -16.492   0.228  1.00  0.00     0.087 A 
ENDROOT
BRANCH   1   6
HETATM    6  N   UNL     1      42.217 -16.993   2.571  1.00  0.00    -0.307 N 
HETATM    7  C   UNL     1      43.534 -17.399   2.600  1.00  0.00     0.261 C 
HETATM    8  O   UNL     1      44.453 -17.002   1.897  1.00  0.00    -0.267 OA
HETATM    9  H   UNL     1      41.581 -17.326   3.297  1.00  0.00     0.170 HD
BRANCH   7  10
HETATM   10  C   UNL     1      43.794 -18.422   3.639  1.00  0.00     0.076 A 
HETATM   11  C   UNL     1      43.825 -17.990   4.980  1.00  0.00     0.085 A 
HETATM   12  C   UNL     1      44.093 -18.924   5.977  1.00  0.00     0.039 A 
HETATM   13  C   UNL     1      44.338 -20.259   5.641  1.00  0.00     0.015 A 
HETATM   14  C   UNL     1      44.320 -20.692   4.305  1.00  0.00    -0.025 A 
HETATM   15  C   UNL     1      44.038 -19.769   3.271  1.00  0.00    -0.007 A 
HETATM   16  C   UNL     1      44.588 -22.034   3.991  1.00  0.00     0.012 A 
HETATM   17  C   UNL     1      44.029 -20.244   1.939  1.00  0.00     0.013 A 
HETATM   18  C   UNL     1      44.299 -21.582   1.642  1.00  0.00     0.001 A 
HETATM   19  C   UNL     1      44.580 -22.475   2.667  1.00  0.00     0.001 A 
BRANCH  11  20
HETATM   20  O   UNL     1      43.609 -16.657   5.199  1.00  0.00    -0.350 OA
BRANCH  20  21
HETATM   21  C   UNL     1      42.956 -16.265   6.404  1.00  0.00     0.171 C 
HETATM   22  C   UNL     1      41.460 -16.366   6.167  1.00  0.00     0.034 C 
ENDBRANCH  20  21
ENDBRANCH  11  20
ENDBRANCH   7  10
ENDBRANCH   1   6
BRANCH   2  23
HETATM   23  C   UNL     1      41.297 -14.181   2.960  1.00  0.00     0.732 A 
HETATM   24  N   UNL     1      40.253 -13.702   3.562  1.00  0.00    -0.067 NA
HETATM   25  C   UNL     1      40.487 -13.018   4.733  1.00  0.00     0.065 A 
HETATM   26  C   UNL     1      41.709 -12.816   5.261  1.00  0.00     0.036 A 
HETATM   27  C   UNL     1      39.243 -12.518   5.435  1.00  0.00     0.060 C 
HETATM   28  C   UNL     1      41.971 -12.074   6.539  1.00  0.00     0.046 C 
HETATM   29  C   UNL     1      42.881 -13.366   4.535  1.00  0.00     0.268 A 
HETATM   30  C   UNL     1      40.747 -11.310   7.050  1.00  0.00     0.005 C 
HETATM   31  C   UNL     1      39.478 -12.140   6.898  1.00  0.00     0.006 C 
HETATM   32  O   UNL     1      44.028 -13.230   4.943  1.00  0.00    -0.267 OA
HETATM   33  N   UNL     1      42.584 -14.038   3.391  1.00  0.00    -0.152 N 
HETATM   34  H   UNL     1      43.338 -14.450   2.850  1.00  0.00     0.188 HD
ENDBRANCH   2  23
BRANCH   4  35
HETATM   35  C   UNL     1      40.249 -15.195  -1.659  1.00  0.00     0.105 A 
HETATM   36  O   UNL     1      39.241 -14.343  -2.019  1.00  0.00    -0.320 OA
HETATM   37  C   UNL     1      39.054 -14.478  -3.357  1.00  0.00     0.142 A 
HETATM   38  C   UNL     1      39.927 -15.407  -3.874  1.00  0.00     0.027 A 
HETATM   39  C   UNL     1      40.696 -15.871  -2.779  1.00  0.00     0.041 A 
ENDBRANCH   4  35
TORSDOF 6
ENDMDL
MODEL 3
REMARK VINA RESULT:      -9.7      1.745      2.301
REMARK  6 active torsions:
REMARK  status: ('A' for Active; 'I' for Inactive)
REMARK    1  A    between atoms: C_2  and  O_3 
REMARK    2  A    between atoms: O_3  and  C_4 
REMARK    3  A    between atoms: C_5  and  C_6 
REMARK       I    between atoms: C_6  and  N_7 
REMARK    4  A    between atoms: N_7  and  C_8 
REMARK    5  A    between atoms: N_9  and  C_10 
REMARK    6  A    between atoms: C_22  and  C_23 
ROOT
HETATM    1  C   UNL     1      43.422 -15.019   5.154  1.00  0.00     0.152 A 
HETATM    2  N   UNL     1      42.698 -13.903   4.762  1.00  0.00    -0.044 N 
HETATM    3  N   UNL     1      42.767 -12.887   5.675  1.00  0.00    -0.148 NA
HETATM    4  C   UNL     1      43.534 -13.389   6.653  1.00  0.00     0.115 A 
HETATM    5  C   UNL     1      43.940 -14.714   6.391  1.00  0.00     0.087 A 
ENDROOT
BRANCH   1   6
HETATM    6  N   UNL     1      43.545 -16.135   4.343  1.00  0.00    -0.307 N 
HETATM    7  C   UNL     1      42.710 -17.230   4.424  1.00  0.00     0.261 C 
HETATM    8  O   UNL     1      41.652 -17.319   5.031  1.00  0.00    -0.267 OA
HETATM    9  H   UNL     1      44.339 -16.165   3.703  1.00  0.00     0.170 HD
BRANCH   7  10
HETATM   10  C   UNL     1      43.209 -18.387   3.646  1.00  0.00     0.076 A 
HETATM   11  C   UNL     1      43.115 -18.314   2.242  1.00  0.00     0.085 A 
HETATM   12  C   UNL     1      43.551 -19.397   1.485  1.00  0.00     0.039 A 
HETATM   13  C   UNL     1      44.059 -20.536   2.117  1.00  0.00     0.015 A 
HETATM   14  C   UNL     1      44.144 -20.620   3.517  1.00  0.00    -0.025 A 
HETATM   15  C   UNL     1      43.720 -19.529   4.312  1.00  0.00    -0.007 A 
HETATM   16  C   UNL     1      44.640 -21.782   4.130  1.00  0.00     0.012 A 
HETATM   17  C   UNL     1      43.822 -19.652   5.717  1.00  0.00     0.013 A 
HETATM   18  C   UNL     1      44.315 -20.815   6.312  1.00  0.00     0.001 A 
HETATM   19  C   UNL     1      44.722 -21.880   5.519  1.00  0.00     0.001 A 
BRANCH  11  20
HETATM   20  O   UNL     1      42.569 -17.170   1.724  1.00  0.00    -0.350 OA
BRANCH  20  21
HETATM   21  C   UNL     1      41.338 -17.270   1.014  1.00  0.00     0.171 C 
HETATM   22  C   UNL     1      41.465 -16.429  -0.243  1.00  0.00     0.034 C 
ENDBRANCH  20  21
ENDBRANCH  11  20
ENDBRANCH   7  10
ENDBRANCH   1   6
BRANCH   2  23
HETATM   23  C   UNL     1      41.941 -13.735   3.585  1.00  0.00     0.732 A 
HETATM   24  N   UNL     1      40.822 -14.352   3.368  1.00  0.00    -0.067 NA
HETATM   25  C   UNL     1      40.185 -14.057   2.184  1.00  0.00     0.065 A 
HETATM   26  C   UNL     1      40.661 -13.198   1.262  1.00  0.00     0.036 A 
HETATM   27  C   UNL     1      38.857 -14.754   1.987  1.00  0.00     0.060 C 
HETATM   28  C   UNL     1      39.970 -12.870  -0.029  1.00  0.00     0.046 C 
HETATM   29  C   UNL     1      41.953 -12.524   1.540  1.00  0.00     0.268 A 
HETATM   30  C   UNL     1      38.812 -13.817  -0.347  1.00  0.00     0.005 C 
HETATM   31  C   UNL     1      37.989 -14.119   0.900  1.00  0.00     0.006 C 
HETATM   32  O   UNL     1      42.459 -11.727   0.758  1.00  0.00    -0.267 OA
HETATM   33  N   UNL     1      42.527 -12.849   2.728  1.00  0.00    -0.152 N 
HETATM   34  H   UNL     1      43.408 -12.416   2.987  1.00  0.00     0.188 HD
ENDBRANCH   2  23
BRANCH   4  35
HETATM   35  C   UNL     1      43.919 -12.601   7.860  1.00  0.00     0.105 A 
HETATM   36  O   UNL     1      43.222 -11.526   8.339  1.00  0.00    -0.320 OA
HETATM   37  C   UNL     1      43.866 -11.088   9.451  1.00  0.00     0.142 A 
HETATM   38  C   UNL     1      44.974 -11.862   9.702  1.00  0.00     0.027 A 
HETATM   39  C   UNL     1      45.010 -12.837   8.676  1.00  0.00     0.041 A 
ENDBRANCH   4  35
TORSDOF 6
ENDMDL
MODEL 4
REMARK VINA RESULT:      -8.8      2.643      7.623
REMARK  6 active torsions:
REMARK  status: ('A' for Active; 'I' for Inactive)
REMARK    1  A    between atoms: C_2  and  O_3 
REMARK    2  A    between atoms: O_3  and  C_4 
REMARK    3  A    between atoms: C_5  and  C_6 
REMARK       I    between atoms: C_6  and  N_7 
REMARK    4  A    between atoms: N_7  and  C_8 
REMARK    5  A    between atoms: N_9  and  C_10 
REMARK    6  A    between atoms: C_22  and  C_23 
ROOT
HETATM    1  C   UNL     1      42.136 -16.070   2.902  1.00  0.00     0.152 A 
HETATM    2  N   UNL     1      41.804 -16.484   1.621  1.00  0.00    -0.044 N 
HETATM    3  N   UNL     1      42.268 -17.738   1.339  1.00  0.00    -0.148 NA
HETATM    4  C   UNL     1      42.909 -18.101   2.458  1.00  0.00     0.115 A 
HETATM    5  C   UNL     1      42.881 -17.092   3.444  1.00  0.00     0.087 A 
ENDROOT
BRANCH   1   6
HETATM    6  N   UNL     1      41.704 -14.859   3.417  1.00  0.00    -0.307 N 
HETATM    7  C   UNL     1      42.478 -13.718   3.429  1.00  0.00     0.261 C 
HETATM    8  O   UNL     1      43.528 -13.521   2.833  1.00  0.00    -0.267 OA
HETATM    9  H   UNL     1      40.789 -14.841   3.869  1.00  0.00     0.170 HD
BRANCH   7  10
HETATM   10  C   UNL     1      41.897 -12.642   4.266  1.00  0.00     0.076 A 
HETATM   11  C   UNL     1      42.059 -12.748   5.661  1.00  0.00     0.085 A 
HETATM   12  C   UNL     1      41.501 -11.766   6.476  1.00  0.00     0.039 A 
HETATM   13  C   UNL     1      40.786 -10.708   5.908  1.00  0.00     0.015 A 
HETATM   14  C   UNL     1      40.611 -10.603   4.519  1.00  0.00    -0.025 A 
HETATM   15  C   UNL     1      41.178 -11.579   3.665  1.00  0.00    -0.007 A 
HETATM   16  C   UNL     1      39.874  -9.540   3.973  1.00  0.00     0.012 A 
HETATM   17  C   UNL     1      40.981 -11.438   2.272  1.00  0.00     0.013 A 
HETATM   18  C   UNL     1      40.242 -10.377   1.745  1.00  0.00     0.001 A 
HETATM   19  C   UNL     1      39.687  -9.430   2.595  1.00  0.00     0.001 A 
BRANCH  11  20
HETATM   20  O   UNL     1      42.743 -13.842   6.117  1.00  0.00    -0.350 OA
BRANCH  20  21
HETATM   21  C   UNL     1      44.029 -13.643   6.698  1.00  0.00     0.171 C 
HETATM   22  C   UNL     1      44.647 -15.011   6.922  1.00  0.00     0.034 C 
ENDBRANCH  20  21
ENDBRANCH  11  20
ENDBRANCH   7  10
ENDBRANCH   1   6
BRANCH   2  23
HETATM   23  C   UNL     1      41.082 -15.769   0.644  1.00  0.00     0.732 A 
HETATM   24  N   UNL     1      40.119 -14.950   0.932  1.00  0.00    -0.067 NA
HETATM   25  C   UNL     1      39.533 -14.302  -0.133  1.00  0.00     0.065 A 
HETATM   26  C   UNL     1      39.890 -14.484  -1.418  1.00  0.00     0.036 A 
HETATM   27  C   UNL     1      38.450 -13.316   0.243  1.00  0.00     0.060 C 
HETATM   28  C   UNL     1      39.258 -13.780  -2.583  1.00  0.00     0.046 C 
HETATM   29  C   UNL     1      40.986 -15.442  -1.708  1.00  0.00     0.268 A 
HETATM   30  C   UNL     1      37.968 -13.046  -2.211  1.00  0.00     0.005 C 
HETATM   31  C   UNL     1      38.109 -12.328  -0.874  1.00  0.00     0.006 C 
HETATM   32  O   UNL     1      41.375 -15.668  -2.848  1.00  0.00    -0.267 OA
HETATM   33  N   UNL     1      41.529 -16.041  -0.616  1.00  0.00    -0.152 N 
HETATM   34  H   UNL     1      42.291 -16.700  -0.741  1.00  0.00     0.188 HD
ENDBRANCH   2  23
BRANCH   4  35
HETATM   35  C   UNL     1      43.550 -19.437   2.625  1.00  0.00     0.105 A 
HETATM   36  O   UNL     1      44.311 -19.804   3.701  1.00  0.00    -0.320 OA
HETATM   37  C   UNL     1      44.702 -21.088   3.503  1.00  0.00     0.142 A 
HETATM   38  C   UNL     1      44.208 -21.564   2.312  1.00  0.00     0.027 A 
HETATM   39  C   UNL     1      43.466 -20.499   1.743  1.00  0.00     0.041 A 
ENDBRANCH   4  35
TORSDOF 6
ENDMDL
MODEL 5
REMARK VINA RESULT:      -8.8      2.369      6.897
REMARK  6 active torsions:
REMARK  status: ('A' for Active; 'I' for Inactive)
REMARK    1  A    between atoms: C_2  and  O_3 
REMARK    2  A    between atoms: O_3  and  C_4 
REMARK    3  A    between atoms: C_5  and  C_6 
REMARK       I    between atoms: C_6  and  N_7 
REMARK    4  A    between atoms: N_7  and  C_8 
REMARK    5  A    between atoms: N_9  and  C_10 
REMARK    6  A    between atoms: C_22  and  C_23 
ROOT
HETATM    1  C   UNL     1      42.455 -16.552   3.470  1.00  0.00     0.152 A 
HETATM    2  N   UNL     1      41.987 -16.833   2.195  1.00  0.00    -0.044 N 
HETATM    3  N   UNL     1      42.370 -18.070   1.758  1.00  0.00    -0.148 NA
HETATM    4  C   UNL     1      43.099 -18.556   2.772  1.00  0.00     0.115 A 
HETATM    5  C   UNL     1      43.205 -17.643   3.842  1.00  0.00     0.087 A 
ENDROOT
BRANCH   1   6
HETATM    6  N   UNL     1      42.124 -15.381   4.132  1.00  0.00    -0.307 N 
HETATM    7  C   UNL     1      42.870 -14.224   4.052  1.00  0.00     0.261 C 
HETATM    8  O   UNL     1      43.774 -13.971   3.267  1.00  0.00    -0.267 OA
HETATM    9  H   UNL     1      41.321 -15.409   4.761  1.00  0.00     0.170 HD
BRANCH   7  10
HETATM   10  C   UNL     1      42.461 -13.210   5.051  1.00  0.00     0.076 A 
HETATM   11  C   UNL     1      41.335 -12.419   4.748  1.00  0.00     0.085 A 
HETATM   12  C   UNL     1      40.942 -11.440   5.655  1.00  0.00     0.039 A 
HETATM   13  C   UNL     1      41.666 -11.245   6.835  1.00  0.00     0.015 A 
HETATM   14  C   UNL     1      42.796 -12.023   7.137  1.00  0.00    -0.025 A 
HETATM   15  C   UNL     1      43.212 -13.035   6.240  1.00  0.00    -0.007 A 
HETATM   16  C   UNL     1      43.518 -11.797   8.320  1.00  0.00     0.012 A 
HETATM   17  C   UNL     1      44.354 -13.796   6.580  1.00  0.00     0.013 A 
HETATM   18  C   UNL     1      45.063 -13.558   7.759  1.00  0.00     0.001 A 
HETATM   19  C   UNL     1      44.647 -12.557   8.627  1.00  0.00     0.001 A 
BRANCH  11  20
HETATM   20  O   UNL     1      40.719 -12.664   3.550  1.00  0.00    -0.350 OA
BRANCH  20  21
HETATM   21  C   UNL     1      40.574 -11.586   2.631  1.00  0.00     0.171 C 
HETATM   22  C   UNL     1      41.544 -11.825   1.487  1.00  0.00     0.034 C 
ENDBRANCH  20  21
ENDBRANCH  11  20
ENDBRANCH   7  10
ENDBRANCH   1   6
BRANCH   2  23
HETATM   23  C   UNL     1      41.206 -16.007   1.362  1.00  0.00     0.732 A 
HETATM   24  N   UNL     1      40.061 -15.516   1.722  1.00  0.00    -0.067 NA
HETATM   25  C   UNL     1      39.435 -14.700   0.807  1.00  0.00     0.065 A 
HETATM   26  C   UNL     1      39.930 -14.408  -0.411  1.00  0.00     0.036 A 
HETATM   27  C   UNL     1      38.128 -14.103   1.279  1.00  0.00     0.060 C 
HETATM   28  C   UNL     1      39.255 -13.517  -1.411  1.00  0.00     0.046 C 
HETATM   29  C   UNL     1      41.236 -15.002  -0.792  1.00  0.00     0.268 A 
HETATM   30  C   UNL     1      37.805 -13.195  -1.044  1.00  0.00     0.005 C 
HETATM   31  C   UNL     1      37.666 -12.907   0.446  1.00  0.00     0.006 C 
HETATM   32  O   UNL     1      41.760 -14.789  -1.879  1.00  0.00    -0.267 OA
HETATM   33  N   UNL     1      41.808 -15.790   0.156  1.00  0.00    -0.152 N 
HETATM   34  H   UNL     1      42.707 -16.219  -0.034  1.00  0.00     0.188 HD
ENDBRANCH   2  23
BRANCH   4  35
HETATM   35  C   UNL     1      43.697 -19.922   2.753  1.00  0.00     0.105 A 
HETATM   36  O   UNL     1      44.350 -20.497   3.809  1.00  0.00    -0.320 OA
HETATM   37  C   UNL     1      44.734 -21.739   3.421  1.00  0.00     0.142 A 
HETATM   38  C   UNL     1      44.340 -21.983   2.127  1.00  0.00     0.027 A 
HETATM   39  C   UNL     1      43.673 -20.810   1.694  1.00  0.00     0.041 A 
ENDBRANCH   4  35
TORSDOF 6
ENDMDL
MODEL 6
REMARK VINA RESULT:      -8.7      3.030      7.871
REMARK  6 active torsions:
REMARK  status: ('A' for Active; 'I' for Inactive)
REMARK    1  A    between atoms: C_2  and  O_3 
REMARK    2  A    between atoms: O_3  and  C_4 
REMARK    3  A    between atoms: C_5  and  C_6 
REMARK       I    between atoms: C_6  and  N_7 
REMARK    4  A    between atoms: N_7  and  C_8 
REMARK    5  A    between atoms: N_9  and  C_10 
REMARK    6  A    between atoms: C_22  and  C_23 
ROOT
HETATM    1  C   UNL     1      41.763 -15.812   2.354  1.00  0.00     0.152 A 
HETATM    2  N   UNL     1      42.071 -16.108   1.035  1.00  0.00    -0.044 N 
HETATM    3  N   UNL     1      42.733 -17.297   0.906  1.00  0.00    -0.148 NA
HETATM    4  C   UNL     1      42.850 -17.735   2.167  1.00  0.00     0.115 A 
HETATM    5  C   UNL     1      42.292 -16.839   3.101  1.00  0.00     0.087 A 
ENDROOT
BRANCH   1   6
HETATM    6  N   UNL     1      41.030 -14.689   2.702  1.00  0.00    -0.307 N 
HETATM    7  C   UNL     1      39.678 -14.561   2.469  1.00  0.00     0.261 C 
HETATM    8  O   UNL     1      38.891 -15.436   2.135  1.00  0.00    -0.267 OA
HETATM    9  H   UNL     1      41.543 -13.896   3.090  1.00  0.00     0.170 HD
BRANCH   7  10
HETATM   10  C   UNL     1      39.189 -13.179   2.684  1.00  0.00     0.076 A 
HETATM   11  C   UNL     1      39.179 -12.694   4.007  1.00  0.00     0.085 A 
HETATM   12  C   UNL     1      38.701 -11.408   4.244  1.00  0.00     0.039 A 
HETATM   13  C   UNL     1      38.231 -10.628   3.184  1.00  0.00     0.015 A 
HETATM   14  C   UNL     1      38.228 -11.110   1.865  1.00  0.00    -0.025 A 
HETATM   15  C   UNL     1      38.720 -12.408   1.591  1.00  0.00    -0.007 A 
HETATM   16  C   UNL     1      37.735 -10.314   0.818  1.00  0.00     0.012 A 
HETATM   17  C   UNL     1      38.701 -12.857   0.250  1.00  0.00     0.013 A 
HETATM   18  C   UNL     1      38.204 -12.055  -0.779  1.00  0.00     0.001 A 
HETATM   19  C   UNL     1      37.720 -10.785  -0.495  1.00  0.00     0.001 A 
BRANCH  11  20
HETATM   20  O   UNL     1      39.625 -13.551   4.977  1.00  0.00    -0.350 OA
BRANCH  20  21
HETATM   21  C   UNL     1      40.313 -13.004   6.098  1.00  0.00     0.171 C 
HETATM   22  C   UNL     1      41.783 -12.908   5.731  1.00  0.00     0.034 C 
ENDBRANCH  20  21
ENDBRANCH  11  20
ENDBRANCH   7  10
ENDBRANCH   1   6
BRANCH   2  23
HETATM   23  C   UNL     1      41.784 -15.340  -0.111  1.00  0.00     0.732 A 
HETATM   24  N   UNL     1      42.065 -14.077  -0.207  1.00  0.00    -0.067 NA
HETATM   25  C   UNL     1      41.751 -13.474  -1.404  1.00  0.00     0.065 A 
HETATM   26  C   UNL     1      41.172 -14.107  -2.441  1.00  0.00     0.036 A 
HETATM   27  C   UNL     1      42.141 -12.015  -1.500  1.00  0.00     0.060 C 
HETATM   28  C   UNL     1      40.830 -13.456  -3.750  1.00  0.00     0.046 C 
HETATM   29  C   UNL     1      40.850 -15.548  -2.287  1.00  0.00     0.268 A 
HETATM   30  C   UNL     1      40.933 -11.930  -3.705  1.00  0.00     0.005 C 
HETATM   31  C   UNL     1      42.170 -11.484  -2.934  1.00  0.00     0.006 C 
HETATM   32  O   UNL     1      40.323 -16.201  -3.180  1.00  0.00    -0.267 OA
HETATM   33  N   UNL     1      41.192 -16.087  -1.088  1.00  0.00    -0.152 N 
HETATM   34  H   UNL     1      41.011 -17.071  -0.918  1.00  0.00     0.188 HD
ENDBRANCH   2  23
BRANCH   4  35
HETATM   35  C   UNL     1      43.483 -19.042   2.511  1.00  0.00     0.105 A 
HETATM   36  O   UNL     1      43.486 -20.140   1.695  1.00  0.00    -0.320 OA
HETATM   37  C   UNL     1      44.167 -21.122   2.340  1.00  0.00     0.142 A 
HETATM   38  C   UNL     1      44.607 -20.679   3.565  1.00  0.00     0.027 A 
HETATM   39  C   UNL     1      44.165 -19.338   3.677  1.00  0.00     0.041 A 
ENDBRANCH   4  35
TORSDOF 6
ENDMDL
MODEL 7
REMARK VINA RESULT:      -8.6      2.086      6.683
REMARK  6 active torsions:
REMARK  status: ('A' for Active; 'I' for Inactive)
REMARK    1  A    between atoms: C_2  and  O_3 
REMARK    2  A    between atoms: O_3  and  C_4 
REMARK    3  A    between atoms: C_5  and  C_6 
REMARK       I    between atoms: C_6  and  N_7 
REMARK    4  A    between atoms: N_7  and  C_8 
REMARK    5  A    between atoms: N_9  and  C_10 
REMARK    6  A    between atoms: C_22  and  C_23 
ROOT
HETATM    1  C   UNL     1      42.779 -15.944   5.687  1.00  0.00     0.152 A 
HETATM    2  N   UNL     1      42.404 -16.305   4.402  1.00  0.00    -0.044 N 
HETATM    3  N   UNL     1      42.745 -17.593   4.099  1.00  0.00    -0.148 NA
HETATM    4  C   UNL     1      43.354 -18.031   5.209  1.00  0.00     0.115 A 
HETATM    5  C   UNL     1      43.426 -17.039   6.210  1.00  0.00     0.087 A 
ENDROOT
BRANCH   1   6
HETATM    6  N   UNL     1      42.466 -14.705   6.222  1.00  0.00    -0.307 N 
HETATM    7  C   UNL     1      43.276 -13.596   6.099  1.00  0.00     0.261 C 
HETATM    8  O   UNL     1      44.244 -13.456   5.363  1.00  0.00    -0.267 OA
HETATM    9  H   UNL     1      41.622 -14.640   6.792  1.00  0.00     0.170 HD
BRANCH   7  10
HETATM   10  C   UNL     1      42.855 -12.480   6.977  1.00  0.00     0.076 A 
HETATM   11  C   UNL     1      41.673 -11.794   6.632  1.00  0.00     0.085 A 
HETATM   12  C   UNL     1      41.265 -10.724   7.423  1.00  0.00     0.039 A 
HETATM   13  C   UNL     1      42.029 -10.338   8.528  1.00  0.00     0.015 A 
HETATM   14  C   UNL     1      43.214 -11.010   8.871  1.00  0.00    -0.025 A 
HETATM   15  C   UNL     1      43.646 -12.110   8.093  1.00  0.00    -0.007 A 
HETATM   16  C   UNL     1      43.974 -10.593   9.975  1.00  0.00     0.012 A 
HETATM   17  C   UNL     1      44.844 -12.761   8.470  1.00  0.00     0.013 A 
HETATM   18  C   UNL     1      45.590 -12.332   9.570  1.00  0.00     0.001 A 
HETATM   19  C   UNL     1      45.156 -11.247  10.321  1.00  0.00     0.001 A 
BRANCH  11  20
HETATM   20  O   UNL     1      41.020 -12.228   5.510  1.00  0.00    -0.350 OA
BRANCH  20  21
HETATM   21  C   UNL     1      40.372 -11.261   4.688  1.00  0.00     0.171 C 
HETATM   22  C   UNL     1      39.003 -11.809   4.329  1.00  0.00     0.034 C 
ENDBRANCH  20  21
ENDBRANCH  11  20
ENDBRANCH   7  10
ENDBRANCH   1   6
BRANCH   2  23
HETATM   23  C   UNL     1      41.749 -15.510   3.440  1.00  0.00     0.732 A 
HETATM   24  N   UNL     1      40.537 -15.737   3.039  1.00  0.00    -0.067 NA
HETATM   25  C   UNL     1      40.026 -14.850   2.117  1.00  0.00     0.065 A 
HETATM   26  C   UNL     1      40.707 -13.802   1.617  1.00  0.00     0.036 A 
HETATM   27  C   UNL     1      38.592 -15.114   1.711  1.00  0.00     0.060 C 
HETATM   28  C   UNL     1      40.155 -12.831   0.615  1.00  0.00     0.046 C 
HETATM   29  C   UNL     1      42.097 -13.585   2.089  1.00  0.00     0.268 A 
HETATM   30  C   UNL     1      38.841 -13.300  -0.014  1.00  0.00     0.005 C 
HETATM   31  C   UNL     1      37.921 -13.920   1.031  1.00  0.00     0.006 C 
HETATM   32  O   UNL     1      42.788 -12.657   1.687  1.00  0.00    -0.267 OA
HETATM   33  N   UNL     1      42.540 -14.487   3.004  1.00  0.00    -0.152 N 
HETATM   34  H   UNL     1      43.479 -14.392   3.378  1.00  0.00     0.188 HD
ENDBRANCH   2  23
BRANCH   4  35
HETATM   35  C   UNL     1      43.866 -19.425   5.352  1.00  0.00     0.105 A 
HETATM   36  O   UNL     1      44.523 -20.114   4.369  1.00  0.00    -0.320 OA
HETATM   37  C   UNL     1      44.844 -21.332   4.874  1.00  0.00     0.142 A 
HETATM   38  C   UNL     1      44.406 -21.447   6.172  1.00  0.00     0.027 A 
HETATM   39  C   UNL     1      43.773 -20.218   6.481  1.00  0.00     0.041 A 
ENDBRANCH   4  35
TORSDOF 6
ENDMDL
MODEL 8
REMARK VINA RESULT:      -8.5      2.191      6.416
REMARK  6 active torsions:
REMARK  status: ('A' for Active; 'I' for Inactive)
REMARK    1  A    between atoms: C_2  and  O_3 
REMARK    2  A    between atoms: O_3  and  C_4 
REMARK    3  A    between atoms: C_5  and  C_6 
REMARK       I    between atoms: C_6  and  N_7 
REMARK    4  A    between atoms: N_7  and  C_8 
REMARK    5  A    between atoms: N_9  and  C_10 
REMARK    6  A    between atoms: C_22  and  C_23 
ROOT
HETATM    1  C   UNL     1      42.570 -15.494   1.750  1.00  0.00     0.152 A 
HETATM    2  N   UNL     1      42.382 -14.282   2.398  1.00  0.00    -0.044 N 
HETATM    3  N   UNL     1      41.772 -13.352   1.603  1.00  0.00    -0.148 NA
HETATM    4  C   UNL     1      41.593 -13.994   0.441  1.00  0.00     0.115 A 
HETATM    5  C   UNL     1      42.096 -15.312   0.472  1.00  0.00     0.087 A 
ENDROOT
BRANCH   1   6
HETATM    6  N   UNL     1      43.106 -16.596   2.396  1.00  0.00    -0.307 N 
HETATM    7  C   UNL     1      42.343 -17.545   3.042  1.00  0.00     0.261 C 
HETATM    8  O   UNL     1      41.131 -17.696   2.983  1.00  0.00    -0.267 OA
HETATM    9  H   UNL     1      44.124 -16.661   2.445  1.00  0.00     0.170 HD
BRANCH   7  10
HETATM   10  C   UNL     1      43.157 -18.463   3.872  1.00  0.00     0.076 A 
HETATM   11  C   UNL     1      43.486 -18.040   5.175  1.00  0.00     0.085 A 
HETATM   12  C   UNL     1      44.272 -18.870   5.970  1.00  0.00     0.039 A 
HETATM   13  C   UNL     1      44.730 -20.092   5.469  1.00  0.00     0.015 A 
HETATM   14  C   UNL     1      44.415 -20.514   4.167  1.00  0.00    -0.025 A 
HETATM   15  C   UNL     1      43.607 -19.697   3.341  1.00  0.00    -0.007 A 
HETATM   16  C   UNL     1      44.901 -21.738   3.679  1.00  0.00     0.012 A 
HETATM   17  C   UNL     1      43.311 -20.157   2.036  1.00  0.00     0.013 A 
HETATM   18  C   UNL     1      43.806 -21.375   1.565  1.00  0.00     0.001 A 
HETATM   19  C   UNL     1      44.601 -22.164   2.385  1.00  0.00     0.001 A 
BRANCH  11  20
HETATM   20  O   UNL     1      43.019 -16.811   5.556  1.00  0.00    -0.350 OA
BRANCH  20  21
HETATM   21  C   UNL     1      42.302 -16.710   6.783  1.00  0.00     0.171 C 
HETATM   22  C   UNL     1      43.323 -16.587   7.901  1.00  0.00     0.034 C 
ENDBRANCH  20  21
ENDBRANCH  11  20
ENDBRANCH   7  10
ENDBRANCH   1   6
BRANCH   2  23
HETATM   23  C   UNL     1      42.746 -13.944   3.717  1.00  0.00     0.732 A 
HETATM   24  N   UNL     1      43.923 -14.178   4.209  1.00  0.00    -0.067 NA
HETATM   25  C   UNL     1      44.133 -13.758   5.504  1.00  0.00     0.065 A 
HETATM   26  C   UNL     1      43.202 -13.150   6.264  1.00  0.00     0.036 A 
HETATM   27  C   UNL     1      45.532 -13.999   6.029  1.00  0.00     0.060 C 
HETATM   28  C   UNL     1      43.427 -12.688   7.674  1.00  0.00     0.046 C 
HETATM   29  C   UNL     1      41.863 -12.915   5.669  1.00  0.00     0.268 A 
HETATM   30  C   UNL     1      44.723 -13.227   8.282  1.00  0.00     0.005 C 
HETATM   31  C   UNL     1      45.866 -13.178   7.275  1.00  0.00     0.006 C 
HETATM   32  O   UNL     1      40.958 -12.369   6.288  1.00  0.00    -0.267 OA
HETATM   33  N   UNL     1      41.721 -13.343   4.387  1.00  0.00    -0.152 N 
HETATM   34  H   UNL     1      40.833 -13.204   3.915  1.00  0.00     0.188 HD
ENDBRANCH   2  23
BRANCH   4  35
HETATM   35  C   UNL     1      40.912 -13.369  -0.730  1.00  0.00     0.105 A 
HETATM   36  O   UNL     1      40.287 -12.152  -0.704  1.00  0.00    -0.320 OA
HETATM   37  C   UNL     1      39.806 -11.917  -1.951  1.00  0.00     0.142 A 
HETATM   38  C   UNL     1      40.109 -12.963  -2.790  1.00  0.00     0.027 A 
HETATM   39  C   UNL     1      40.821 -13.901  -2.003  1.00  0.00     0.041 A 
ENDBRANCH   4  35
TORSDOF 6
ENDMDL
MODEL 9
REMARK VINA RESULT:      -8.4      2.421      7.495
REMARK  6 active torsions:
REMARK  status: ('A' for Active; 'I' for Inactive)
REMARK    1  A    between atoms: C_2  and  O_3 
REMARK    2  A    between atoms: O_3  and  C_4 
REMARK    3  A    between atoms: C_5  and  C_6 
REMARK       I    between atoms: C_6  and  N_7 
REMARK    4  A    between atoms: N_7  and  C_8 
REMARK    5  A    between atoms: N_9  and  C_10 
REMARK    6  A    between atoms: C_22  and  C_23 
ROOT
HETATM    1  C   UNL     1      42.830 -16.241   2.963  1.00  0.00     0.152 A 
HETATM    2  N   UNL     1      42.569 -16.452   1.618  1.00  0.00    -0.044 N 
HETATM    3  N   UNL     1      42.863 -17.727   1.221  1.00  0.00    -0.148 NA
HETATM    4  C   UNL     1      43.327 -18.308   2.335  1.00  0.00     0.115 A 
HETATM    5  C   UNL     1      43.353 -17.423   3.433  1.00  0.00     0.087 A 
ENDROOT
BRANCH   1   6
HETATM    6  N   UNL     1      42.537 -15.039   3.587  1.00  0.00    -0.307 N 
HETATM    7  C   UNL     1      41.394 -14.825   4.328  1.00  0.00     0.261 C 
HETATM    8  O   UNL     1      40.593 -15.661   4.724  1.00  0.00    -0.267 OA
HETATM    9  H   UNL     1      43.176 -14.259   3.427  1.00  0.00     0.170 HD
BRANCH   7  10
HETATM   10  C   UNL     1      41.188 -13.396   4.660  1.00  0.00     0.076 A 
HETATM   11  C   UNL     1      41.945 -12.862   5.721  1.00  0.00     0.085 A 
HETATM   12  C   UNL     1      41.754 -11.529   6.074  1.00  0.00     0.039 A 
HETATM   13  C   UNL     1      40.816 -10.749   5.389  1.00  0.00     0.015 A 
HETATM   14  C   UNL     1      40.051 -11.280   4.338  1.00  0.00    -0.025 A 
HETATM   15  C   UNL     1      40.232 -12.628   3.949  1.00  0.00    -0.007 A 
HETATM   16  C   UNL     1      39.102 -10.483   3.677  1.00  0.00     0.012 A 
HETATM   17  C   UNL     1      39.443 -13.125   2.886  1.00  0.00     0.013 A 
HETATM   18  C   UNL     1      38.502 -12.320   2.241  1.00  0.00     0.001 A 
HETATM   19  C   UNL     1      38.331 -11.001   2.637  1.00  0.00     0.001 A 
BRANCH  11  20
HETATM   20  O   UNL     1      42.807 -13.718   6.350  1.00  0.00    -0.350 OA
BRANCH  20  21
HETATM   21  C   UNL     1      43.874 -13.164   7.115  1.00  0.00     0.171 C 
HETATM   22  C   UNL     1      45.104 -14.020   6.874  1.00  0.00     0.034 C 
ENDBRANCH  20  21
ENDBRANCH  11  20
ENDBRANCH   7  10
ENDBRANCH   1   6
BRANCH   2  23
HETATM   23  C   UNL     1      42.065 -15.527   0.681  1.00  0.00     0.732 A 
HETATM   24  N   UNL     1      42.044 -14.247   0.889  1.00  0.00    -0.067 NA
HETATM   25  C   UNL     1      41.550 -13.473  -0.136  1.00  0.00     0.065 A 
HETATM   26  C   UNL     1      41.088 -13.965  -1.301  1.00  0.00     0.036 A 
HETATM   27  C   UNL     1      41.590 -11.982   0.119  1.00  0.00     0.060 C 
HETATM   28  C   UNL     1      40.551 -13.126  -2.424  1.00  0.00     0.046 C 
HETATM   29  C   UNL     1      41.114 -15.436  -1.495  1.00  0.00     0.268 A 
HETATM   30  C   UNL     1      40.302 -11.672  -2.020  1.00  0.00     0.005 C 
HETATM   31  C   UNL     1      41.435 -11.141  -1.149  1.00  0.00     0.006 C 
HETATM   32  O   UNL     1      40.713 -15.969  -2.523  1.00  0.00    -0.267 OA
HETATM   33  N   UNL     1      41.620 -16.144  -0.452  1.00  0.00    -0.152 N 
HETATM   34  H   UNL     1      41.678 -17.155  -0.521  1.00  0.00     0.188 HD
ENDBRANCH   2  23
BRANCH   4  35
HETATM   35  C   UNL     1      43.738 -19.742   2.386  1.00  0.00     0.105 A 
HETATM   36  O   UNL     1      43.377 -20.685   1.463  1.00  0.00    -0.320 OA
HETATM   37  C   UNL     1      43.952 -21.857   1.834  1.00  0.00     0.142 A 
HETATM   38  C   UNL     1      44.683 -21.691   2.987  1.00  0.00     0.027 A 
HETATM   39  C   UNL     1      44.544 -20.327   3.345  1.00  0.00     0.041 A 
ENDBRANCH   4  35
TORSDOF 6
ENDMDL
MODEL 10
REMARK VINA RESULT:      -8.4      2.841      6.789
REMARK  6 active torsions:
REMARK  status: ('A' for Active; 'I' for Inactive)
REMARK    1  A    between atoms: C_2  and  O_3 
REMARK    2  A    between atoms: O_3  and  C_4 
REMARK    3  A    between atoms: C_5  and  C_6 
REMARK       I    between atoms: C_6  and  N_7 
REMARK    4  A    between atoms: N_7  and  C_8 
REMARK    5  A    between atoms: N_9  and  C_10 
REMARK    6  A    between atoms: C_22  and  C_23 
ROOT
HETATM    1  C   UNL     1      41.640 -16.258   1.771  1.00  0.00     0.152 A 
HETATM    2  N   UNL     1      41.225 -14.946   1.942  1.00  0.00    -0.044 N 
HETATM    3  N   UNL     1      40.724 -14.402   0.792  1.00  0.00    -0.148 NA
HETATM    4  C   UNL     1      40.845 -15.388  -0.106  1.00  0.00     0.115 A 
HETATM    5  C   UNL     1      41.433 -16.547   0.443  1.00  0.00     0.087 A 
ENDROOT
BRANCH   1   6
HETATM    6  N   UNL     1      42.115 -17.020   2.827  1.00  0.00    -0.307 N 
HETATM    7  C   UNL     1      43.449 -17.109   3.161  1.00  0.00     0.261 C 
HETATM    8  O   UNL     1      44.369 -16.412   2.756  1.00  0.00    -0.267 OA
HETATM    9  H   UNL     1      41.438 -17.593   3.332  1.00  0.00     0.170 HD
BRANCH   7  10
HETATM   10  C   UNL     1      43.721 -18.185   4.143  1.00  0.00     0.076 A 
HETATM   11  C   UNL     1      43.991 -19.472   3.637  1.00  0.00     0.085 A 
HETATM   12  C   UNL     1      44.224 -20.508   4.536  1.00  0.00     0.039 A 
HETATM   13  C   UNL     1      44.177 -20.267   5.912  1.00  0.00     0.015 A 
HETATM   14  C   UNL     1      43.898 -18.989   6.423  1.00  0.00    -0.025 A 
HETATM   15  C   UNL     1      43.669 -17.913   5.533  1.00  0.00    -0.007 A 
HETATM   16  C   UNL     1      43.838 -18.775   7.809  1.00  0.00     0.012 A 
HETATM   17  C   UNL     1      43.392 -16.641   6.086  1.00  0.00     0.013 A 
HETATM   18  C   UNL     1      43.333 -16.445   7.467  1.00  0.00     0.001 A 
HETATM   19  C   UNL     1      43.554 -17.512   8.328  1.00  0.00     0.001 A 
BRANCH  11  20
HETATM   20  O   UNL     1      43.977 -19.610   2.275  1.00  0.00    -0.350 OA
BRANCH  20  21
HETATM   21  C   UNL     1      44.476 -20.819   1.712  1.00  0.00     0.171 C 
HETATM   22  C   UNL     1      43.292 -21.745   1.493  1.00  0.00     0.034 C 
ENDBRANCH  20  21
ENDBRANCH  11  20
ENDBRANCH   7  10
ENDBRANCH   1   6
BRANCH   2  23
HETATM   23  C   UNL     1      41.275 -14.171   3.118  1.00  0.00     0.732 A 
HETATM   24  N   UNL     1      40.221 -13.673   3.686  1.00  0.00    -0.067 NA
HETATM   25  C   UNL     1      40.433 -12.966   4.848  1.00  0.00     0.065 A 
HETATM   26  C   UNL     1      41.644 -12.761   5.399  1.00  0.00     0.036 A 
HETATM   27  C   UNL     1      39.177 -12.445   5.511  1.00  0.00     0.060 C 
HETATM   28  C   UNL     1      41.881 -11.995   6.667  1.00  0.00     0.046 C 
HETATM   29  C   UNL     1      42.828 -13.333   4.712  1.00  0.00     0.268 A 
HETATM   30  C   UNL     1      40.651 -11.213   7.134  1.00  0.00     0.005 C 
HETATM   31  C   UNL     1      39.380 -12.038   6.971  1.00  0.00     0.006 C 
HETATM   32  O   UNL     1      43.967 -13.196   5.143  1.00  0.00    -0.267 OA
HETATM   33  N   UNL     1      42.553 -14.027   3.575  1.00  0.00    -0.152 N 
HETATM   34  H   UNL     1      43.316 -14.455   3.061  1.00  0.00     0.188 HD
ENDBRANCH   2  23
BRANCH   4  35
HETATM   35  C   UNL     1      40.379 -15.255  -1.517  1.00  0.00     0.105 A 
HETATM   36  O   UNL     1      39.385 -14.409  -1.929  1.00  0.00    -0.320 OA
HETATM   37  C   UNL     1      39.257 -14.557  -3.272  1.00  0.00     0.142 A 
HETATM   38  C   UNL     1      40.153 -15.488  -3.741  1.00  0.00     0.027 A 
HETATM   39  C   UNL     1      40.876 -15.941  -2.610  1.00  0.00     0.041 A 
ENDBRANCH   4  35
TORSDOF 6
ENDMDL
