MODEL 1
REMARK VINA RESULT:      -8.6      0.000      0.000
REMARK  10 active torsions:
REMARK  status: ('A' for Active; 'I' for Inactive)
REMARK    1  A    between atoms: C_2  and  C_3 
REMARK    2  A    between atoms: N_4  and  N_5 
REMARK       I    between atoms: N_5  and  C_6 
REMARK    3  A    between atoms: C_6  and  C_7 
REMARK    4  A    between atoms: N_10  and  C_11 
REMARK    5  A    between atoms: C_15  and  N_16 
REMARK    6  A    between atoms: C_17  and  C_18 
REMARK    7  A    between atoms: C_18  and  N_19 
REMARK    8  A    between atoms: C_29  and  O_30 
REMARK    9  A    between atoms: O_30  and  C_31 
REMARK   10  A    between atoms: C_31  and  C_32 
ROOT
HETATM    1  N   UNL     1      39.051 -11.492   3.031  1.00  0.00    -0.242 N 
HETATM    2  C   UNL     1      38.470 -11.287   1.792  1.00  0.00     0.294 C 
HETATM    3  O   UNL     1      37.932 -10.208   1.534  1.00  0.00    -0.264 OA
HETATM    4  H   UNL     1      39.032 -10.717   3.686  1.00  0.00     0.192 HD
ENDROOT
BRANCH   2   5
HETATM    5  C   UNL     1      38.536 -12.341   0.772  1.00  0.00     0.176 A 
HETATM    6  N   UNL     1      37.554 -13.255   0.516  1.00  0.00    -0.124 NA
HETATM    7  N   UNL     1      37.961 -14.060  -0.446  1.00  0.00    -0.058 NA
HETATM    8  N   UNL     1      39.190 -13.672  -0.859  1.00  0.00    -0.191 N 
HETATM    9  C   UNL     1      39.598 -12.580  -0.097  1.00  0.00     0.102 A 
BRANCH   8  10
HETATM   10  C   UNL     1      39.853 -14.306  -1.938  1.00  0.00     0.229 A 
HETATM   11  N   UNL     1      39.444 -14.101  -3.194  1.00  0.00    -0.081 NA
HETATM   12  O   UNL     1      40.317 -14.884  -3.957  1.00  0.00    -0.103 OA
HETATM   13  N   UNL     1      41.210 -15.571  -3.149  1.00  0.00    -0.083 NA
HETATM   14  C   UNL     1      40.924 -15.215  -1.899  1.00  0.00     0.201 A 
BRANCH  14  15
HETATM   15  N   UNL     1      41.566 -15.667  -0.811  1.00  0.00    -0.379 N 
HETATM   16  H   UNL     1      41.377 -16.595  -0.442  1.00  0.00     0.158 HD
HETATM   17  H   UNL     1      42.297 -15.151  -0.325  1.00  0.00     0.158 HD
ENDBRANCH  14  15
ENDBRANCH   8  10
BRANCH   9  18
HETATM   18  C   UNL     1      40.928 -11.931  -0.184  1.00  0.00     0.296 C 
BRANCH  18  19
HETATM   19  N   UNL     1      41.161 -11.131  -1.444  1.00  0.00    -0.066 N 
HETATM   20  H   UNL     1      40.344 -11.315  -2.047  1.00  0.00     0.280 HD
HETATM   21  C   UNL     1      41.261  -9.642  -1.208  1.00  0.00     0.235 C 
HETATM   22  C   UNL     1      41.334  -8.928  -2.552  1.00  0.00     0.028 C 
HETATM   23  C   UNL     1      42.491  -9.438  -3.404  1.00  0.00     0.003 C 
HETATM   24  C   UNL     1      42.443 -10.955  -3.553  1.00  0.00     0.028 C 
HETATM   25  C   UNL     1      42.361 -11.652  -2.204  1.00  0.00     0.235 C 
ENDBRANCH  18  19
ENDBRANCH   9  18
ENDBRANCH   2   5
BRANCH   1  26
HETATM   26  N   UNL     1      39.575 -12.682   3.416  1.00  0.00    -0.184 NA
HETATM   27  C   UNL     1      40.512 -12.643   4.308  1.00  0.00     0.150 C 
BRANCH  27  28
HETATM   28  C   UNL     1      41.117 -13.889   4.818  1.00  0.00    -0.017 A 
HETATM   29  C   UNL     1      42.410 -13.864   5.338  1.00  0.00     0.016 A 
HETATM   30  C   UNL     1      42.989 -15.053   5.795  1.00  0.00     0.037 A 
HETATM   31  C   UNL     1      42.280 -16.260   5.752  1.00  0.00     0.069 A 
HETATM   32  C   UNL     1      40.976 -16.269   5.256  1.00  0.00     0.037 A 
HETATM   33  C   UNL     1      40.399 -15.088   4.778  1.00  0.00     0.016 A 
BRANCH  31  34
HETATM   34  O   UNL     1      42.973 -17.345   6.211  1.00  0.00    -0.347 OA
BRANCH  34  35
HETATM   35  C   UNL     1      44.314 -17.507   5.752  1.00  0.00     0.216 C 
BRANCH  35  36
HETATM   36  C   UNL     1      44.335 -18.618   4.729  1.00  0.00    -0.012 A 
HETATM   37  C   UNL     1      44.051 -18.389   3.371  1.00  0.00     0.044 A 
HETATM   38 CL   UNL     1      43.649 -16.817   2.776  1.00  0.00    -0.084 Cl
HETATM   39  C   UNL     1      44.078 -19.439   2.449  1.00  0.00     0.048 A 
HETATM   40  C   UNL     1      44.403 -20.723   2.876  1.00  0.00     0.035 A 
HETATM   41 CL   UNL     1      44.432 -22.017   1.742  1.00  0.00    -0.084 Cl
HETATM   42  C   UNL     1      44.707 -20.968   4.212  1.00  0.00     0.024 A 
HETATM   43  C   UNL     1      44.678 -19.920   5.135  1.00  0.00     0.013 A 
ENDBRANCH  35  36
ENDBRANCH  34  35
ENDBRANCH  31  34
ENDBRANCH  27  28
ENDBRANCH   1  26
TORSDOF 10
ENDMDL
MODEL 2
REMARK VINA RESULT:      -8.6      1.712      2.917
REMARK  10 active torsions:
REMARK  status: ('A' for Active; 'I' for Inactive)
REMARK    1  A    between atoms: C_2  and  C_3 
REMARK    2  A    between atoms: N_4  and  N_5 
REMARK       I    between atoms: N_5  and  C_6 
REMARK    3  A    between atoms: C_6  and  C_7 
REMARK    4  A    between atoms: N_10  and  C_11 
REMARK    5  A    between atoms: C_15  and  N_16 
REMARK    6  A    between atoms: C_17  and  C_18 
REMARK    7  A    between atoms: C_18  and  N_19 
REMARK    8  A    between atoms: C_29  and  O_30 
REMARK    9  A    between atoms: O_30  and  C_31 
REMARK   10  A    between atoms: C_31  and  C_32 
ROOT
HETATM    1  N   UNL     1      41.073 -10.799   3.225  1.00  0.00    -0.242 N 
HETATM    2  C   UNL     1      40.898 -10.381   1.918  1.00  0.00     0.294 C 
HETATM    3  O   UNL     1      40.352  -9.301   1.684  1.00  0.00    -0.264 OA
HETATM    4  H   UNL     1      40.761 -10.171   3.959  1.00  0.00     0.192 HD
ENDROOT
BRANCH   2   5
HETATM    5  C   UNL     1      41.402 -11.207   0.814  1.00  0.00     0.176 A 
HETATM    6  N   UNL     1      42.626 -11.075   0.223  1.00  0.00    -0.124 NA
HETATM    7  N   UNL     1      42.731 -11.965  -0.745  1.00  0.00    -0.058 NA
HETATM    8  N   UNL     1      41.605 -12.714  -0.783  1.00  0.00    -0.191 N 
HETATM    9  C   UNL     1      40.724 -12.254   0.193  1.00  0.00     0.102 A 
BRANCH   8  10
HETATM   10  C   UNL     1      41.460 -13.805  -1.675  1.00  0.00     0.229 A 
HETATM   11  N   UNL     1      41.120 -15.012  -1.212  1.00  0.00    -0.081 NA
HETATM   12  O   UNL     1      41.085 -15.808  -2.362  1.00  0.00    -0.103 OA
HETATM   13  N   UNL     1      41.436 -15.078  -3.488  1.00  0.00    -0.083 NA
HETATM   14  C   UNL     1      41.669 -13.838  -3.064  1.00  0.00     0.201 A 
BRANCH  14  15
HETATM   15  N   UNL     1      42.040 -12.819  -3.853  1.00  0.00    -0.379 N 
HETATM   16  H   UNL     1      42.695 -12.962  -4.617  1.00  0.00     0.158 HD
HETATM   17  H   UNL     1      41.668 -11.874  -3.777  1.00  0.00     0.158 HD
ENDBRANCH  14  15
ENDBRANCH   8  10
BRANCH   9  18
HETATM   18  C   UNL     1      39.344 -12.755   0.398  1.00  0.00     0.296 C 
BRANCH  18  19
HETATM   19  N   UNL     1      38.256 -11.851  -0.131  1.00  0.00    -0.066 N 
HETATM   20  H   UNL     1      38.499 -10.901   0.193  1.00  0.00     0.280 HD
HETATM   21  C   UNL     1      38.160 -11.835  -1.639  1.00  0.00     0.235 C 
HETATM   22  C   UNL     1      37.148 -10.778  -2.063  1.00  0.00     0.028 C 
HETATM   23  C   UNL     1      35.785 -11.006  -1.418  1.00  0.00     0.003 C 
HETATM   24  C   UNL     1      35.902 -11.124   0.097  1.00  0.00     0.028 C 
HETATM   25  C   UNL     1      36.922 -12.176   0.504  1.00  0.00     0.235 C 
ENDBRANCH  18  19
ENDBRANCH   9  18
ENDBRANCH   2   5
BRANCH   1  26
HETATM   26  N   UNL     1      41.578 -12.014   3.553  1.00  0.00    -0.184 NA
HETATM   27  C   UNL     1      41.154 -12.541   4.656  1.00  0.00     0.150 C 
BRANCH  27  28
HETATM   28  C   UNL     1      41.617 -13.878   5.078  1.00  0.00    -0.017 A 
HETATM   29  C   UNL     1      42.944 -14.057   5.468  1.00  0.00     0.016 A 
HETATM   30  C   UNL     1      43.383 -15.331   5.840  1.00  0.00     0.037 A 
HETATM   31  C   UNL     1      42.505 -16.422   5.843  1.00  0.00     0.069 A 
HETATM   32  C   UNL     1      41.173 -16.227   5.479  1.00  0.00     0.037 A 
HETATM   33  C   UNL     1      40.732 -14.960   5.084  1.00  0.00     0.016 A 
BRANCH  31  34
HETATM   34  O   UNL     1      43.074 -17.610   6.208  1.00  0.00    -0.347 OA
BRANCH  34  35
HETATM   35  C   UNL     1      44.402 -17.867   5.757  1.00  0.00     0.216 C 
BRANCH  35  36
HETATM   36  C   UNL     1      44.340 -18.902   4.659  1.00  0.00    -0.012 A 
HETATM   37  C   UNL     1      44.035 -18.563   3.329  1.00  0.00     0.044 A 
HETATM   38 CL   UNL     1      43.703 -16.935   2.856  1.00  0.00    -0.084 Cl
HETATM   39  C   UNL     1      43.984 -19.546   2.336  1.00  0.00     0.048 A 
HETATM   40  C   UNL     1      44.251 -20.872   2.662  1.00  0.00     0.035 A 
HETATM   41 CL   UNL     1      44.184 -22.081   1.442  1.00  0.00    -0.084 Cl
HETATM   42  C   UNL     1      44.573 -21.225   3.970  1.00  0.00     0.024 A 
HETATM   43  C   UNL     1      44.623 -20.245   4.963  1.00  0.00     0.013 A 
ENDBRANCH  35  36
ENDBRANCH  34  35
ENDBRANCH  31  34
ENDBRANCH  27  28
ENDBRANCH   1  26
TORSDOF 10
ENDMDL
MODEL 3
REMARK VINA RESULT:      -8.5      1.858      3.426
REMARK  10 active torsions:
REMARK  status: ('A' for Active; 'I' for Inactive)
REMARK    1  A    between atoms: C_2  and  C_3 
REMARK    2  A    between atoms: N_4  and  N_5 
REMARK       I    between atoms: N_5  and  C_6 
REMARK    3  A    between atoms: C_6  and  C_7 
REMARK    4  A    between atoms: N_10  and  C_11 
REMARK    5  A    between atoms: C_15  and  N_16 
REMARK    6  A    between atoms: C_17  and  C_18 
REMARK    7  A    between atoms: C_18  and  N_19 
REMARK    8  A    between atoms: C_29  and  O_30 
REMARK    9  A    between atoms: O_30  and  C_31 
REMARK   10  A    between atoms: C_31  and  C_32 
ROOT
HETATM    1  N   UNL     1      39.392 -10.397   2.007  1.00  0.00    -0.242 N 
HETATM    2  C   UNL     1      38.927 -10.166   0.725  1.00  0.00     0.294 C 
HETATM    3  O   UNL     1      38.006  -9.368   0.536  1.00  0.00    -0.264 OA
HETATM    4  H   UNL     1      38.964  -9.866   2.758  1.00  0.00     0.192 HD
ENDROOT
BRANCH   2   5
HETATM    5  C   UNL     1      39.561 -10.842  -0.414  1.00  0.00     0.176 A 
HETATM    6  N   UNL     1      40.400 -10.252  -1.315  1.00  0.00    -0.124 NA
HETATM    7  N   UNL     1      40.761 -11.149  -2.213  1.00  0.00    -0.058 NA
HETATM    8  N   UNL     1      40.200 -12.340  -1.901  1.00  0.00    -0.191 N 
HETATM    9  C   UNL     1      39.414 -12.183  -0.761  1.00  0.00     0.102 A 
BRANCH   8  10
HETATM   10  C   UNL     1      40.469 -13.514  -2.646  1.00  0.00     0.229 A 
HETATM   11  N   UNL     1      39.466 -14.307  -3.038  1.00  0.00    -0.081 NA
HETATM   12  O   UNL     1      40.112 -15.342  -3.722  1.00  0.00    -0.103 OA
HETATM   13  N   UNL     1      41.488 -15.174  -3.700  1.00  0.00    -0.083 NA
HETATM   14  C   UNL     1      41.711 -14.044  -3.034  1.00  0.00     0.201 A 
BRANCH  14  15
HETATM   15  N   UNL     1      42.925 -13.528  -2.790  1.00  0.00    -0.379 N 
HETATM   16  H   UNL     1      43.423 -13.747  -1.932  1.00  0.00     0.158 HD
HETATM   17  H   UNL     1      43.436 -12.940  -3.446  1.00  0.00     0.158 HD
ENDBRANCH  14  15
ENDBRANCH   8  10
BRANCH   9  18
HETATM   18  C   UNL     1      38.561 -13.238  -0.164  1.00  0.00     0.296 C 
BRANCH  18  19
HETATM   19  N   UNL     1      39.309 -14.455   0.327  1.00  0.00    -0.066 N 
HETATM   20  H   UNL     1      39.084 -15.210  -0.340  1.00  0.00     0.280 HD
HETATM   21  C   UNL     1      40.809 -14.273   0.362  1.00  0.00     0.235 C 
HETATM   22  C   UNL     1      41.464 -15.602   0.715  1.00  0.00     0.028 C 
HETATM   23  C   UNL     1      40.939 -16.162   2.032  1.00  0.00     0.003 C 
HETATM   24  C   UNL     1      39.417 -16.248   2.029  1.00  0.00     0.028 C 
HETATM   25  C   UNL     1      38.778 -14.917   1.666  1.00  0.00     0.235 C 
ENDBRANCH  18  19
ENDBRANCH   9  18
ENDBRANCH   2   5
BRANCH   1  26
HETATM   26  N   UNL     1      40.334 -11.328   2.297  1.00  0.00    -0.184 NA
HETATM   27  C   UNL     1      40.285 -11.856   3.478  1.00  0.00     0.150 C 
BRANCH  27  28
HETATM   28  C   UNL     1      41.245 -12.906   3.872  1.00  0.00    -0.017 A 
HETATM   29  C   UNL     1      40.899 -13.815   4.871  1.00  0.00     0.016 A 
HETATM   30  C   UNL     1      41.821 -14.792   5.260  1.00  0.00     0.037 A 
HETATM   31  C   UNL     1      43.078 -14.877   4.647  1.00  0.00     0.069 A 
HETATM   32  C   UNL     1      43.403 -13.981   3.629  1.00  0.00     0.037 A 
HETATM   33  C   UNL     1      42.493 -12.989   3.250  1.00  0.00     0.016 A 
BRANCH  31  34
HETATM   34  O   UNL     1      43.886 -15.864   5.139  1.00  0.00    -0.347 OA
BRANCH  34  35
HETATM   35  C   UNL     1      43.254 -17.039   5.639  1.00  0.00     0.216 C 
BRANCH  35  36
HETATM   36  C   UNL     1      43.644 -18.201   4.757  1.00  0.00    -0.012 A 
HETATM   37  C   UNL     1      43.993 -19.457   5.285  1.00  0.00     0.044 A 
HETATM   38 CL   UNL     1      44.005 -19.759   6.987  1.00  0.00    -0.084 Cl
HETATM   39  C   UNL     1      44.350 -20.512   4.441  1.00  0.00     0.048 A 
HETATM   40  C   UNL     1      44.349 -20.324   3.062  1.00  0.00     0.035 A 
HETATM   41 CL   UNL     1      44.795 -21.621   2.024  1.00  0.00    -0.084 Cl
HETATM   42  C   UNL     1      43.989 -19.094   2.518  1.00  0.00     0.024 A 
HETATM   43  C   UNL     1      43.633 -18.039   3.360  1.00  0.00     0.013 A 
ENDBRANCH  35  36
ENDBRANCH  34  35
ENDBRANCH  31  34
ENDBRANCH  27  28
ENDBRANCH   1  26
TORSDOF 10
ENDMDL
MODEL 4
REMARK VINA RESULT:      -8.4      2.249      4.022
REMARK  10 active torsions:
REMARK  status: ('A' for Active; 'I' for Inactive)
REMARK    1  A    between atoms: C_2  and  C_3 
REMARK    2  A    between atoms: N_4  and  N_5 
REMARK       I    between atoms: N_5  and  C_6 
REMARK    3  A    between atoms: C_6  and  C_7 
REMARK    4  A    between atoms: N_10  and  C_11 
REMARK    5  A    between atoms: C_15  and  N_16 
REMARK    6  A    between atoms: C_17  and  C_18 
REMARK    7  A    between atoms: C_18  and  N_19 
REMARK    8  A    between atoms: C_29  and  O_30 
REMARK    9  A    between atoms: O_30  and  C_31 
REMARK   10  A    between atoms: C_31  and  C_32 
ROOT
HETATM    1  N   UNL     1      38.430 -11.582   4.062  1.00  0.00    -0.242 N 
HETATM    2  C   UNL     1      38.288 -10.553   3.148  1.00  0.00     0.294 C 
HETATM    3  O   UNL     1      37.223  -9.935   3.075  1.00  0.00    -0.264 OA
HETATM    4  H   UNL     1      37.641 -11.775   4.670  1.00  0.00     0.192 HD
ENDROOT
BRANCH   2   5
HETATM    5  C   UNL     1      39.421 -10.171   2.296  1.00  0.00     0.176 A 
HETATM    6  N   UNL     1      40.157  -9.029   2.426  1.00  0.00    -0.124 NA
HETATM    7  N   UNL     1      41.077  -9.004   1.481  1.00  0.00    -0.058 NA
HETATM    8  N   UNL     1      40.986 -10.134   0.743  1.00  0.00    -0.191 N 
HETATM    9  C   UNL     1      39.930 -10.904   1.227  1.00  0.00     0.102 A 
BRANCH   8  10
HETATM   10  C   UNL     1      41.896 -10.423  -0.302  1.00  0.00     0.229 A 
HETATM   11  N   UNL     1      43.111 -10.907  -0.022  1.00  0.00    -0.081 NA
HETATM   12  O   UNL     1      43.706 -11.052  -1.280  1.00  0.00    -0.103 OA
HETATM   13  N   UNL     1      42.857 -10.623  -2.289  1.00  0.00    -0.083 NA
HETATM   14  C   UNL     1      41.736 -10.232  -1.685  1.00  0.00     0.201 A 
BRANCH  14  15
HETATM   15  N   UNL     1      40.659  -9.744  -2.318  1.00  0.00    -0.379 N 
HETATM   16  H   UNL     1      40.617  -8.768  -2.598  1.00  0.00     0.158 HD
HETATM   17  H   UNL     1      39.857 -10.307  -2.596  1.00  0.00     0.158 HD
ENDBRANCH  14  15
ENDBRANCH   8  10
BRANCH   9  18
HETATM   18  C   UNL     1      39.452 -12.169   0.620  1.00  0.00     0.296 C 
BRANCH  18  19
HETATM   19  N   UNL     1      39.933 -13.424   1.310  1.00  0.00    -0.066 N 
HETATM   20  H   UNL     1      40.130 -13.150   2.285  1.00  0.00     0.280 HD
HETATM   21  C   UNL     1      38.914 -14.541   1.319  1.00  0.00     0.235 C 
HETATM   22  C   UNL     1      39.441 -15.688   2.171  1.00  0.00     0.028 C 
HETATM   23  C   UNL     1      40.801 -16.177   1.688  1.00  0.00     0.003 C 
HETATM   24  C   UNL     1      41.797 -15.028   1.582  1.00  0.00     0.028 C 
HETATM   25  C   UNL     1      41.254 -13.887   0.736  1.00  0.00     0.235 C 
ENDBRANCH  18  19
ENDBRANCH   9  18
ENDBRANCH   2   5
BRANCH   1  26
HETATM   26  N   UNL     1      39.536 -12.363   4.132  1.00  0.00    -0.184 NA
HETATM   27  C   UNL     1      39.626 -13.154   5.153  1.00  0.00     0.150 C 
BRANCH  27  28
HETATM   28  C   UNL     1      40.775 -14.070   5.295  1.00  0.00    -0.017 A 
HETATM   29  C   UNL     1      40.566 -15.371   5.751  1.00  0.00     0.016 A 
HETATM   30  C   UNL     1      41.661 -16.227   5.910  1.00  0.00     0.037 A 
HETATM   31  C   UNL     1      42.957 -15.798   5.601  1.00  0.00     0.069 A 
HETATM   32  C   UNL     1      43.153 -14.504   5.119  1.00  0.00     0.037 A 
HETATM   33  C   UNL     1      42.065 -13.637   4.978  1.00  0.00     0.016 A 
BRANCH  31  34
HETATM   34  O   UNL     1      43.933 -16.729   5.824  1.00  0.00    -0.347 OA
BRANCH  34  35
HETATM   35  C   UNL     1      43.517 -18.026   6.244  1.00  0.00     0.216 C 
BRANCH  35  36
HETATM   36  C   UNL     1      43.844 -19.010   5.146  1.00  0.00    -0.012 A 
HETATM   37  C   UNL     1      44.055 -20.376   5.404  1.00  0.00     0.044 A 
HETATM   38 CL   UNL     1      43.961 -21.027   7.002  1.00  0.00    -0.084 Cl
HETATM   39  C   UNL     1      44.358 -21.261   4.365  1.00  0.00     0.048 A 
HETATM   40  C   UNL     1      44.439 -20.789   3.059  1.00  0.00     0.035 A 
HETATM   41 CL   UNL     1      44.816 -21.877   1.781  1.00  0.00    -0.084 Cl
HETATM   42  C   UNL     1      44.214 -19.444   2.779  1.00  0.00     0.024 A 
HETATM   43  C   UNL     1      43.913 -18.559   3.816  1.00  0.00     0.013 A 
ENDBRANCH  35  36
ENDBRANCH  34  35
ENDBRANCH  31  34
ENDBRANCH  27  28
ENDBRANCH   1  26
TORSDOF 10
ENDMDL
MODEL 5
REMARK VINA RESULT:      -8.4      2.704      4.224
REMARK  10 active torsions:
REMARK  status: ('A' for Active; 'I' for Inactive)
REMARK    1  A    between atoms: C_2  and  C_3 
REMARK    2  A    between atoms: N_4  and  N_5 
REMARK       I    between atoms: N_5  and  C_6 
REMARK    3  A    between atoms: C_6  and  C_7 
REMARK    4  A    between atoms: N_10  and  C_11 
REMARK    5  A    between atoms: C_15  and  N_16 
REMARK    6  A    between atoms: C_17  and  C_18 
REMARK    7  A    between atoms: C_18  and  N_19 
REMARK    8  A    between atoms: C_29  and  O_30 
REMARK    9  A    between atoms: O_30  and  C_31 
REMARK   10  A    between atoms: C_31  and  C_32 
ROOT
HETATM    1  N   UNL     1      37.220 -13.165   0.861  1.00  0.00    -0.242 N 
HETATM    2  C   UNL     1      37.380 -11.799   1.014  1.00  0.00     0.294 C 
HETATM    3  O   UNL     1      36.391 -11.073   1.143  1.00  0.00    -0.264 OA
HETATM    4  H   UNL     1      36.273 -13.528   0.887  1.00  0.00     0.192 HD
ENDROOT
BRANCH   2   5
HETATM    5  C   UNL     1      38.729 -11.223   1.067  1.00  0.00     0.176 A 
HETATM    6  N   UNL     1      39.364 -10.800   2.199  1.00  0.00    -0.124 NA
HETATM    7  N   UNL     1      40.548 -10.321   1.871  1.00  0.00    -0.058 NA
HETATM    8  N   UNL     1      40.725 -10.451   0.536  1.00  0.00    -0.191 N 
HETATM    9  C   UNL     1      39.578 -11.016  -0.018  1.00  0.00     0.102 A 
BRANCH   8  10
HETATM   10  C   UNL     1      41.939 -10.090  -0.098  1.00  0.00     0.229 A 
HETATM   11  N   UNL     1      42.918 -10.989  -0.239  1.00  0.00    -0.081 NA
HETATM   12  O   UNL     1      43.931 -10.275  -0.887  1.00  0.00    -0.103 OA
HETATM   13  N   UNL     1      43.560  -8.955  -1.093  1.00  0.00    -0.083 NA
HETATM   14  C   UNL     1      42.327  -8.838  -0.605  1.00  0.00     0.201 A 
BRANCH  14  15
HETATM   15  N   UNL     1      41.608  -7.707  -0.610  1.00  0.00    -0.379 N 
HETATM   16  H   UNL     1      41.247  -7.314   0.255  1.00  0.00     0.158 HD
HETATM   17  H   UNL     1      41.421  -7.153  -1.444  1.00  0.00     0.158 HD
ENDBRANCH  14  15
ENDBRANCH   8  10
BRANCH   9  18
HETATM   18  C   UNL     1      39.348 -11.227  -1.467  1.00  0.00     0.296 C 
BRANCH  18  19
HETATM   19  N   UNL     1      39.439 -12.666  -1.919  1.00  0.00    -0.066 N 
HETATM   20  H   UNL     1      39.383 -13.234  -1.059  1.00  0.00     0.280 HD
HETATM   21  C   UNL     1      38.320 -13.082  -2.846  1.00  0.00     0.235 C 
HETATM   22  C   UNL     1      38.420 -14.580  -3.107  1.00  0.00     0.028 C 
HETATM   23  C   UNL     1      39.784 -14.968  -3.667  1.00  0.00     0.003 C 
HETATM   24  C   UNL     1      40.914 -14.456  -2.781  1.00  0.00     0.028 C 
HETATM   25  C   UNL     1      40.794 -12.962  -2.522  1.00  0.00     0.235 C 
ENDBRANCH  18  19
ENDBRANCH   9  18
ENDBRANCH   2   5
BRANCH   1  26
HETATM   26  N   UNL     1      38.254 -14.009   0.620  1.00  0.00    -0.184 NA
HETATM   27  C   UNL     1      38.864 -14.491   1.655  1.00  0.00     0.150 C 
BRANCH  27  28
HETATM   28  C   UNL     1      39.977 -15.448   1.494  1.00  0.00    -0.017 A 
HETATM   29  C   UNL     1      41.117 -15.067   0.788  1.00  0.00     0.016 A 
HETATM   30  C   UNL     1      42.156 -15.987   0.615  1.00  0.00     0.037 A 
HETATM   31  C   UNL     1      42.072 -17.275   1.156  1.00  0.00     0.069 A 
HETATM   32  C   UNL     1      40.940 -17.637   1.886  1.00  0.00     0.037 A 
HETATM   33  C   UNL     1      39.888 -16.730   2.044  1.00  0.00     0.016 A 
BRANCH  31  34
HETATM   34  O   UNL     1      43.149 -18.075   0.894  1.00  0.00    -0.347 OA
BRANCH  34  35
HETATM   35  C   UNL     1      44.334 -17.849   1.654  1.00  0.00     0.216 C 
BRANCH  35  36
HETATM   36  C   UNL     1      44.311 -18.766   2.854  1.00  0.00    -0.012 A 
HETATM   37  C   UNL     1      43.911 -18.322   4.127  1.00  0.00     0.044 A 
HETATM   38 CL   UNL     1      43.420 -16.689   4.411  1.00  0.00    -0.084 Cl
HETATM   39  C   UNL     1      43.902 -19.196   5.218  1.00  0.00     0.048 A 
HETATM   40  C   UNL     1      44.281 -20.523   5.041  1.00  0.00     0.035 A 
HETATM   41 CL   UNL     1      44.276 -21.597   6.384  1.00  0.00    -0.084 Cl
HETATM   42  C   UNL     1      44.663 -20.987   3.786  1.00  0.00     0.024 A 
HETATM   43  C   UNL     1      44.673 -20.115   2.695  1.00  0.00     0.013 A 
ENDBRANCH  35  36
ENDBRANCH  34  35
ENDBRANCH  31  34
ENDBRANCH  27  28
ENDBRANCH   1  26
TORSDOF 10
ENDMDL
MODEL 6
REMARK VINA RESULT:      -8.4      4.110     10.110
REMARK  10 active torsions:
REMARK  status: ('A' for Active; 'I' for Inactive)
REMARK    1  A    between atoms: C_2  and  C_3 
REMARK    2  A    between atoms: N_4  and  N_5 
REMARK       I    between atoms: N_5  and  C_6 
REMARK    3  A    between atoms: C_6  and  C_7 
REMARK    4  A    between atoms: N_10  and  C_11 
REMARK    5  A    between atoms: C_15  and  N_16 
REMARK    6  A    between atoms: C_17  and  C_18 
REMARK    7  A    between atoms: C_18  and  N_19 
REMARK    8  A    between atoms: C_29  and  O_30 
REMARK    9  A    between atoms: O_30  and  C_31 
REMARK   10  A    between atoms: C_31  and  C_32 
ROOT
HETATM    1  N   UNL     1      40.796 -17.064   4.470  1.00  0.00    -0.242 N 
HETATM    2  C   UNL     1      41.049 -16.570   5.737  1.00  0.00     0.294 C 
HETATM    3  O   UNL     1      40.563 -17.125   6.725  1.00  0.00    -0.264 OA
HETATM    4  H   UNL     1      40.227 -17.901   4.404  1.00  0.00     0.192 HD
ENDROOT
BRANCH   2   5
HETATM    5  C   UNL     1      41.933 -15.409   5.905  1.00  0.00     0.176 A 
HETATM    6  N   UNL     1      41.695 -14.158   5.413  1.00  0.00    -0.124 NA
HETATM    7  N   UNL     1      42.707 -13.374   5.734  1.00  0.00    -0.058 NA
HETATM    8  N   UNL     1      43.601 -14.080   6.465  1.00  0.00    -0.191 N 
HETATM    9  C   UNL     1      43.147 -15.392   6.588  1.00  0.00     0.102 A 
BRANCH   8  10
HETATM   10  C   UNL     1      44.759 -13.480   7.017  1.00  0.00     0.229 A 
HETATM   11  N   UNL     1      45.906 -13.474   6.330  1.00  0.00    -0.081 NA
HETATM   12  O   UNL     1      46.799 -12.818   7.185  1.00  0.00    -0.103 OA
HETATM   13  N   UNL     1      46.185 -12.472   8.379  1.00  0.00    -0.083 NA
HETATM   14  C   UNL     1      44.923 -12.882   8.278  1.00  0.00     0.201 A 
BRANCH  14  15
HETATM   15  N   UNL     1      43.994 -12.735   9.233  1.00  0.00    -0.379 N 
HETATM   16  H   UNL     1      43.054 -12.423   9.004  1.00  0.00     0.158 HD
HETATM   17  H   UNL     1      44.143 -12.965  10.214  1.00  0.00     0.158 HD
ENDBRANCH  14  15
ENDBRANCH   8  10
BRANCH   9  18
HETATM   18  C   UNL     1      43.897 -16.494   7.235  1.00  0.00     0.296 C 
BRANCH  18  19
HETATM   19  N   UNL     1      43.712 -17.848   6.592  1.00  0.00    -0.066 N 
HETATM   20  H   UNL     1      42.704 -17.925   6.385  1.00  0.00     0.280 HD
HETATM   21  C   UNL     1      44.483 -18.019   5.304  1.00  0.00     0.235 C 
HETATM   22  C   UNL     1      44.100 -19.349   4.666  1.00  0.00     0.028 C 
HETATM   23  C   UNL     1      44.329 -20.520   5.614  1.00  0.00     0.003 C 
HETATM   24  C   UNL     1      43.632 -20.295   6.951  1.00  0.00     0.028 C 
HETATM   25  C   UNL     1      44.018 -18.961   7.571  1.00  0.00     0.235 C 
ENDBRANCH  18  19
ENDBRANCH   9  18
ENDBRANCH   2   5
BRANCH   1  26
HETATM   26  N   UNL     1      41.219 -16.450   3.337  1.00  0.00    -0.184 NA
HETATM   27  C   UNL     1      40.309 -16.133   2.474  1.00  0.00     0.150 C 
BRANCH  27  28
HETATM   28  C   UNL     1      40.667 -15.427   1.227  1.00  0.00    -0.017 A 
HETATM   29  C   UNL     1      41.103 -16.157   0.123  1.00  0.00     0.016 A 
HETATM   30  C   UNL     1      41.467 -15.481  -1.046  1.00  0.00     0.037 A 
HETATM   31  C   UNL     1      41.383 -14.086  -1.125  1.00  0.00     0.069 A 
HETATM   32  C   UNL     1      40.918 -13.366  -0.024  1.00  0.00     0.037 A 
HETATM   33  C   UNL     1      40.573 -14.034   1.155  1.00  0.00     0.016 A 
BRANCH  31  34
HETATM   34  O   UNL     1      41.790 -13.557  -2.318  1.00  0.00    -0.347 OA
BRANCH  34  35
HETATM   35  C   UNL     1      42.959 -12.742  -2.307  1.00  0.00     0.216 C 
BRANCH  35  36
HETATM   36  C   UNL     1      42.655 -11.463  -3.050  1.00  0.00    -0.012 A 
HETATM   37  C   UNL     1      42.884 -10.196  -2.484  1.00  0.00     0.044 A 
HETATM   38 CL   UNL     1      43.526 -10.013  -0.890  1.00  0.00    -0.084 Cl
HETATM   39  C   UNL     1      42.590  -9.031  -3.197  1.00  0.00     0.048 A 
HETATM   40  C   UNL     1      42.078  -9.123  -4.488  1.00  0.00     0.035 A 
HETATM   41 CL   UNL     1      41.711  -7.689  -5.365  1.00  0.00    -0.084 Cl
HETATM   42  C   UNL     1      41.861 -10.367  -5.074  1.00  0.00     0.024 A 
HETATM   43  C   UNL     1      42.153 -11.532  -4.362  1.00  0.00     0.013 A 
ENDBRANCH  35  36
ENDBRANCH  34  35
ENDBRANCH  31  34
ENDBRANCH  27  28
ENDBRANCH   1  26
TORSDOF 10
ENDMDL
MODEL 7
REMARK VINA RESULT:      -8.1      2.259      4.840
REMARK  10 active torsions:
REMARK  status: ('A' for Active; 'I' for Inactive)
REMARK    1  A    between atoms: C_2  and  C_3 
REMARK    2  A    between atoms: N_4  and  N_5 
REMARK       I    between atoms: N_5  and  C_6 
REMARK    3  A    between atoms: C_6  and  C_7 
REMARK    4  A    between atoms: N_10  and  C_11 
REMARK    5  A    between atoms: C_15  and  N_16 
REMARK    6  A    between atoms: C_17  and  C_18 
REMARK    7  A    between atoms: C_18  and  N_19 
REMARK    8  A    between atoms: C_29  and  O_30 
REMARK    9  A    between atoms: O_30  and  C_31 
REMARK   10  A    between atoms: C_31  and  C_32 
ROOT
HETATM    1  N   UNL     1      40.887 -15.775  -1.783  1.00  0.00    -0.242 N 
HETATM    2  C   UNL     1      40.999 -14.835  -2.792  1.00  0.00     0.294 C 
HETATM    3  O   UNL     1      40.612 -15.103  -3.931  1.00  0.00    -0.264 OA
HETATM    4  H   UNL     1      40.456 -16.662  -2.021  1.00  0.00     0.192 HD
ENDROOT
BRANCH   2   5
HETATM    5  C   UNL     1      41.539 -13.503  -2.491  1.00  0.00     0.176 A 
HETATM    6  N   UNL     1      42.865 -13.186  -2.419  1.00  0.00    -0.124 NA
HETATM    7  N   UNL     1      42.983 -11.909  -2.108  1.00  0.00    -0.058 NA
HETATM    8  N   UNL     1      41.750 -11.362  -2.007  1.00  0.00    -0.191 N 
HETATM    9  C   UNL     1      40.797 -12.352  -2.235  1.00  0.00     0.102 A 
BRANCH   8  10
HETATM   10  C   UNL     1      41.560  -9.981  -1.756  1.00  0.00     0.229 A 
HETATM   11  N   UNL     1      40.872  -9.228  -2.620  1.00  0.00    -0.081 NA
HETATM   12  O   UNL     1      40.908  -7.952  -2.047  1.00  0.00    -0.103 OA
HETATM   13  N   UNL     1      41.642  -7.952  -0.871  1.00  0.00    -0.083 NA
HETATM   14  C   UNL     1      42.048  -9.207  -0.689  1.00  0.00     0.201 A 
BRANCH  14  15
HETATM   15  N   UNL     1      42.793  -9.626   0.343  1.00  0.00    -0.379 N 
HETATM   16  H   UNL     1      43.127 -10.585   0.391  1.00  0.00     0.158 HD
HETATM   17  H   UNL     1      43.108  -9.023   1.101  1.00  0.00     0.158 HD
ENDBRANCH  14  15
ENDBRANCH   8  10
BRANCH   9  18
HETATM   18  C   UNL     1      39.331 -12.167  -2.116  1.00  0.00     0.296 C 
BRANCH  18  19
HETATM   19  N   UNL     1      38.768 -12.441  -0.741  1.00  0.00    -0.066 N 
HETATM   20  H   UNL     1      38.078 -11.694  -0.567  1.00  0.00     0.280 HD
HETATM   21  C   UNL     1      38.072 -13.778  -0.626  1.00  0.00     0.235 C 
HETATM   22  C   UNL     1      37.409 -13.878   0.742  1.00  0.00     0.028 C 
HETATM   23  C   UNL     1      38.409 -13.670   1.874  1.00  0.00     0.003 C 
HETATM   24  C   UNL     1      39.183 -12.368   1.698  1.00  0.00     0.028 C 
HETATM   25  C   UNL     1      39.830 -12.279   0.324  1.00  0.00     0.235 C 
ENDBRANCH  18  19
ENDBRANCH   9  18
ENDBRANCH   2   5
BRANCH   1  26
HETATM   26  N   UNL     1      41.377 -15.582  -0.534  1.00  0.00    -0.184 NA
HETATM   27  C   UNL     1      40.661 -16.030   0.447  1.00  0.00     0.150 C 
BRANCH  27  28
HETATM   28  C   UNL     1      41.130 -15.901   1.841  1.00  0.00    -0.017 A 
HETATM   29  C   UNL     1      42.074 -14.928   2.164  1.00  0.00     0.016 A 
HETATM   30  C   UNL     1      42.535 -14.829   3.480  1.00  0.00     0.037 A 
HETATM   31  C   UNL     1      42.047 -15.681   4.478  1.00  0.00     0.069 A 
HETATM   32  C   UNL     1      41.081 -16.633   4.151  1.00  0.00     0.037 A 
HETATM   33  C   UNL     1      40.632 -16.752   2.832  1.00  0.00     0.016 A 
BRANCH  31  34
HETATM   34  O   UNL     1      42.599 -15.488   5.714  1.00  0.00    -0.347 OA
BRANCH  34  35
HETATM   35  C   UNL     1      43.965 -15.860   5.886  1.00  0.00     0.216 C 
BRANCH  35  36
HETATM   36  C   UNL     1      44.043 -17.367   5.942  1.00  0.00    -0.012 A 
HETATM   37  C   UNL     1      43.766 -18.087   7.118  1.00  0.00     0.044 A 
HETATM   38 CL   UNL     1      43.321 -17.295   8.588  1.00  0.00    -0.084 Cl
HETATM   39  C   UNL     1      43.849 -19.482   7.138  1.00  0.00     0.048 A 
HETATM   40  C   UNL     1      44.197 -20.169   5.978  1.00  0.00     0.035 A 
HETATM   41 CL   UNL     1      44.304 -21.885   6.003  1.00  0.00    -0.084 Cl
HETATM   42  C   UNL     1      44.457 -19.476   4.799  1.00  0.00     0.024 A 
HETATM   43  C   UNL     1      44.375 -18.082   4.778  1.00  0.00     0.013 A 
ENDBRANCH  35  36
ENDBRANCH  34  35
ENDBRANCH  31  34
ENDBRANCH  27  28
ENDBRANCH   1  26
TORSDOF 10
ENDMDL
MODEL 8
REMARK VINA RESULT:      -8.1      1.977      2.637
REMARK  10 active torsions:
REMARK  status: ('A' for Active; 'I' for Inactive)
REMARK    1  A    between atoms: C_2  and  C_3 
REMARK    2  A    between atoms: N_4  and  N_5 
REMARK       I    between atoms: N_5  and  C_6 
REMARK    3  A    between atoms: C_6  and  C_7 
REMARK    4  A    between atoms: N_10  and  C_11 
REMARK    5  A    between atoms: C_15  and  N_16 
REMARK    6  A    between atoms: C_17  and  C_18 
REMARK    7  A    between atoms: C_18  and  N_19 
REMARK    8  A    between atoms: C_29  and  O_30 
REMARK    9  A    between atoms: O_30  and  C_31 
REMARK   10  A    between atoms: C_31  and  C_32 
ROOT
HETATM    1  N   UNL     1      40.202 -10.528   0.888  1.00  0.00    -0.242 N 
HETATM    2  C   UNL     1      39.543 -10.549  -0.328  1.00  0.00     0.294 C 
HETATM    3  O   UNL     1      39.361  -9.500  -0.950  1.00  0.00    -0.264 OA
HETATM    4  H   UNL     1      40.543  -9.630   1.216  1.00  0.00     0.192 HD
ENDROOT
BRANCH   2   5
HETATM    5  C   UNL     1      39.098 -11.828  -0.895  1.00  0.00     0.176 A 
HETATM    6  N   UNL     1      37.936 -12.472  -0.578  1.00  0.00    -0.124 NA
HETATM    7  N   UNL     1      37.874 -13.600  -1.258  1.00  0.00    -0.058 NA
HETATM    8  N   UNL     1      38.965 -13.700  -2.053  1.00  0.00    -0.191 N 
HETATM    9  C   UNL     1      39.780 -12.590  -1.842  1.00  0.00     0.102 A 
BRANCH   8  10
HETATM   10  C   UNL     1      39.137 -14.775  -2.959  1.00  0.00     0.229 A 
HETATM   11  N   UNL     1      40.217 -15.559  -2.875  1.00  0.00    -0.081 NA
HETATM   12  O   UNL     1      40.039 -16.477  -3.916  1.00  0.00    -0.103 OA
HETATM   13  N   UNL     1      38.880 -16.209  -4.627  1.00  0.00    -0.083 NA
HETATM   14  C   UNL     1      38.320 -15.156  -4.037  1.00  0.00     0.201 A 
BRANCH  14  15
HETATM   15  N   UNL     1      37.174 -14.580  -4.429  1.00  0.00    -0.379 N 
HETATM   16  H   UNL     1      36.310 -14.735  -3.916  1.00  0.00     0.158 HD
HETATM   17  H   UNL     1      37.100 -13.932  -5.210  1.00  0.00     0.158 HD
ENDBRANCH  14  15
ENDBRANCH   8  10
BRANCH   9  18
HETATM   18  C   UNL     1      41.113 -12.384  -2.455  1.00  0.00     0.296 C 
BRANCH  18  19
HETATM   19  N   UNL     1      41.173 -11.276  -3.481  1.00  0.00    -0.066 N 
HETATM   20  H   UNL     1      41.123 -10.396  -2.945  1.00  0.00     0.280 HD
HETATM   21  C   UNL     1      42.446 -11.274  -4.297  1.00  0.00     0.235 C 
HETATM   22  C   UNL     1      42.469 -10.032  -5.179  1.00  0.00     0.028 C 
HETATM   23  C   UNL     1      41.235  -9.944  -6.069  1.00  0.00     0.003 C 
HETATM   24  C   UNL     1      39.953 -10.051  -5.251  1.00  0.00     0.028 C 
HETATM   25  C   UNL     1      39.949 -11.290  -4.369  1.00  0.00     0.235 C 
ENDBRANCH  18  19
ENDBRANCH   9  18
ENDBRANCH   2   5
BRANCH   1  26
HETATM   26  N   UNL     1      40.352 -11.626   1.669  1.00  0.00    -0.184 NA
HETATM   27  C   UNL     1      41.510 -12.205   1.641  1.00  0.00     0.150 C 
BRANCH  27  28
HETATM   28  C   UNL     1      41.781 -13.385   2.487  1.00  0.00    -0.017 A 
HETATM   29  C   UNL     1      40.846 -14.417   2.549  1.00  0.00     0.016 A 
HETATM   30  C   UNL     1      41.096 -15.520   3.372  1.00  0.00     0.037 A 
HETATM   31  C   UNL     1      42.278 -15.606   4.118  1.00  0.00     0.069 A 
HETATM   32  C   UNL     1      43.220 -14.582   4.026  1.00  0.00     0.037 A 
HETATM   33  C   UNL     1      42.967 -13.466   3.222  1.00  0.00     0.016 A 
BRANCH  31  34
HETATM   34  O   UNL     1      42.381 -16.727   4.894  1.00  0.00    -0.347 OA
BRANCH  34  35
HETATM   35  C   UNL     1      43.687 -17.259   5.104  1.00  0.00     0.216 C 
BRANCH  35  36
HETATM   36  C   UNL     1      43.861 -18.460   4.205  1.00  0.00    -0.012 A 
HETATM   37  C   UNL     1      44.175 -19.734   4.711  1.00  0.00     0.044 A 
HETATM   38 CL   UNL     1      44.392 -20.015   6.403  1.00  0.00    -0.084 Cl
HETATM   39  C   UNL     1      44.331 -20.826   3.852  1.00  0.00     0.048 A 
HETATM   40  C   UNL     1      44.160 -20.655   2.482  1.00  0.00     0.035 A 
HETATM   41 CL   UNL     1      44.356 -21.997   1.424  1.00  0.00    -0.084 Cl
HETATM   42  C   UNL     1      43.830 -19.407   1.962  1.00  0.00     0.024 A 
HETATM   43  C   UNL     1      43.675 -18.315   2.819  1.00  0.00     0.013 A 
ENDBRANCH  35  36
ENDBRANCH  34  35
ENDBRANCH  31  34
ENDBRANCH  27  28
ENDBRANCH   1  26
TORSDOF 10
ENDMDL
MODEL 9
REMARK VINA RESULT:      -7.9      2.039      3.021
REMARK  10 active torsions:
REMARK  status: ('A' for Active; 'I' for Inactive)
REMARK    1  A    between atoms: C_2  and  C_3 
REMARK    2  A    between atoms: N_4  and  N_5 
REMARK       I    between atoms: N_5  and  C_6 
REMARK    3  A    between atoms: C_6  and  C_7 
REMARK    4  A    between atoms: N_10  and  C_11 
REMARK    5  A    between atoms: C_15  and  N_16 
REMARK    6  A    between atoms: C_17  and  C_18 
REMARK    7  A    between atoms: C_18  and  N_19 
REMARK    8  A    between atoms: C_29  and  O_30 
REMARK    9  A    between atoms: O_30  and  C_31 
REMARK   10  A    between atoms: C_31  and  C_32 
ROOT
HETATM    1  N   UNL     1      39.685 -10.364   2.462  1.00  0.00    -0.242 N 
HETATM    2  C   UNL     1      39.609 -10.164   1.095  1.00  0.00     0.294 C 
HETATM    3  O   UNL     1      38.942  -9.230   0.644  1.00  0.00    -0.264 OA
HETATM    4  H   UNL     1      39.198  -9.701   3.056  1.00  0.00     0.192 HD
ENDROOT
BRANCH   2   5
HETATM    5  C   UNL     1      40.359 -11.040   0.186  1.00  0.00     0.176 A 
HETATM    6  N   UNL     1      41.698 -10.955  -0.068  1.00  0.00    -0.124 NA
HETATM    7  N   UNL     1      42.025 -11.882  -0.947  1.00  0.00    -0.058 NA
HETATM    8  N   UNL     1      40.926 -12.609  -1.256  1.00  0.00    -0.191 N 
HETATM    9  C   UNL     1      39.835 -12.094  -0.559  1.00  0.00     0.102 A 
BRANCH   8  10
HETATM   10  C   UNL     1      40.986 -13.728  -2.122  1.00  0.00     0.229 A 
HETATM   11  N   UNL     1      41.075 -13.552  -3.444  1.00  0.00    -0.081 NA
HETATM   12  O   UNL     1      41.101 -14.856  -3.949  1.00  0.00    -0.103 OA
HETATM   13  N   UNL     1      40.993 -15.790  -2.930  1.00  0.00    -0.083 NA
HETATM   14  C   UNL     1      40.921 -15.094  -1.798  1.00  0.00     0.201 A 
BRANCH  14  15
HETATM   15  N   UNL     1      40.805 -15.634  -0.576  1.00  0.00    -0.379 N 
HETATM   16  H   UNL     1      40.063 -16.295  -0.366  1.00  0.00     0.158 HD
HETATM   17  H   UNL     1      41.458 -15.464   0.187  1.00  0.00     0.158 HD
ENDBRANCH  14  15
ENDBRANCH   8  10
BRANCH   9  18
HETATM   18  C   UNL     1      38.436 -12.559  -0.706  1.00  0.00     0.296 C 
BRANCH  18  19
HETATM   19  N   UNL     1      37.681 -11.942  -1.860  1.00  0.00    -0.066 N 
HETATM   20  H   UNL     1      38.291 -11.193  -2.224  1.00  0.00     0.280 HD
HETATM   21  C   UNL     1      37.386 -12.912  -2.981  1.00  0.00     0.235 C 
HETATM   22  C   UNL     1      36.771 -12.151  -4.149  1.00  0.00     0.028 C 
HETATM   23  C   UNL     1      35.522 -11.383  -3.732  1.00  0.00     0.003 C 
HETATM   24  C   UNL     1      35.800 -10.482  -2.534  1.00  0.00     0.028 C 
HETATM   25  C   UNL     1      36.422 -11.254  -1.380  1.00  0.00     0.235 C 
ENDBRANCH  18  19
ENDBRANCH   9  18
ENDBRANCH   2   5
BRANCH   1  26
HETATM   26  N   UNL     1      40.320 -11.424   3.021  1.00  0.00    -0.184 NA
HETATM   27  C   UNL     1      39.624 -12.505   3.172  1.00  0.00     0.150 C 
BRANCH  27  28
HETATM   28  C   UNL     1      40.239 -13.722   3.737  1.00  0.00    -0.017 A 
HETATM   29  C   UNL     1      40.831 -13.674   4.998  1.00  0.00     0.016 A 
HETATM   30  C   UNL     1      41.435 -14.824   5.517  1.00  0.00     0.037 A 
HETATM   31  C   UNL     1      41.438 -16.022   4.793  1.00  0.00     0.069 A 
HETATM   32  C   UNL     1      40.817 -16.068   3.545  1.00  0.00     0.037 A 
HETATM   33  C   UNL     1      40.230 -14.917   3.011  1.00  0.00     0.016 A 
BRANCH  31  34
HETATM   34  O   UNL     1      42.081 -17.059   5.410  1.00  0.00    -0.347 OA
BRANCH  34  35
HETATM   35  C   UNL     1      43.494 -17.148   5.238  1.00  0.00     0.216 C 
BRANCH  35  36
HETATM   36  C   UNL     1      43.794 -18.362   4.391  1.00  0.00    -0.012 A 
HETATM   37  C   UNL     1      44.139 -19.602   4.958  1.00  0.00     0.044 A 
HETATM   38 CL   UNL     1      44.250 -19.823   6.668  1.00  0.00    -0.084 Cl
HETATM   39  C   UNL     1      44.413 -20.706   4.146  1.00  0.00     0.048 A 
HETATM   40  C   UNL     1      44.331 -20.583   2.763  1.00  0.00     0.035 A 
HETATM   41 CL   UNL     1      44.672 -21.941   1.763  1.00  0.00    -0.084 Cl
HETATM   42  C   UNL     1      43.973 -19.370   2.182  1.00  0.00     0.024 A 
HETATM   43  C   UNL     1      43.700 -18.265   2.991  1.00  0.00     0.013 A 
ENDBRANCH  35  36
ENDBRANCH  34  35
ENDBRANCH  31  34
ENDBRANCH  27  28
ENDBRANCH   1  26
TORSDOF 10
ENDMDL
MODEL 10
REMARK VINA RESULT:      -7.8      4.152     10.330
REMARK  10 active torsions:
REMARK  status: ('A' for Active; 'I' for Inactive)
REMARK    1  A    between atoms: C_2  and  C_3 
REMARK    2  A    between atoms: N_4  and  N_5 
REMARK       I    between atoms: N_5  and  C_6 
REMARK    3  A    between atoms: C_6  and  C_7 
REMARK    4  A    between atoms: N_10  and  C_11 
REMARK    5  A    between atoms: C_15  and  N_16 
REMARK    6  A    between atoms: C_17  and  C_18 
REMARK    7  A    between atoms: C_18  and  N_19 
REMARK    8  A    between atoms: C_29  and  O_30 
REMARK    9  A    between atoms: O_30  and  C_31 
REMARK   10  A    between atoms: C_31  and  C_32 
ROOT
HETATM    1  N   UNL     1      40.697 -16.380   0.502  1.00  0.00    -0.242 N 
HETATM    2  C   UNL     1      40.547 -16.786   1.815  1.00  0.00     0.294 C 
HETATM    3  O   UNL     1      40.020 -17.872   2.069  1.00  0.00    -0.264 OA
HETATM    4  H   UNL     1      40.383 -17.020  -0.221  1.00  0.00     0.192 HD
ENDROOT
BRANCH   2   5
HETATM    5  C   UNL     1      41.056 -15.942   2.903  1.00  0.00     0.176 A 
HETATM    6  N   UNL     1      40.317 -15.042   3.617  1.00  0.00    -0.124 NA
HETATM    7  N   UNL     1      41.101 -14.448   4.496  1.00  0.00    -0.058 NA
HETATM    8  N   UNL     1      42.347 -14.967   4.402  1.00  0.00    -0.191 N 
HETATM    9  C   UNL     1      42.363 -15.920   3.385  1.00  0.00     0.102 A 
BRANCH   8  10
HETATM   10  C   UNL     1      43.390 -14.575   5.275  1.00  0.00     0.229 A 
HETATM   11  N   UNL     1      44.272 -13.644   4.896  1.00  0.00    -0.081 NA
HETATM   12  O   UNL     1      45.132 -13.538   5.994  1.00  0.00    -0.103 OA
HETATM   13  N   UNL     1      44.777 -14.428   6.997  1.00  0.00    -0.083 NA
HETATM   14  C   UNL     1      43.699 -15.071   6.554  1.00  0.00     0.201 A 
BRANCH  14  15
HETATM   15  N   UNL     1      43.045 -16.024   7.234  1.00  0.00    -0.379 N 
HETATM   16  H   UNL     1      43.154 -16.115   8.240  1.00  0.00     0.158 HD
HETATM   17  H   UNL     1      42.379 -16.669   6.813  1.00  0.00     0.158 HD
ENDBRANCH  14  15
ENDBRANCH   8  10
BRANCH   9  18
HETATM   18  C   UNL     1      43.569 -16.640   2.913  1.00  0.00     0.296 C 
BRANCH  18  19
HETATM   19  N   UNL     1      43.631 -18.097   3.306  1.00  0.00    -0.066 N 
HETATM   20  H   UNL     1      42.652 -18.389   3.453  1.00  0.00     0.280 HD
HETATM   21  C   UNL     1      44.246 -18.985   2.248  1.00  0.00     0.235 C 
HETATM   22  C   UNL     1      44.111 -20.440   2.680  1.00  0.00     0.028 C 
HETATM   23  C   UNL     1      44.736 -20.686   4.048  1.00  0.00     0.003 C 
HETATM   24  C   UNL     1      44.187 -19.719   5.090  1.00  0.00     0.028 C 
HETATM   25  C   UNL     1      44.320 -18.272   4.641  1.00  0.00     0.235 C 
ENDBRANCH  18  19
ENDBRANCH   9  18
ENDBRANCH   2   5
BRANCH   1  26
HETATM   26  N   UNL     1      41.180 -15.162   0.154  1.00  0.00    -0.184 NA
HETATM   27  C   UNL     1      41.095 -14.838  -1.097  1.00  0.00     0.150 C 
BRANCH  27  28
HETATM   28  C   UNL     1      41.558 -13.517  -1.565  1.00  0.00    -0.017 A 
HETATM   29  C   UNL     1      42.111 -13.392  -2.839  1.00  0.00     0.016 A 
HETATM   30  C   UNL     1      42.573 -12.144  -3.267  1.00  0.00     0.037 A 
HETATM   31  C   UNL     1      42.472 -11.018  -2.440  1.00  0.00     0.069 A 
HETATM   32  C   UNL     1      41.891 -11.147  -1.179  1.00  0.00     0.037 A 
HETATM   33  C   UNL     1      41.447 -12.397  -0.736  1.00  0.00     0.016 A 
BRANCH  31  34
HETATM   34  O   UNL     1      42.981  -9.869  -2.977  1.00  0.00    -0.347 OA
BRANCH  34  35
HETATM   35  C   UNL     1      42.051  -8.907  -3.467  1.00  0.00     0.216 C 
BRANCH  35  36
HETATM   36  C   UNL     1      42.011  -9.007  -4.974  1.00  0.00    -0.012 A 
HETATM   37  C   UNL     1      41.019  -9.740  -5.649  1.00  0.00     0.044 A 
HETATM   38 CL   UNL     1      39.773 -10.585  -4.799  1.00  0.00    -0.084 Cl
HETATM   39  C   UNL     1      41.011  -9.814  -7.044  1.00  0.00     0.048 A 
HETATM   40  C   UNL     1      41.987  -9.146  -7.776  1.00  0.00     0.035 A 
HETATM   41 CL   UNL     1      41.981  -9.242  -9.494  1.00  0.00    -0.084 Cl
HETATM   42  C   UNL     1      42.968  -8.400  -7.129  1.00  0.00     0.024 A 
HETATM   43  C   UNL     1      42.978  -8.325  -5.734  1.00  0.00     0.013 A 
ENDBRANCH  35  36
ENDBRANCH  34  35
ENDBRANCH  31  34
ENDBRANCH  27  28
ENDBRANCH   1  26
TORSDOF 10
ENDMDL
