MODEL 1
REMARK VINA RESULT:      -7.7      0.000      0.000
REMARK  2 active torsions:
REMARK  status: ('A' for Active; 'I' for Inactive)
REMARK    1  A    between atoms: N_4  and  N_5 
REMARK       I    between atoms: N_5  and  C_6 
REMARK    2  A    between atoms: C_6  and  C_7 
ROOT
HETATM    1  C   UNL     1      44.723 -19.026   6.339  1.00  0.00     0.158 C 
HETATM    2  N   UNL     1      43.999 -18.724   5.108  1.00  0.00    -0.329 N 
HETATM    3  C   UNL     1      43.281 -17.627   4.829  1.00  0.00     0.166 A 
HETATM    4  N   UNL     1      43.097 -16.596   5.658  1.00  0.00    -0.277 N 
HETATM    5  S   UNL     1      42.589 -17.674   3.238  1.00  0.00    -0.050 SA
HETATM    6  C   UNL     1      43.287 -19.220   2.946  1.00  0.00     0.035 A 
HETATM    7  C   UNL     1      44.015 -19.638   4.057  1.00  0.00     0.053 A 
HETATM    8  C   UNL     1      43.186 -20.009   1.788  1.00  0.00     0.021 A 
HETATM    9  C   UNL     1      43.840 -21.243   1.769  1.00  0.00     0.002 A 
HETATM   10  C   UNL     1      44.572 -21.677   2.869  1.00  0.00     0.002 A 
HETATM   11  C   UNL     1      44.669 -20.886   4.020  1.00  0.00     0.031 A 
HETATM   12  H   UNL     1      43.541 -16.659   6.573  1.00  0.00     0.189 HD
ENDROOT
BRANCH   4  13
HETATM   13  N   UNL     1      42.389 -15.496   5.402  1.00  0.00    -0.263 N 
HETATM   14  C   UNL     1      41.087 -15.467   5.874  1.00  0.00     0.286 C 
HETATM   15  O   UNL     1      40.640 -16.430   6.498  1.00  0.00    -0.264 OA
HETATM   16  H   UNL     1      42.800 -14.725   4.883  1.00  0.00     0.190 HD
BRANCH  14  17
HETATM   17  C   UNL     1      40.328 -14.273   5.593  1.00  0.00     0.103 A 
HETATM   18  N   UNL     1      39.768 -13.516   6.607  1.00  0.00    -0.360 N 
HETATM   19  H   UNL     1      39.845 -13.733   7.595  1.00  0.00     0.165 HD
HETATM   20  C   UNL     1      39.101 -12.441   6.083  1.00  0.00     0.112 A 
HETATM   21  C   UNL     1      39.225 -12.495   4.718  1.00  0.00     0.051 A 
HETATM   22 CL   UNL     1      38.591 -11.408   3.584  1.00  0.00    -0.083 Cl
HETATM   23  C   UNL     1      39.993 -13.642   4.404  1.00  0.00     0.060 A 
ENDBRANCH  14  17
ENDBRANCH   4  13
TORSDOF 2
ENDMDL
MODEL 2
REMARK VINA RESULT:      -7.6      3.450      4.013
REMARK  2 active torsions:
REMARK  status: ('A' for Active; 'I' for Inactive)
REMARK    1  A    between atoms: N_4  and  N_5 
REMARK       I    between atoms: N_5  and  C_6 
REMARK    2  A    between atoms: C_6  and  C_7 
ROOT
HETATM    1  C   UNL     1      42.598 -17.794   1.670  1.00  0.00     0.158 C 
HETATM    2  N   UNL     1      43.270 -18.312   2.859  1.00  0.00    -0.329 N 
HETATM    3  C   UNL     1      43.535 -17.658   3.998  1.00  0.00     0.166 A 
HETATM    4  N   UNL     1      43.224 -16.383   4.244  1.00  0.00    -0.277 N 
HETATM    5  S   UNL     1      44.349 -18.656   5.162  1.00  0.00    -0.050 SA
HETATM    6  C   UNL     1      44.332 -19.990   4.075  1.00  0.00     0.035 A 
HETATM    7  C   UNL     1      43.713 -19.632   2.881  1.00  0.00     0.053 A 
HETATM    8  C   UNL     1      44.845 -21.282   4.284  1.00  0.00     0.021 A 
HETATM    9  C   UNL     1      44.721 -22.218   3.255  1.00  0.00     0.002 A 
HETATM   10  C   UNL     1      44.106 -21.878   2.055  1.00  0.00     0.002 A 
HETATM   11  C   UNL     1      43.597 -20.589   1.853  1.00  0.00     0.031 A 
HETATM   12  H   UNL     1      42.749 -15.876   3.499  1.00  0.00     0.189 HD
ENDROOT
BRANCH   4  13
HETATM   13  N   UNL     1      43.476 -15.713   5.368  1.00  0.00    -0.263 N 
HETATM   14  C   UNL     1      43.716 -14.354   5.247  1.00  0.00     0.286 C 
HETATM   15  O   UNL     1      43.687 -13.825   4.135  1.00  0.00    -0.264 OA
HETATM   16  H   UNL     1      43.490 -16.192   6.265  1.00  0.00     0.190 HD
BRANCH  14  17
HETATM   17  C   UNL     1      43.988 -13.637   6.468  1.00  0.00     0.103 A 
HETATM   18  N   UNL     1      43.086 -12.726   6.989  1.00  0.00    -0.360 N 
HETATM   19  H   UNL     1      42.192 -12.499   6.568  1.00  0.00     0.165 HD
HETATM   20  C   UNL     1      43.576 -12.183   8.146  1.00  0.00     0.112 A 
HETATM   21  C   UNL     1      44.806 -12.741   8.384  1.00  0.00     0.051 A 
HETATM   22 CL   UNL     1      45.846 -12.422   9.683  1.00  0.00    -0.083 Cl
HETATM   23  C   UNL     1      45.072 -13.654   7.335  1.00  0.00     0.060 A 
ENDBRANCH  14  17
ENDBRANCH   4  13
TORSDOF 2
ENDMDL
MODEL 3
REMARK VINA RESULT:      -7.5      3.570      4.142
REMARK  2 active torsions:
REMARK  status: ('A' for Active; 'I' for Inactive)
REMARK    1  A    between atoms: N_4  and  N_5 
REMARK       I    between atoms: N_5  and  C_6 
REMARK    2  A    between atoms: C_6  and  C_7 
ROOT
HETATM    1  C   UNL     1      44.218 -17.895   5.582  1.00  0.00     0.158 C 
HETATM    2  N   UNL     1      44.043 -18.562   4.296  1.00  0.00    -0.329 N 
HETATM    3  C   UNL     1      43.649 -18.015   3.138  1.00  0.00     0.166 A 
HETATM    4  N   UNL     1      43.335 -16.728   2.961  1.00  0.00    -0.277 N 
HETATM    5  S   UNL     1      43.580 -19.172   1.846  1.00  0.00    -0.050 SA
HETATM    6  C   UNL     1      44.095 -20.429   2.904  1.00  0.00     0.035 A 
HETATM    7  C   UNL     1      44.300 -19.926   4.186  1.00  0.00     0.053 A 
HETATM    8  C   UNL     1      44.303 -21.784   2.599  1.00  0.00     0.021 A 
HETATM    9  C   UNL     1      44.725 -22.636   3.622  1.00  0.00     0.002 A 
HETATM   10  C   UNL     1      44.936 -22.152   4.909  1.00  0.00     0.002 A 
HETATM   11  C   UNL     1      44.727 -20.800   5.206  1.00  0.00     0.031 A 
HETATM   12  H   UNL     1      43.404 -16.124   3.779  1.00  0.00     0.189 HD
ENDROOT
BRANCH   4  13
HETATM   13  N   UNL     1      42.942 -16.162   1.821  1.00  0.00    -0.263 N 
HETATM   14  C   UNL     1      41.581 -15.958   1.661  1.00  0.00     0.286 C 
HETATM   15  O   UNL     1      40.803 -16.294   2.553  1.00  0.00    -0.264 OA
HETATM   16  H   UNL     1      43.621 -15.901   1.111  1.00  0.00     0.190 HD
BRANCH  14  17
HETATM   17  C   UNL     1      41.164 -15.344   0.423  1.00  0.00     0.103 A 
HETATM   18  N   UNL     1      41.516 -15.878  -0.804  1.00  0.00    -0.360 N 
HETATM   19  H   UNL     1      42.074 -16.716  -0.926  1.00  0.00     0.165 HD
HETATM   20  C   UNL     1      41.001 -15.116  -1.817  1.00  0.00     0.112 A 
HETATM   21  C   UNL     1      40.309 -14.075  -1.250  1.00  0.00     0.051 A 
HETATM   22 CL   UNL     1      39.477 -12.836  -2.052  1.00  0.00    -0.083 Cl
HETATM   23  C   UNL     1      40.408 -14.212   0.155  1.00  0.00     0.060 A 
ENDBRANCH  14  17
ENDBRANCH   4  13
TORSDOF 2
ENDMDL
MODEL 4
REMARK VINA RESULT:      -7.3      2.282      3.106
REMARK  2 active torsions:
REMARK  status: ('A' for Active; 'I' for Inactive)
REMARK    1  A    between atoms: N_4  and  N_5 
REMARK       I    between atoms: N_5  and  C_6 
REMARK    2  A    between atoms: C_6  and  C_7 
ROOT
HETATM    1  C   UNL     1      40.938 -17.366   1.293  1.00  0.00     0.158 C 
HETATM    2  N   UNL     1      41.519 -17.385   2.632  1.00  0.00    -0.329 N 
HETATM    3  C   UNL     1      41.199 -16.607   3.674  1.00  0.00     0.166 A 
HETATM    4  N   UNL     1      40.269 -15.648   3.663  1.00  0.00    -0.277 N 
HETATM    5  S   UNL     1      42.138 -16.971   5.088  1.00  0.00    -0.050 SA
HETATM    6  C   UNL     1      42.988 -18.206   4.243  1.00  0.00     0.035 A 
HETATM    7  C   UNL     1      42.529 -18.297   2.932  1.00  0.00     0.053 A 
HETATM    8  C   UNL     1      44.006 -19.044   4.730  1.00  0.00     0.021 A 
HETATM    9  C   UNL     1      44.560 -19.986   3.861  1.00  0.00     0.002 A 
HETATM   10  C   UNL     1      44.115 -20.091   2.548  1.00  0.00     0.002 A 
HETATM   11  C   UNL     1      43.100 -19.253   2.068  1.00  0.00     0.031 A 
HETATM   12  H   UNL     1      39.770 -15.506   2.786  1.00  0.00     0.189 HD
ENDROOT
BRANCH   4  13
HETATM   13  N   UNL     1      39.933 -14.863   4.686  1.00  0.00    -0.263 N 
HETATM   14  C   UNL     1      40.388 -13.555   4.646  1.00  0.00     0.286 C 
HETATM   15  O   UNL     1      41.066 -13.172   3.692  1.00  0.00    -0.264 OA
HETATM   16  H   UNL     1      39.371 -15.223   5.452  1.00  0.00     0.190 HD
BRANCH  14  17
HETATM   17  C   UNL     1      40.020 -12.712   5.757  1.00  0.00     0.103 A 
HETATM   18  N   UNL     1      39.561 -13.244   6.948  1.00  0.00    -0.360 N 
HETATM   19  H   UNL     1      39.452 -14.237   7.130  1.00  0.00     0.165 HD
HETATM   20  C   UNL     1      39.280 -12.243   7.838  1.00  0.00     0.112 A 
HETATM   21  C   UNL     1      39.555 -11.047   7.224  1.00  0.00     0.051 A 
HETATM   22 CL   UNL     1      39.384  -9.493   7.877  1.00  0.00    -0.083 Cl
HETATM   23  C   UNL     1      40.019 -11.334   5.919  1.00  0.00     0.060 A 
ENDBRANCH  14  17
ENDBRANCH   4  13
TORSDOF 2
ENDMDL
MODEL 5
REMARK VINA RESULT:      -7.3      4.008      4.635
REMARK  2 active torsions:
REMARK  status: ('A' for Active; 'I' for Inactive)
REMARK    1  A    between atoms: N_4  and  N_5 
REMARK       I    between atoms: N_5  and  C_6 
REMARK    2  A    between atoms: C_6  and  C_7 
ROOT
HETATM    1  C   UNL     1      41.062 -16.910   5.564  1.00  0.00     0.158 C 
HETATM    2  N   UNL     1      41.479 -17.337   4.232  1.00  0.00    -0.329 N 
HETATM    3  C   UNL     1      40.963 -16.960   3.054  1.00  0.00     0.166 A 
HETATM    4  N   UNL     1      39.948 -16.107   2.895  1.00  0.00    -0.277 N 
HETATM    5  S   UNL     1      41.765 -17.709   1.709  1.00  0.00    -0.050 SA
HETATM    6  C   UNL     1      42.821 -18.557   2.770  1.00  0.00     0.035 A 
HETATM    7  C   UNL     1      42.530 -18.241   4.095  1.00  0.00     0.053 A 
HETATM    8  C   UNL     1      43.850 -19.453   2.433  1.00  0.00     0.021 A 
HETATM    9  C   UNL     1      44.589 -20.031   3.467  1.00  0.00     0.002 A 
HETATM   10  C   UNL     1      44.313 -19.727   4.796  1.00  0.00     0.002 A 
HETATM   11  C   UNL     1      43.286 -18.834   5.125  1.00  0.00     0.031 A 
HETATM   12  H   UNL     1      39.539 -15.719   3.744  1.00  0.00     0.189 HD
ENDROOT
BRANCH   4  13
HETATM   13  N   UNL     1      39.420 -15.717   1.735  1.00  0.00    -0.263 N 
HETATM   14  C   UNL     1      39.721 -14.433   1.311  1.00  0.00     0.286 C 
HETATM   15  O   UNL     1      40.447 -13.716   1.999  1.00  0.00    -0.264 OA
HETATM   16  H   UNL     1      38.825 -16.344   1.200  1.00  0.00     0.190 HD
BRANCH  14  17
HETATM   17  C   UNL     1      39.146 -14.020   0.055  1.00  0.00     0.103 A 
HETATM   18  N   UNL     1      39.554 -14.574  -1.146  1.00  0.00    -0.360 N 
HETATM   19  H   UNL     1      40.266 -15.291  -1.234  1.00  0.00     0.165 HD
HETATM   20  C   UNL     1      38.862 -14.015  -2.185  1.00  0.00     0.112 A 
HETATM   21  C   UNL     1      37.995 -13.089  -1.663  1.00  0.00     0.051 A 
HETATM   22 CL   UNL     1      36.902 -12.110  -2.511  1.00  0.00    -0.083 Cl
HETATM   23  C   UNL     1      38.168 -13.086  -0.258  1.00  0.00     0.060 A 
ENDBRANCH  14  17
ENDBRANCH   4  13
TORSDOF 2
ENDMDL
MODEL 6
REMARK VINA RESULT:      -7.0      3.801      7.808
REMARK  2 active torsions:
REMARK  status: ('A' for Active; 'I' for Inactive)
REMARK    1  A    between atoms: N_4  and  N_5 
REMARK       I    between atoms: N_5  and  C_6 
REMARK    2  A    between atoms: C_6  and  C_7 
ROOT
HETATM    1  C   UNL     1      40.985 -12.550   4.181  1.00  0.00     0.158 C 
HETATM    2  N   UNL     1      40.394 -13.568   3.318  1.00  0.00    -0.329 N 
HETATM    3  C   UNL     1      40.747 -14.856   3.211  1.00  0.00     0.166 A 
HETATM    4  N   UNL     1      41.733 -15.443   3.895  1.00  0.00    -0.277 N 
HETATM    5  S   UNL     1      39.772 -15.719   2.063  1.00  0.00    -0.050 SA
HETATM    6  C   UNL     1      38.867 -14.297   1.717  1.00  0.00     0.035 A 
HETATM    7  C   UNL     1      39.333 -13.230   2.481  1.00  0.00     0.053 A 
HETATM    8  C   UNL     1      37.801 -14.149   0.813  1.00  0.00     0.021 A 
HETATM    9  C   UNL     1      37.207 -12.892   0.691  1.00  0.00     0.002 A 
HETATM   10  C   UNL     1      37.658 -11.814   1.445  1.00  0.00     0.002 A 
HETATM   11  C   UNL     1      38.721 -11.968   2.344  1.00  0.00     0.031 A 
HETATM   12  H   UNL     1      42.252 -14.855   4.546  1.00  0.00     0.189 HD
ENDROOT
BRANCH   4  13
HETATM   13  N   UNL     1      42.101 -16.721   3.806  1.00  0.00    -0.263 N 
HETATM   14  C   UNL     1      43.232 -16.995   3.054  1.00  0.00     0.286 C 
HETATM   15  O   UNL     1      43.843 -16.075   2.510  1.00  0.00    -0.264 OA
HETATM   16  H   UNL     1      41.566 -17.447   4.274  1.00  0.00     0.190 HD
BRANCH  14  17
HETATM   17  C   UNL     1      43.624 -18.380   2.964  1.00  0.00     0.103 A 
HETATM   18  N   UNL     1      44.256 -19.024   4.013  1.00  0.00    -0.360 N 
HETATM   19  H   UNL     1      44.485 -18.587   4.900  1.00  0.00     0.165 HD
HETATM   20  C   UNL     1      44.522 -20.325   3.680  1.00  0.00     0.112 A 
HETATM   21  C   UNL     1      44.062 -20.534   2.404  1.00  0.00     0.051 A 
HETATM   22 CL   UNL     1      44.137 -21.969   1.507  1.00  0.00    -0.083 Cl
HETATM   23  C   UNL     1      43.498 -19.319   1.949  1.00  0.00     0.060 A 
ENDBRANCH  14  17
ENDBRANCH   4  13
TORSDOF 2
ENDMDL
MODEL 7
REMARK VINA RESULT:      -7.0      2.614      3.142
REMARK  2 active torsions:
REMARK  status: ('A' for Active; 'I' for Inactive)
REMARK    1  A    between atoms: N_4  and  N_5 
REMARK       I    between atoms: N_5  and  C_6 
REMARK    2  A    between atoms: C_6  and  C_7 
ROOT
HETATM    1  C   UNL     1      43.990 -17.888   1.407  1.00  0.00     0.158 C 
HETATM    2  N   UNL     1      43.676 -17.861   2.833  1.00  0.00    -0.329 N 
HETATM    3  C   UNL     1      43.079 -16.878   3.519  1.00  0.00     0.166 A 
HETATM    4  N   UNL     1      42.660 -15.720   3.001  1.00  0.00    -0.277 N 
HETATM    5  S   UNL     1      42.893 -17.261   5.202  1.00  0.00    -0.050 SA
HETATM    6  C   UNL     1      43.649 -18.790   4.968  1.00  0.00     0.035 A 
HETATM    7  C   UNL     1      44.008 -18.952   3.633  1.00  0.00     0.053 A 
HETATM    8  C   UNL     1      43.902 -19.784   5.928  1.00  0.00     0.021 A 
HETATM    9  C   UNL     1      44.533 -20.959   5.513  1.00  0.00     0.002 A 
HETATM   10  C   UNL     1      44.899 -21.139   4.183  1.00  0.00     0.002 A 
HETATM   11  C   UNL     1      44.644 -20.143   3.232  1.00  0.00     0.031 A 
HETATM   12  H   UNL     1      42.814 -15.584   2.002  1.00  0.00     0.189 HD
ENDROOT
BRANCH   4  13
HETATM   13  N   UNL     1      42.063 -14.730   3.663  1.00  0.00    -0.263 N 
HETATM   14  C   UNL     1      42.822 -13.598   3.913  1.00  0.00     0.286 C 
HETATM   15  O   UNL     1      43.990 -13.545   3.525  1.00  0.00    -0.264 OA
HETATM   16  H   UNL     1      41.097 -14.817   3.964  1.00  0.00     0.190 HD
BRANCH  14  17
HETATM   17  C   UNL     1      42.168 -12.531   4.630  1.00  0.00     0.103 A 
HETATM   18  N   UNL     1      41.799 -11.356   4.001  1.00  0.00    -0.360 N 
HETATM   19  H   UNL     1      41.953 -11.158   3.018  1.00  0.00     0.165 HD
HETATM   20  C   UNL     1      41.201 -10.508   4.894  1.00  0.00     0.112 A 
HETATM   21  C   UNL     1      41.179 -11.131   6.115  1.00  0.00     0.051 A 
HETATM   22 CL   UNL     1      40.551 -10.526   7.567  1.00  0.00    -0.083 Cl
HETATM   23  C   UNL     1      41.785 -12.401   5.958  1.00  0.00     0.060 A 
ENDBRANCH  14  17
ENDBRANCH   4  13
TORSDOF 2
ENDMDL
MODEL 8
REMARK VINA RESULT:      -7.0      3.986      5.244
REMARK  2 active torsions:
REMARK  status: ('A' for Active; 'I' for Inactive)
REMARK    1  A    between atoms: N_4  and  N_5 
REMARK       I    between atoms: N_5  and  C_6 
REMARK    2  A    between atoms: C_6  and  C_7 
ROOT
HETATM    1  C   UNL     1      44.423 -19.939   3.604  1.00  0.00     0.158 C 
HETATM    2  N   UNL     1      43.914 -18.626   3.991  1.00  0.00    -0.329 N 
HETATM    3  C   UNL     1      43.513 -17.635   3.184  1.00  0.00     0.166 A 
HETATM    4  N   UNL     1      43.515 -17.679   1.849  1.00  0.00    -0.277 N 
HETATM    5  S   UNL     1      42.973 -16.240   4.065  1.00  0.00    -0.050 SA
HETATM    6  C   UNL     1      43.304 -17.020   5.563  1.00  0.00     0.035 A 
HETATM    7  C   UNL     1      43.805 -18.300   5.341  1.00  0.00     0.053 A 
HETATM    8  C   UNL     1      43.123 -16.511   6.860  1.00  0.00     0.021 A 
HETATM    9  C   UNL     1      43.461 -17.326   7.943  1.00  0.00     0.002 A 
HETATM   10  C   UNL     1      43.963 -18.607   7.741  1.00  0.00     0.002 A 
HETATM   11  C   UNL     1      44.141 -19.108   6.445  1.00  0.00     0.031 A 
HETATM   12  H   UNL     1      43.851 -18.541   1.421  1.00  0.00     0.189 HD
ENDROOT
BRANCH   4  13
HETATM   13  N   UNL     1      43.120 -16.707   1.027  1.00  0.00    -0.263 N 
HETATM   14  C   UNL     1      41.808 -16.757   0.585  1.00  0.00     0.286 C 
HETATM   15  O   UNL     1      41.071 -17.670   0.956  1.00  0.00    -0.264 OA
HETATM   16  H   UNL     1      43.764 -15.973   0.747  1.00  0.00     0.190 HD
BRANCH  14  17
HETATM   17  C   UNL     1      41.389 -15.701  -0.304  1.00  0.00     0.103 A 
HETATM   18  N   UNL     1      40.721 -15.970  -1.485  1.00  0.00    -0.360 N 
HETATM   19  H   UNL     1      40.479 -16.901  -1.807  1.00  0.00     0.165 HD
HETATM   20  C   UNL     1      40.437 -14.806  -2.145  1.00  0.00     0.112 A 
HETATM   21  C   UNL     1      40.922 -13.767  -1.392  1.00  0.00     0.051 A 
HETATM   22 CL   UNL     1      40.838 -12.112  -1.748  1.00  0.00    -0.083 Cl
HETATM   23  C   UNL     1      41.522 -14.320  -0.236  1.00  0.00     0.060 A 
ENDBRANCH  14  17
ENDBRANCH   4  13
TORSDOF 2
ENDMDL
MODEL 9
REMARK VINA RESULT:      -6.9      4.660      5.318
REMARK  2 active torsions:
REMARK  status: ('A' for Active; 'I' for Inactive)
REMARK    1  A    between atoms: N_4  and  N_5 
REMARK       I    between atoms: N_5  and  C_6 
REMARK    2  A    between atoms: C_6  and  C_7 
ROOT
HETATM    1  C   UNL     1      43.843 -16.999   4.139  1.00  0.00     0.158 C 
HETATM    2  N   UNL     1      43.828 -17.324   5.563  1.00  0.00    -0.329 N 
HETATM    3  C   UNL     1      43.820 -16.471   6.596  1.00  0.00     0.166 A 
HETATM    4  N   UNL     1      43.829 -15.139   6.495  1.00  0.00    -0.277 N 
HETATM    5  S   UNL     1      43.796 -17.285   8.129  1.00  0.00    -0.050 SA
HETATM    6  C   UNL     1      43.802 -18.819   7.348  1.00  0.00     0.035 A 
HETATM    7  C   UNL     1      43.819 -18.657   5.965  1.00  0.00     0.053 A 
HETATM    8  C   UNL     1      43.791 -20.092   7.943  1.00  0.00     0.021 A 
HETATM    9  C   UNL     1      43.798 -21.212   7.110  1.00  0.00     0.002 A 
HETATM   10  C   UNL     1      43.815 -21.070   5.726  1.00  0.00     0.002 A 
HETATM   11  C   UNL     1      43.826 -19.799   5.139  1.00  0.00     0.031 A 
HETATM   12  H   UNL     1      43.845 -14.751   5.553  1.00  0.00     0.189 HD
ENDROOT
BRANCH   4  13
HETATM   13  N   UNL     1      43.820 -14.272   7.507  1.00  0.00    -0.263 N 
HETATM   14  C   UNL     1      44.935 -13.460   7.646  1.00  0.00     0.286 C 
HETATM   15  O   UNL     1      45.869 -13.563   6.850  1.00  0.00    -0.264 OA
HETATM   16  H   UNL     1      43.026 -14.222   8.140  1.00  0.00     0.190 HD
BRANCH  14  17
HETATM   17  C   UNL     1      44.917 -12.525   8.743  1.00  0.00     0.103 A 
HETATM   18  N   UNL     1      45.898 -11.560   8.889  1.00  0.00    -0.360 N 
HETATM   19  H   UNL     1      46.680 -11.438   8.255  1.00  0.00     0.165 HD
HETATM   20  C   UNL     1      45.656 -10.803  10.003  1.00  0.00     0.112 A 
HETATM   21  C   UNL     1      44.510 -11.275  10.592  1.00  0.00     0.051 A 
HETATM   22 CL   UNL     1      43.764 -10.697  11.998  1.00  0.00    -0.083 Cl
HETATM   23  C   UNL     1      44.041 -12.356   9.807  1.00  0.00     0.060 A 
ENDBRANCH  14  17
ENDBRANCH   4  13
TORSDOF 2
ENDMDL
MODEL 10
REMARK VINA RESULT:      -6.8      5.321      6.169
REMARK  2 active torsions:
REMARK  status: ('A' for Active; 'I' for Inactive)
REMARK    1  A    between atoms: N_4  and  N_5 
REMARK       I    between atoms: N_5  and  C_6 
REMARK    2  A    between atoms: C_6  and  C_7 
ROOT
HETATM    1  C   UNL     1      44.346 -17.399   1.357  1.00  0.00     0.158 C 
HETATM    2  N   UNL     1      43.011 -17.135   1.885  1.00  0.00    -0.329 N 
HETATM    3  C   UNL     1      41.934 -16.706   1.212  1.00  0.00     0.166 A 
HETATM    4  N   UNL     1      41.901 -16.437  -0.096  1.00  0.00    -0.277 N 
HETATM    5  S   UNL     1      40.541 -16.528   2.231  1.00  0.00    -0.050 SA
HETATM    6  C   UNL     1      41.441 -17.043   3.604  1.00  0.00     0.035 A 
HETATM    7  C   UNL     1      42.754 -17.331   3.240  1.00  0.00     0.053 A 
HETATM    8  C   UNL     1      40.994 -17.180   4.929  1.00  0.00     0.021 A 
HETATM    9  C   UNL     1      41.905 -17.617   5.893  1.00  0.00     0.002 A 
HETATM   10  C   UNL     1      43.221 -17.910   5.549  1.00  0.00     0.002 A 
HETATM   11  C   UNL     1      43.660 -17.770   4.226  1.00  0.00     0.031 A 
HETATM   12  H   UNL     1      42.770 -16.570  -0.613  1.00  0.00     0.189 HD
ENDROOT
BRANCH   4  13
HETATM   13  N   UNL     1      40.844 -16.012  -0.787  1.00  0.00    -0.263 N 
HETATM   14  C   UNL     1      40.877 -14.702  -1.239  1.00  0.00     0.286 C 
HETATM   15  O   UNL     1      41.856 -13.996  -0.995  1.00  0.00    -0.264 OA
HETATM   16  H   UNL     1      40.058 -16.631  -0.964  1.00  0.00     0.190 HD
BRANCH  14  17
HETATM   17  C   UNL     1      39.729 -14.251  -1.985  1.00  0.00     0.103 A 
HETATM   18  N   UNL     1      38.777 -15.137  -2.456  1.00  0.00    -0.360 N 
HETATM   19  H   UNL     1      38.810 -16.141  -2.317  1.00  0.00     0.165 HD
HETATM   20  C   UNL     1      37.795 -14.464  -3.131  1.00  0.00     0.112 A 
HETATM   21  C   UNL     1      38.105 -13.128  -3.101  1.00  0.00     0.051 A 
HETATM   22 CL   UNL     1      37.224 -11.852  -3.785  1.00  0.00    -0.083 Cl
HETATM   23  C   UNL     1      39.317 -12.987  -2.385  1.00  0.00     0.060 A 
ENDBRANCH  14  17
ENDBRANCH   4  13
TORSDOF 2
ENDMDL
