MODEL 1
REMARK VINA RESULT:      -8.8      0.000      0.000
REMARK  3 active torsions:
REMARK  status: ('A' for Active; 'I' for Inactive)
REMARK    1  A    between atoms: C_9  and  C_10 
REMARK       I    between atoms: C_10  and  N_11 
REMARK    2  A    between atoms: N_11  and  C_12 
REMARK    3  A    between atoms: C_14  and  C_15 
ROOT
HETATM    1  C   UNL     1      40.995 -15.827   5.662  1.00  0.00     0.277 C 
HETATM    2  N   UNL     1      41.721 -16.889   6.136  1.00  0.00    -0.322 N 
HETATM    3  O   UNL     1      39.953 -15.512   6.236  1.00  0.00    -0.266 OA
HETATM    4  H   UNL     1      41.242 -17.270   6.946  1.00  0.00     0.169 HD
ENDROOT
BRANCH   1   5
HETATM    5  C   UNL     1      41.410 -14.968   4.492  1.00  0.00     0.156 A 
HETATM    6  C   UNL     1      41.304 -15.530   3.125  1.00  0.00     0.016 A 
HETATM    7  C   UNL     1      40.771 -16.796   2.852  1.00  0.00     0.015 A 
HETATM    8  C   UNL     1      41.834 -14.772   2.083  1.00  0.00     0.046 A 
HETATM    9  C   UNL     1      40.798 -17.301   1.548  1.00  0.00     0.001 A 
HETATM   10  C   UNL     1      41.343 -16.544   0.512  1.00  0.00     0.001 A 
HETATM   11  C   UNL     1      41.856 -15.275   0.775  1.00  0.00     0.018 A 
HETATM   12  C   UNL     1      42.393 -13.442   2.377  1.00  0.00     0.272 A 
HETATM   13  O   UNL     1      42.822 -12.716   1.487  1.00  0.00    -0.266 OA
HETATM   14  N   UNL     1      42.398 -13.065   3.700  1.00  0.00    -0.242 N 
HETATM   15  N   UNL     1      41.957 -13.814   4.750  1.00  0.00    -0.166 NA
HETATM   16  H   UNL     1      42.825 -12.172   3.926  1.00  0.00     0.192 HD
ENDBRANCH   1   5
BRANCH   2  17
HETATM   17  C   UNL     1      42.856 -17.612   5.731  1.00  0.00     0.035 A 
HETATM   18  C   UNL     1      42.920 -18.549   4.698  1.00  0.00     0.042 A 
HETATM   19  C   UNL     1      44.096 -19.295   4.458  1.00  0.00    -0.021 A 
HETATM   20  C   UNL     1      45.229 -19.037   5.242  1.00  0.00     0.012 A 
HETATM   21  C   UNL     1      45.192 -18.075   6.247  1.00  0.00     0.003 A 
HETATM   22  C   UNL     1      44.013 -17.376   6.490  1.00  0.00     0.029 A 
BRANCH  19  23
HETATM   23  C   UNL     1      44.150 -20.348   3.445  1.00  0.00     0.010 A 
HETATM   24  C   UNL     1      44.707 -21.653   3.498  1.00  0.00     0.152 A 
HETATM   25  N   UNL     1      44.530 -22.346   2.370  1.00  0.00    -0.187 NA
HETATM   26  N   UNL     1      43.849 -21.497   1.588  1.00  0.00    -0.289 N 
HETATM   27  H   UNL     1      43.581 -21.808   0.660  1.00  0.00     0.188 HD
HETATM   28  C   UNL     1      43.601 -20.291   2.181  1.00  0.00     0.123 A 
ENDBRANCH  19  23
ENDBRANCH   2  17
TORSDOF 3
ENDMDL
MODEL 2
REMARK VINA RESULT:      -8.5      1.985      4.060
REMARK  3 active torsions:
REMARK  status: ('A' for Active; 'I' for Inactive)
REMARK    1  A    between atoms: C_9  and  C_10 
REMARK       I    between atoms: C_10  and  N_11 
REMARK    2  A    between atoms: N_11  and  C_12 
REMARK    3  A    between atoms: C_14  and  C_15 
ROOT
HETATM    1  C   UNL     1      40.713 -15.241   4.276  1.00  0.00     0.277 C 
HETATM    2  N   UNL     1      40.654 -16.182   3.281  1.00  0.00    -0.322 N 
HETATM    3  O   UNL     1      39.675 -14.682   4.631  1.00  0.00    -0.266 OA
HETATM    4  H   UNL     1      39.689 -16.270   2.978  1.00  0.00     0.169 HD
ENDROOT
BRANCH   1   5
HETATM    5  C   UNL     1      41.972 -14.863   5.017  1.00  0.00     0.156 A 
HETATM    6  C   UNL     1      42.503 -15.799   6.037  1.00  0.00     0.016 A 
HETATM    7  C   UNL     1      41.937 -17.053   6.302  1.00  0.00     0.015 A 
HETATM    8  C   UNL     1      43.577 -15.357   6.808  1.00  0.00     0.046 A 
HETATM    9  C   UNL     1      42.431 -17.837   7.349  1.00  0.00     0.001 A 
HETATM   10  C   UNL     1      43.495 -17.382   8.126  1.00  0.00     0.001 A 
HETATM   11  C   UNL     1      44.076 -16.145   7.853  1.00  0.00     0.018 A 
HETATM   12  C   UNL     1      44.166 -14.038   6.525  1.00  0.00     0.272 A 
HETATM   13  O   UNL     1      45.144 -13.628   7.140  1.00  0.00    -0.266 OA
HETATM   14  N   UNL     1      43.562 -13.303   5.531  1.00  0.00    -0.242 N 
HETATM   15  N   UNL     1      42.465 -13.676   4.812  1.00  0.00    -0.166 NA
HETATM   16  H   UNL     1      43.924 -12.371   5.357  1.00  0.00     0.192 HD
ENDBRANCH   1   5
BRANCH   2  17
HETATM   17  C   UNL     1      41.575 -16.942   2.540  1.00  0.00     0.035 A 
HETATM   18  C   UNL     1      42.075 -18.202   2.877  1.00  0.00     0.042 A 
HETATM   19  C   UNL     1      43.085 -18.819   2.105  1.00  0.00    -0.021 A 
HETATM   20  C   UNL     1      43.543 -18.168   0.950  1.00  0.00     0.012 A 
HETATM   21  C   UNL     1      43.023 -16.932   0.580  1.00  0.00     0.003 A 
HETATM   22  C   UNL     1      42.053 -16.325   1.373  1.00  0.00     0.029 A 
BRANCH  19  23
HETATM   23  C   UNL     1      43.688 -20.092   2.496  1.00  0.00     0.010 A 
HETATM   24  C   UNL     1      43.724 -21.343   1.826  1.00  0.00     0.152 A 
HETATM   25  N   UNL     1      44.408 -22.277   2.491  1.00  0.00    -0.187 NA
HETATM   26  N   UNL     1      44.826 -21.631   3.589  1.00  0.00    -0.289 N 
HETATM   27  H   UNL     1      45.391 -22.141   4.261  1.00  0.00     0.188 HD
HETATM   28  C   UNL     1      44.421 -20.328   3.641  1.00  0.00     0.123 A 
ENDBRANCH  19  23
ENDBRANCH   2  17
TORSDOF 3
ENDMDL
MODEL 3
REMARK VINA RESULT:      -8.4      2.040      2.646
REMARK  3 active torsions:
REMARK  status: ('A' for Active; 'I' for Inactive)
REMARK    1  A    between atoms: C_9  and  C_10 
REMARK       I    between atoms: C_10  and  N_11 
REMARK    2  A    between atoms: N_11  and  C_12 
REMARK    3  A    between atoms: C_14  and  C_15 
ROOT
HETATM    1  C   UNL     1      43.356 -14.441   5.000  1.00  0.00     0.277 C 
HETATM    2  N   UNL     1      44.118 -15.230   5.821  1.00  0.00    -0.322 N 
HETATM    3  O   UNL     1      43.658 -13.255   4.863  1.00  0.00    -0.266 OA
HETATM    4  H   UNL     1      44.864 -14.662   6.212  1.00  0.00     0.169 HD
ENDROOT
BRANCH   1   5
HETATM    5  C   UNL     1      42.179 -14.936   4.196  1.00  0.00     0.156 A 
HETATM    6  C   UNL     1      42.435 -15.810   3.026  1.00  0.00     0.016 A 
HETATM    7  C   UNL     1      43.711 -16.260   2.665  1.00  0.00     0.015 A 
HETATM    8  C   UNL     1      41.344 -16.126   2.218  1.00  0.00     0.046 A 
HETATM    9  C   UNL     1      43.887 -16.997   1.489  1.00  0.00     0.001 A 
HETATM   10  C   UNL     1      42.795 -17.297   0.678  1.00  0.00     0.001 A 
HETATM   11  C   UNL     1      41.519 -16.869   1.043  1.00  0.00     0.018 A 
HETATM   12  C   UNL     1      40.006 -15.649   2.603  1.00  0.00     0.272 A 
HETATM   13  O   UNL     1      39.008 -15.946   1.954  1.00  0.00    -0.266 OA
HETATM   14  N   UNL     1      39.942 -14.863   3.730  1.00  0.00    -0.242 N 
HETATM   15  N   UNL     1      40.999 -14.473   4.497  1.00  0.00    -0.166 NA
HETATM   16  H   UNL     1      39.034 -14.485   3.981  1.00  0.00     0.192 HD
ENDBRANCH   1   5
BRANCH   2  17
HETATM   17  C   UNL     1      44.060 -16.544   6.315  1.00  0.00     0.035 A 
HETATM   18  C   UNL     1      44.359 -17.711   5.610  1.00  0.00     0.042 A 
HETATM   19  C   UNL     1      44.155 -18.986   6.183  1.00  0.00    -0.021 A 
HETATM   20  C   UNL     1      43.697 -19.064   7.506  1.00  0.00     0.012 A 
HETATM   21  C   UNL     1      43.436 -17.909   8.236  1.00  0.00     0.003 A 
HETATM   22  C   UNL     1      43.612 -16.662   7.640  1.00  0.00     0.029 A 
BRANCH  19  23
HETATM   23  C   UNL     1      44.369 -20.219   5.426  1.00  0.00     0.010 A 
HETATM   24  C   UNL     1      44.527 -20.431   4.031  1.00  0.00     0.152 A 
HETATM   25  N   UNL     1      44.741 -21.710   3.715  1.00  0.00    -0.187 NA
HETATM   26  N   UNL     1      44.733 -22.329   4.904  1.00  0.00    -0.289 N 
HETATM   27  H   UNL     1      44.890 -23.331   4.926  1.00  0.00     0.188 HD
HETATM   28  C   UNL     1      44.512 -21.485   5.955  1.00  0.00     0.123 A 
ENDBRANCH  19  23
ENDBRANCH   2  17
TORSDOF 3
ENDMDL
MODEL 4
REMARK VINA RESULT:      -8.3      3.281      6.461
REMARK  3 active torsions:
REMARK  status: ('A' for Active; 'I' for Inactive)
REMARK    1  A    between atoms: C_9  and  C_10 
REMARK       I    between atoms: C_10  and  N_11 
REMARK    2  A    between atoms: N_11  and  C_12 
REMARK    3  A    between atoms: C_14  and  C_15 
ROOT
HETATM    1  C   UNL     1      43.358 -14.007   3.356  1.00  0.00     0.277 C 
HETATM    2  N   UNL     1      42.540 -13.384   2.450  1.00  0.00    -0.322 N 
HETATM    3  O   UNL     1      44.375 -13.429   3.738  1.00  0.00    -0.266 OA
HETATM    4  H   UNL     1      42.939 -12.477   2.227  1.00  0.00     0.169 HD
ENDROOT
BRANCH   1   5
HETATM    5  C   UNL     1      43.076 -15.357   3.969  1.00  0.00     0.156 A 
HETATM    6  C   UNL     1      43.324 -16.572   3.157  1.00  0.00     0.016 A 
HETATM    7  C   UNL     1      43.875 -16.538   1.870  1.00  0.00     0.015 A 
HETATM    8  C   UNL     1      42.913 -17.791   3.693  1.00  0.00     0.046 A 
HETATM    9  C   UNL     1      43.985 -17.716   1.123  1.00  0.00     0.001 A 
HETATM   10  C   UNL     1      43.558 -18.930   1.660  1.00  0.00     0.001 A 
HETATM   11  C   UNL     1      43.029 -18.972   2.949  1.00  0.00     0.018 A 
HETATM   12  C   UNL     1      42.335 -17.818   5.047  1.00  0.00     0.272 A 
HETATM   13  O   UNL     1      42.008 -18.872   5.582  1.00  0.00    -0.266 OA
HETATM   14  N   UNL     1      42.191 -16.601   5.671  1.00  0.00    -0.242 N 
HETATM   15  N   UNL     1      42.512 -15.385   5.143  1.00  0.00    -0.166 NA
HETATM   16  H   UNL     1      41.748 -16.597   6.584  1.00  0.00     0.192 HD
ENDBRANCH   1   5
BRANCH   2  17
HETATM   17  C   UNL     1      41.394 -13.721   1.709  1.00  0.00     0.035 A 
HETATM   18  C   UNL     1      41.350 -14.066   0.358  1.00  0.00     0.042 A 
HETATM   19  C   UNL     1      40.120 -14.276  -0.305  1.00  0.00    -0.021 A 
HETATM   20  C   UNL     1      38.932 -14.189   0.436  1.00  0.00     0.012 A 
HETATM   21  C   UNL     1      38.964 -13.888   1.794  1.00  0.00     0.003 A 
HETATM   22  C   UNL     1      40.185 -13.651   2.419  1.00  0.00     0.029 A 
BRANCH  19  23
HETATM   23  C   UNL     1      40.050 -14.542  -1.741  1.00  0.00     0.010 A 
HETATM   24  C   UNL     1      40.858 -15.364  -2.569  1.00  0.00     0.152 A 
HETATM   25  N   UNL     1      40.460 -15.381  -3.843  1.00  0.00    -0.187 NA
HETATM   26  N   UNL     1      39.387 -14.578  -3.843  1.00  0.00    -0.289 N 
HETATM   27  H   UNL     1      38.890 -14.438  -4.717  1.00  0.00     0.188 HD
HETATM   28  C   UNL     1      39.102 -14.050  -2.615  1.00  0.00     0.123 A 
ENDBRANCH  19  23
ENDBRANCH   2  17
TORSDOF 3
ENDMDL
MODEL 5
REMARK VINA RESULT:      -8.2      2.131      4.465
REMARK  3 active torsions:
REMARK  status: ('A' for Active; 'I' for Inactive)
REMARK    1  A    between atoms: C_9  and  C_10 
REMARK       I    between atoms: C_10  and  N_11 
REMARK    2  A    between atoms: N_11  and  C_12 
REMARK    3  A    between atoms: C_14  and  C_15 
ROOT
HETATM    1  C   UNL     1      40.819 -15.801   4.229  1.00  0.00     0.277 C 
HETATM    2  N   UNL     1      41.077 -16.396   3.021  1.00  0.00    -0.322 N 
HETATM    3  O   UNL     1      39.905 -14.979   4.306  1.00  0.00    -0.266 OA
HETATM    4  H   UNL     1      40.422 -16.032   2.336  1.00  0.00     0.169 HD
ENDROOT
BRANCH   1   5
HETATM    5  C   UNL     1      41.553 -16.118   5.508  1.00  0.00     0.156 A 
HETATM    6  C   UNL     1      42.743 -15.308   5.864  1.00  0.00     0.016 A 
HETATM    7  C   UNL     1      43.183 -14.213   5.109  1.00  0.00     0.015 A 
HETATM    8  C   UNL     1      43.486 -15.720   6.969  1.00  0.00     0.046 A 
HETATM    9  C   UNL     1      44.372 -13.560   5.449  1.00  0.00     0.001 A 
HETATM   10  C   UNL     1      45.119 -13.987   6.546  1.00  0.00     0.001 A 
HETATM   11  C   UNL     1      44.674 -15.063   7.313  1.00  0.00     0.018 A 
HETATM   12  C   UNL     1      43.017 -16.872   7.757  1.00  0.00     0.272 A 
HETATM   13  O   UNL     1      43.608 -17.239   8.767  1.00  0.00    -0.266 OA
HETATM   14  N   UNL     1      41.884 -17.501   7.298  1.00  0.00    -0.242 N 
HETATM   15  N   UNL     1      41.178 -17.169   6.179  1.00  0.00    -0.166 NA
HETATM   16  H   UNL     1      41.575 -18.327   7.801  1.00  0.00     0.192 HD
ENDBRANCH   1   5
BRANCH   2  17
HETATM   17  C   UNL     1      42.050 -17.266   2.500  1.00  0.00     0.035 A 
HETATM   18  C   UNL     1      42.492 -18.458   3.074  1.00  0.00     0.042 A 
HETATM   19  C   UNL     1      43.560 -19.192   2.508  1.00  0.00    -0.021 A 
HETATM   20  C   UNL     1      44.137 -18.731   1.317  1.00  0.00     0.012 A 
HETATM   21  C   UNL     1      43.677 -17.566   0.710  1.00  0.00     0.003 A 
HETATM   22  C   UNL     1      42.648 -16.840   1.303  1.00  0.00     0.029 A 
BRANCH  19  23
HETATM   23  C   UNL     1      44.100 -20.390   3.149  1.00  0.00     0.010 A 
HETATM   24  C   UNL     1      44.646 -20.578   4.446  1.00  0.00     0.152 A 
HETATM   25  N   UNL     1      45.008 -21.841   4.686  1.00  0.00    -0.187 NA
HETATM   26  N   UNL     1      44.688 -22.476   3.549  1.00  0.00    -0.289 N 
HETATM   27  H   UNL     1      44.862 -23.474   3.491  1.00  0.00     0.188 HD
HETATM   28  C   UNL     1      44.146 -21.656   2.601  1.00  0.00     0.123 A 
ENDBRANCH  19  23
ENDBRANCH   2  17
TORSDOF 3
ENDMDL
MODEL 6
REMARK VINA RESULT:      -8.1      2.733      4.190
REMARK  3 active torsions:
REMARK  status: ('A' for Active; 'I' for Inactive)
REMARK    1  A    between atoms: C_9  and  C_10 
REMARK       I    between atoms: C_10  and  N_11 
REMARK    2  A    between atoms: N_11  and  C_12 
REMARK    3  A    between atoms: C_14  and  C_15 
ROOT
HETATM    1  C   UNL     1      39.552 -14.933   1.343  1.00  0.00     0.277 C 
HETATM    2  N   UNL     1      39.982 -16.134   1.845  1.00  0.00    -0.322 N 
HETATM    3  O   UNL     1      38.343 -14.713   1.273  1.00  0.00    -0.266 OA
HETATM    4  H   UNL     1      39.168 -16.688   2.095  1.00  0.00     0.169 HD
ENDROOT
BRANCH   1   5
HETATM    5  C   UNL     1      40.470 -13.818   0.905  1.00  0.00     0.156 A 
HETATM    6  C   UNL     1      40.888 -13.760  -0.516  1.00  0.00     0.016 A 
HETATM    7  C   UNL     1      40.420 -14.647  -1.494  1.00  0.00     0.015 A 
HETATM    8  C   UNL     1      41.851 -12.812  -0.857  1.00  0.00     0.046 A 
HETATM    9  C   UNL     1      40.939 -14.596  -2.792  1.00  0.00     0.001 A 
HETATM   10  C   UNL     1      41.913 -13.655  -3.123  1.00  0.00     0.001 A 
HETATM   11  C   UNL     1      42.366 -12.756  -2.159  1.00  0.00     0.018 A 
HETATM   12  C   UNL     1      42.338 -11.883   0.175  1.00  0.00     0.272 A 
HETATM   13  O   UNL     1      43.145 -10.998  -0.089  1.00  0.00    -0.266 OA
HETATM   14  N   UNL     1      41.832 -12.062   1.442  1.00  0.00    -0.242 N 
HETATM   15  N   UNL     1      40.948 -13.028   1.823  1.00  0.00    -0.166 NA
HETATM   16  H   UNL     1      42.195 -11.463   2.176  1.00  0.00     0.192 HD
ENDBRANCH   1   5
BRANCH   2  17
HETATM   17  C   UNL     1      41.212 -16.798   1.990  1.00  0.00     0.035 A 
HETATM   18  C   UNL     1      41.765 -17.272   3.181  1.00  0.00     0.042 A 
HETATM   19  C   UNL     1      43.064 -17.825   3.216  1.00  0.00    -0.021 A 
HETATM   20  C   UNL     1      43.777 -17.948   2.015  1.00  0.00     0.012 A 
HETATM   21  C   UNL     1      43.220 -17.520   0.814  1.00  0.00     0.003 A 
HETATM   22  C   UNL     1      41.952 -16.945   0.807  1.00  0.00     0.029 A 
BRANCH  19  23
HETATM   23  C   UNL     1      43.697 -18.236   4.469  1.00  0.00     0.010 A 
HETATM   24  C   UNL     1      43.946 -17.507   5.661  1.00  0.00     0.152 A 
HETATM   25  N   UNL     1      44.521 -18.241   6.616  1.00  0.00    -0.187 NA
HETATM   26  N   UNL     1      44.637 -19.450   6.050  1.00  0.00    -0.289 N 
HETATM   27  H   UNL     1      45.046 -20.201   6.597  1.00  0.00     0.188 HD
HETATM   28  C   UNL     1      44.164 -19.499   4.769  1.00  0.00     0.123 A 
ENDBRANCH  19  23
ENDBRANCH   2  17
TORSDOF 3
ENDMDL
MODEL 7
REMARK VINA RESULT:      -7.9      3.551      6.800
REMARK  3 active torsions:
REMARK  status: ('A' for Active; 'I' for Inactive)
REMARK    1  A    between atoms: C_9  and  C_10 
REMARK       I    between atoms: C_10  and  N_11 
REMARK    2  A    between atoms: N_11  and  C_12 
REMARK    3  A    between atoms: C_14  and  C_15 
ROOT
HETATM    1  C   UNL     1      43.390 -14.227   3.097  1.00  0.00     0.277 C 
HETATM    2  N   UNL     1      42.378 -13.501   2.526  1.00  0.00    -0.322 N 
HETATM    3  O   UNL     1      44.310 -13.631   3.658  1.00  0.00    -0.266 OA
HETATM    4  H   UNL     1      42.568 -12.515   2.671  1.00  0.00     0.169 HD
ENDROOT
BRANCH   1   5
HETATM    5  C   UNL     1      43.441 -15.736   3.132  1.00  0.00     0.156 A 
HETATM    6  C   UNL     1      43.118 -16.428   4.402  1.00  0.00     0.016 A 
HETATM    7  C   UNL     1      42.696 -15.759   5.558  1.00  0.00     0.015 A 
HETATM    8  C   UNL     1      43.319 -17.806   4.444  1.00  0.00     0.046 A 
HETATM    9  C   UNL     1      42.508 -16.468   6.749  1.00  0.00     0.001 A 
HETATM   10  C   UNL     1      42.726 -17.844   6.788  1.00  0.00     0.001 A 
HETATM   11  C   UNL     1      43.125 -18.518   5.635  1.00  0.00     0.018 A 
HETATM   12  C   UNL     1      43.763 -18.502   3.225  1.00  0.00     0.272 A 
HETATM   13  O   UNL     1      43.903 -19.720   3.199  1.00  0.00    -0.266 OA
HETATM   14  N   UNL     1      44.001 -17.711   2.126  1.00  0.00    -0.242 N 
HETATM   15  N   UNL     1      43.887 -16.353   2.075  1.00  0.00    -0.166 NA
HETATM   16  H   UNL     1      44.355 -18.169   1.292  1.00  0.00     0.192 HD
ENDBRANCH   1   5
BRANCH   2  17
HETATM   17  C   UNL     1      41.249 -13.772   1.733  1.00  0.00     0.035 A 
HETATM   18  C   UNL     1      41.246 -14.112   0.380  1.00  0.00     0.042 A 
HETATM   19  C   UNL     1      40.037 -14.252  -0.338  1.00  0.00    -0.021 A 
HETATM   20  C   UNL     1      38.825 -14.100   0.349  1.00  0.00     0.012 A 
HETATM   21  C   UNL     1      38.812 -13.803   1.709  1.00  0.00     0.003 A 
HETATM   22  C   UNL     1      40.016 -13.635   2.389  1.00  0.00     0.029 A 
BRANCH  19  23
HETATM   23  C   UNL     1      40.017 -14.512  -1.777  1.00  0.00     0.010 A 
HETATM   24  C   UNL     1      40.961 -15.165  -2.611  1.00  0.00     0.152 A 
HETATM   25  N   UNL     1      40.572 -15.241  -3.887  1.00  0.00    -0.187 NA
HETATM   26  N   UNL     1      39.371 -14.646  -3.880  1.00  0.00    -0.289 N 
HETATM   27  H   UNL     1      38.857 -14.590  -4.753  1.00  0.00     0.188 HD
HETATM   28  C   UNL     1      38.995 -14.191  -2.648  1.00  0.00     0.123 A 
ENDBRANCH  19  23
ENDBRANCH   2  17
TORSDOF 3
ENDMDL
MODEL 8
REMARK VINA RESULT:      -7.9      3.538      5.859
REMARK  3 active torsions:
REMARK  status: ('A' for Active; 'I' for Inactive)
REMARK    1  A    between atoms: C_9  and  C_10 
REMARK       I    between atoms: C_10  and  N_11 
REMARK    2  A    between atoms: N_11  and  C_12 
REMARK    3  A    between atoms: C_14  and  C_15 
ROOT
HETATM    1  C   UNL     1      40.136 -14.418   4.645  1.00  0.00     0.277 C 
HETATM    2  N   UNL     1      39.745 -15.020   3.477  1.00  0.00    -0.322 N 
HETATM    3  O   UNL     1      39.278 -13.937   5.385  1.00  0.00    -0.266 OA
HETATM    4  H   UNL     1      38.734 -14.965   3.409  1.00  0.00     0.169 HD
ENDROOT
BRANCH   1   5
HETATM    5  C   UNL     1      41.565 -14.341   5.126  1.00  0.00     0.156 A 
HETATM    6  C   UNL     1      42.105 -15.464   5.929  1.00  0.00     0.016 A 
HETATM    7  C   UNL     1      41.381 -16.630   6.208  1.00  0.00     0.015 A 
HETATM    8  C   UNL     1      43.373 -15.296   6.484  1.00  0.00     0.046 A 
HETATM    9  C   UNL     1      41.919 -17.601   7.059  1.00  0.00     0.001 A 
HETATM   10  C   UNL     1      43.181 -17.420   7.623  1.00  0.00     0.001 A 
HETATM   11  C   UNL     1      43.914 -16.271   7.331  1.00  0.00     0.018 A 
HETATM   12  C   UNL     1      44.127 -14.067   6.187  1.00  0.00     0.272 A 
HETATM   13  O   UNL     1      45.266 -13.898   6.608  1.00  0.00    -0.266 OA
HETATM   14  N   UNL     1      43.485 -13.133   5.408  1.00  0.00    -0.242 N 
HETATM   15  N   UNL     1      42.218 -13.234   4.914  1.00  0.00    -0.166 NA
HETATM   16  H   UNL     1      43.971 -12.259   5.235  1.00  0.00     0.192 HD
ENDBRANCH   1   5
BRANCH   2  17
HETATM   17  C   UNL     1      40.380 -15.573   2.352  1.00  0.00     0.035 A 
HETATM   18  C   UNL     1      40.548 -14.963   1.108  1.00  0.00     0.042 A 
HETATM   19  C   UNL     1      41.106 -15.666   0.016  1.00  0.00    -0.021 A 
HETATM   20  C   UNL     1      41.548 -16.981   0.217  1.00  0.00     0.012 A 
HETATM   21  C   UNL     1      41.426 -17.587   1.464  1.00  0.00     0.003 A 
HETATM   22  C   UNL     1      40.842 -16.888   2.517  1.00  0.00     0.029 A 
BRANCH  19  23
HETATM   23  C   UNL     1      41.199 -15.075  -1.318  1.00  0.00     0.010 A 
HETATM   24  C   UNL     1      40.906 -15.623  -2.594  1.00  0.00     0.152 A 
HETATM   25  N   UNL     1      41.084 -14.755  -3.593  1.00  0.00    -0.187 NA
HETATM   26  N   UNL     1      41.483 -13.640  -2.967  1.00  0.00    -0.289 N 
HETATM   27  H   UNL     1      41.675 -12.816  -3.527  1.00  0.00     0.188 HD
HETATM   28  C   UNL     1      41.571 -13.779  -1.611  1.00  0.00     0.123 A 
ENDBRANCH  19  23
ENDBRANCH   2  17
TORSDOF 3
ENDMDL
MODEL 9
REMARK VINA RESULT:      -7.8      2.467      3.460
REMARK  3 active torsions:
REMARK  status: ('A' for Active; 'I' for Inactive)
REMARK    1  A    between atoms: C_9  and  C_10 
REMARK       I    between atoms: C_10  and  N_11 
REMARK    2  A    between atoms: N_11  and  C_12 
REMARK    3  A    between atoms: C_14  and  C_15 
ROOT
HETATM    1  C   UNL     1      39.296 -14.559   1.622  1.00  0.00     0.277 C 
HETATM    2  N   UNL     1      39.614 -15.546   2.518  1.00  0.00    -0.322 N 
HETATM    3  O   UNL     1      38.132 -14.456   1.236  1.00  0.00    -0.266 OA
HETATM    4  H   UNL     1      38.771 -16.069   2.733  1.00  0.00     0.169 HD
ENDROOT
BRANCH   1   5
HETATM    5  C   UNL     1      40.277 -13.539   1.096  1.00  0.00     0.156 A 
HETATM    6  C   UNL     1      40.751 -13.666  -0.303  1.00  0.00     0.016 A 
HETATM    7  C   UNL     1      40.283 -14.644  -1.190  1.00  0.00     0.015 A 
HETATM    8  C   UNL     1      41.766 -12.802  -0.710  1.00  0.00     0.046 A 
HETATM    9  C   UNL     1      40.853 -14.766  -2.462  1.00  0.00     0.001 A 
HETATM   10  C   UNL     1      41.878 -13.909  -2.857  1.00  0.00     0.001 A 
HETATM   11  C   UNL     1      42.333 -12.920  -1.986  1.00  0.00     0.018 A 
HETATM   12  C   UNL     1      42.253 -11.777   0.227  1.00  0.00     0.272 A 
HETATM   13  O   UNL     1      43.107 -10.960  -0.103  1.00  0.00    -0.266 OA
HETATM   14  N   UNL     1      41.692 -11.786   1.483  1.00  0.00    -0.242 N 
HETATM   15  N   UNL     1      40.753 -12.665   1.936  1.00  0.00    -0.166 NA
HETATM   16  H   UNL     1      42.052 -11.118   2.157  1.00  0.00     0.192 HD
ENDBRANCH   1   5
BRANCH   2  17
HETATM   17  C   UNL     1      40.787 -16.054   3.103  1.00  0.00     0.035 A 
HETATM   18  C   UNL     1      41.496 -17.186   2.696  1.00  0.00     0.042 A 
HETATM   19  C   UNL     1      42.601 -17.662   3.436  1.00  0.00    -0.021 A 
HETATM   20  C   UNL     1      43.018 -16.942   4.564  1.00  0.00     0.012 A 
HETATM   21  C   UNL     1      42.347 -15.788   4.956  1.00  0.00     0.003 A 
HETATM   22  C   UNL     1      41.239 -15.355   4.233  1.00  0.00     0.029 A 
BRANCH  19  23
HETATM   23  C   UNL     1      43.294 -18.900   3.081  1.00  0.00     0.010 A 
HETATM   24  C   UNL     1      44.309 -19.620   3.764  1.00  0.00     0.152 A 
HETATM   25  N   UNL     1      44.674 -20.740   3.135  1.00  0.00    -0.187 NA
HETATM   26  N   UNL     1      43.890 -20.754   2.048  1.00  0.00    -0.289 N 
HETATM   27  H   UNL     1      43.976 -21.533   1.403  1.00  0.00     0.188 HD
HETATM   28  C   UNL     1      43.052 -19.678   1.967  1.00  0.00     0.123 A 
ENDBRANCH  19  23
ENDBRANCH   2  17
TORSDOF 3
ENDMDL
MODEL 10
REMARK VINA RESULT:      -7.7      2.700      3.733
REMARK  3 active torsions:
REMARK  status: ('A' for Active; 'I' for Inactive)
REMARK    1  A    between atoms: C_9  and  C_10 
REMARK       I    between atoms: C_10  and  N_11 
REMARK    2  A    between atoms: N_11  and  C_12 
REMARK    3  A    between atoms: C_14  and  C_15 
ROOT
HETATM    1  C   UNL     1      39.624 -15.177   1.729  1.00  0.00     0.277 C 
HETATM    2  N   UNL     1      40.051 -15.902   2.811  1.00  0.00    -0.322 N 
HETATM    3  O   UNL     1      38.421 -14.955   1.595  1.00  0.00    -0.266 OA
HETATM    4  H   UNL     1      39.240 -16.155   3.368  1.00  0.00     0.169 HD
ENDROOT
BRANCH   1   5
HETATM    5  C   UNL     1      40.542 -14.578   0.691  1.00  0.00     0.156 A 
HETATM    6  C   UNL     1      40.905 -13.146   0.805  1.00  0.00     0.016 A 
HETATM    7  C   UNL     1      40.499 -12.331   1.869  1.00  0.00     0.015 A 
HETATM    8  C   UNL     1      41.629 -12.587  -0.247  1.00  0.00     0.046 A 
HETATM    9  C   UNL     1      40.794 -10.964   1.857  1.00  0.00     0.001 A 
HETATM   10  C   UNL     1      41.504 -10.408   0.794  1.00  0.00     0.001 A 
HETATM   11  C   UNL     1      41.930 -11.219  -0.257  1.00  0.00     0.018 A 
HETATM   12  C   UNL     1      42.052 -13.450  -1.362  1.00  0.00     0.272 A 
HETATM   13  O   UNL     1      42.735 -13.016  -2.284  1.00  0.00    -0.266 OA
HETATM   14  N   UNL     1      41.645 -14.762  -1.303  1.00  0.00    -0.242 N 
HETATM   15  N   UNL     1      40.874 -15.320  -0.327  1.00  0.00    -0.166 NA
HETATM   16  H   UNL     1      41.886 -15.359  -2.088  1.00  0.00     0.192 HD
ENDBRANCH   1   5
BRANCH   2  17
HETATM   17  C   UNL     1      41.266 -16.445   3.261  1.00  0.00     0.035 A 
HETATM   18  C   UNL     1      41.858 -17.631   2.826  1.00  0.00     0.042 A 
HETATM   19  C   UNL     1      43.030 -18.132   3.436  1.00  0.00    -0.021 A 
HETATM   20  C   UNL     1      43.631 -17.383   4.458  1.00  0.00     0.012 A 
HETATM   21  C   UNL     1      43.075 -16.176   4.872  1.00  0.00     0.003 A 
HETATM   22  C   UNL     1      41.900 -15.718   4.281  1.00  0.00     0.029 A 
BRANCH  19  23
HETATM   23  C   UNL     1      43.608 -19.421   3.059  1.00  0.00     0.010 A 
HETATM   24  C   UNL     1      44.521 -20.262   3.749  1.00  0.00     0.152 A 
HETATM   25  N   UNL     1      44.795 -21.392   3.092  1.00  0.00    -0.187 NA
HETATM   26  N   UNL     1      44.052 -21.291   1.981  1.00  0.00    -0.289 N 
HETATM   27  H   UNL     1      44.083 -22.054   1.312  1.00  0.00     0.188 HD
HETATM   28  C   UNL     1      43.330 -20.135   1.912  1.00  0.00     0.123 A 
ENDBRANCH  19  23
ENDBRANCH   2  17
TORSDOF 3
ENDMDL
