MODEL 1
REMARK VINA RESULT:      -9.6      0.000      0.000
REMARK  12 active torsions:
REMARK  status: ('A' for Active; 'I' for Inactive)
REMARK    1  A    between atoms: C_7  and  N_8 
REMARK    2  A    between atoms: C_12  and  N_13 
REMARK       I    between atoms: N_13  and  C_14 
REMARK    3  A    between atoms: C_14  and  C_15 
REMARK    4  A    between atoms: C_15  and  C_16 
REMARK    5  A    between atoms: C_16  and  C_17 
REMARK    6  A    between atoms: C_17  and  C_18 
REMARK    7  A    between atoms: C_18  and  C_19 
REMARK    8  A    between atoms: C_19  and  C_20 
REMARK    9  A    between atoms: C_20  and  C_21 
REMARK   10  A    between atoms: C_21  and  C_22 
REMARK       I    between atoms: C_22  and  N_23 
REMARK   11  A    between atoms: N_23  and  C_24 
REMARK   12  A    between atoms: C_33  and  N_34 
ROOT
HETATM    1  C   UNL     1      43.672 -20.530   1.877  1.00  0.00     0.000 C 
ENDROOT
BRANCH   1   2
HETATM    2  C   UNL     1      43.941 -19.055   2.193  1.00  0.00     0.000 C 
BRANCH   2   3
HETATM    3  C   UNL     1      43.784 -18.128   0.982  1.00  0.00     0.009 C 
BRANCH   3   4
HETATM    4  C   UNL     1      43.093 -16.790   1.259  1.00  0.00     0.103 C 
BRANCH   4   5
HETATM    5  C   UNL     1      41.583 -16.860   1.220  1.00  0.00     0.222 C 
HETATM    6  N   UNL     1      40.856 -16.184   0.282  1.00  0.00    -0.327 N 
HETATM    7  H   UNL     1      39.871 -16.362   0.456  1.00  0.00     0.169 HD
HETATM    8  O   UNL     1      40.944 -17.526   2.038  1.00  0.00    -0.273 OA
BRANCH   6   9
HETATM    9  C   UNL     1      41.155 -15.350  -0.810  1.00  0.00     0.035 A 
HETATM   10  C   UNL     1      40.968 -15.662  -2.151  1.00  0.00     0.032 A 
HETATM   11  C   UNL     1      41.273 -14.729  -3.151  1.00  0.00     0.033 A 
HETATM   12  C   UNL     1      41.779 -13.465  -2.823  1.00  0.00     0.044 A 
HETATM   13  N   UNL     1      42.020 -12.566  -3.796  1.00  0.00    -0.359 N 
HETATM   14  C   UNL     1      42.014 -13.119  -1.477  1.00  0.00     0.014 A 
HETATM   15  C   UNL     1      42.457 -11.320  -3.560  1.00  0.00     0.007 A 
HETATM   16  H   UNL     1      41.836 -12.841  -4.760  1.00  0.00     0.166 HD
HETATM   17  C   UNL     1      42.640 -10.384  -4.710  1.00  0.00     0.068 C 
HETATM   18  C   UNL     1      42.722 -10.933  -2.249  1.00  0.00     0.048 A 
HETATM   19  C   UNL     1      42.559 -11.840  -1.198  1.00  0.00     0.020 A 
HETATM   20  C   UNL     1      41.681 -14.083  -0.491  1.00  0.00     0.045 A 
BRANCH  19  21
HETATM   21  N   UNL     1      42.723 -11.368   0.110  1.00  0.00    -0.302 NA
HETATM   22  H   UNL     1      42.967 -12.058   0.814  1.00  0.00     0.124 HD
HETATM   23  H   UNL     1      43.302 -10.536   0.216  1.00  0.00     0.124 HD
ENDBRANCH  19  21
ENDBRANCH   6   9
ENDBRANCH   4   5
ENDBRANCH   3   4
ENDBRANCH   2   3
ENDBRANCH   1   2
BRANCH   1  24
HETATM   24  C   UNL     1      44.284 -21.442   2.945  1.00  0.00     0.000 C 
BRANCH  24  25
HETATM   25  C   UNL     1      45.077 -20.698   4.024  1.00  0.00     0.009 C 
BRANCH  25  26
HETATM   26  C   UNL     1      44.575 -20.878   5.453  1.00  0.00     0.103 C 
BRANCH  26  27
HETATM   27  C   UNL     1      44.079 -19.606   6.120  1.00  0.00     0.222 C 
HETATM   28  N   UNL     1      44.257 -18.471   5.346  1.00  0.00    -0.327 N 
HETATM   29  H   UNL     1      44.801 -18.587   4.498  1.00  0.00     0.169 HD
HETATM   30  O   UNL     1      43.562 -19.646   7.233  1.00  0.00    -0.273 OA
BRANCH  28  31
HETATM   31  C   UNL     1      43.795 -17.168   5.626  1.00  0.00     0.035 A 
HETATM   32  C   UNL     1      42.604 -16.637   5.118  1.00  0.00     0.045 A 
HETATM   33  C   UNL     1      42.179 -15.316   5.407  1.00  0.00     0.014 A 
HETATM   34  C   UNL     1      43.015 -14.528   6.230  1.00  0.00     0.044 A 
HETATM   35  C   UNL     1      40.979 -14.741   4.921  1.00  0.00     0.020 A 
HETATM   36  N   UNL     1      42.671 -13.257   6.503  1.00  0.00    -0.359 N 
HETATM   37  C   UNL     1      44.209 -15.053   6.743  1.00  0.00     0.033 A 
HETATM   38  H   UNL     1      43.292 -12.708   7.097  1.00  0.00     0.166 HD
HETATM   39  C   UNL     1      41.570 -12.664   6.012  1.00  0.00     0.007 A 
HETATM   40  C   UNL     1      41.311 -11.228   6.337  1.00  0.00     0.068 C 
HETATM   41  C   UNL     1      40.717 -13.396   5.193  1.00  0.00     0.048 A 
HETATM   42  C   UNL     1      44.596 -16.362   6.439  1.00  0.00     0.032 A 
BRANCH  35  43
HETATM   43  N   UNL     1      40.162 -15.391   3.986  1.00  0.00    -0.302 NA
HETATM   44  H   UNL     1      39.205 -15.055   3.913  1.00  0.00     0.124 HD
HETATM   45  H   UNL     1      40.184 -16.410   3.999  1.00  0.00     0.124 HD
ENDBRANCH  35  43
ENDBRANCH  28  31
ENDBRANCH  26  27
ENDBRANCH  25  26
ENDBRANCH  24  25
ENDBRANCH   1  24
TORSDOF 12
ENDMDL
MODEL 2
REMARK VINA RESULT:      -9.5      4.532      9.514
REMARK  12 active torsions:
REMARK  status: ('A' for Active; 'I' for Inactive)
REMARK    1  A    between atoms: C_7  and  N_8 
REMARK    2  A    between atoms: C_12  and  N_13 
REMARK       I    between atoms: N_13  and  C_14 
REMARK    3  A    between atoms: C_14  and  C_15 
REMARK    4  A    between atoms: C_15  and  C_16 
REMARK    5  A    between atoms: C_16  and  C_17 
REMARK    6  A    between atoms: C_17  and  C_18 
REMARK    7  A    between atoms: C_18  and  C_19 
REMARK    8  A    between atoms: C_19  and  C_20 
REMARK    9  A    between atoms: C_20  and  C_21 
REMARK   10  A    between atoms: C_21  and  C_22 
REMARK       I    between atoms: C_22  and  N_23 
REMARK   11  A    between atoms: N_23  and  C_24 
REMARK   12  A    between atoms: C_33  and  N_34 
ROOT
HETATM    1  C   UNL     1      43.974 -10.416  10.447  1.00  0.00     0.000 C 
ENDROOT
BRANCH   1   2
HETATM    2  C   UNL     1      43.661 -10.168  11.926  1.00  0.00     0.000 C 
BRANCH   2   3
HETATM    3  C   UNL     1      42.923 -11.329  12.602  1.00  0.00     0.009 C 
BRANCH   3   4
HETATM    4  C   UNL     1      41.579 -10.974  13.244  1.00  0.00     0.103 C 
BRANCH   4   5
HETATM    5  C   UNL     1      40.402 -11.719  12.653  1.00  0.00     0.222 C 
HETATM    6  N   UNL     1      39.883 -11.390  11.434  1.00  0.00    -0.327 N 
HETATM    7  H   UNL     1      39.096 -12.006  11.248  1.00  0.00     0.169 HD
HETATM    8  O   UNL     1      39.858 -12.649  13.252  1.00  0.00    -0.273 OA
BRANCH   6   9
HETATM    9  C   UNL     1      40.185 -10.449  10.435  1.00  0.00     0.035 A 
HETATM   10  C   UNL     1      40.182  -9.067  10.587  1.00  0.00     0.032 A 
HETATM   11  C   UNL     1      40.537  -8.230   9.520  1.00  0.00     0.033 A 
HETATM   12  C   UNL     1      40.895  -8.765   8.277  1.00  0.00     0.044 A 
HETATM   13  N   UNL     1      41.279  -7.945   7.280  1.00  0.00    -0.359 N 
HETATM   14  C   UNL     1      40.880 -10.159   8.069  1.00  0.00     0.014 A 
HETATM   15  C   UNL     1      41.683  -8.382   6.077  1.00  0.00     0.007 A 
HETATM   16  H   UNL     1      41.285  -6.942   7.459  1.00  0.00     0.166 HD
HETATM   17  C   UNL     1      42.141  -7.388   5.060  1.00  0.00     0.068 C 
HETATM   18  C   UNL     1      41.670  -9.750   5.815  1.00  0.00     0.048 A 
HETATM   19  C   UNL     1      41.218 -10.650   6.783  1.00  0.00     0.020 A 
HETATM   20  C   UNL     1      40.529 -10.976   9.175  1.00  0.00     0.045 A 
BRANCH  19  21
HETATM   21  N   UNL     1      41.337 -12.019   6.515  1.00  0.00    -0.302 NA
HETATM   22  H   UNL     1      41.123 -12.316   5.567  1.00  0.00     0.124 HD
HETATM   23  H   UNL     1      42.193 -12.466   6.838  1.00  0.00     0.124 HD
ENDBRANCH  19  21
ENDBRANCH   6   9
ENDBRANCH   4   5
ENDBRANCH   3   4
ENDBRANCH   2   3
ENDBRANCH   1   2
BRANCH   1  24
HETATM   24  C   UNL     1      45.313 -11.142  10.282  1.00  0.00     0.000 C 
BRANCH  24  25
HETATM   25  C   UNL     1      45.503 -11.799   8.911  1.00  0.00     0.009 C 
BRANCH  25  26
HETATM   26  C   UNL     1      44.386 -12.742   8.472  1.00  0.00     0.103 C 
BRANCH  26  27
HETATM   27  C   UNL     1      44.802 -13.791   7.455  1.00  0.00     0.222 C 
HETATM   28  N   UNL     1      43.932 -14.866   7.383  1.00  0.00    -0.327 N 
HETATM   29  H   UNL     1      43.203 -14.902   8.087  1.00  0.00     0.169 HD
HETATM   30  O   UNL     1      45.814 -13.636   6.777  1.00  0.00    -0.273 OA
BRANCH  28  31
HETATM   31  C   UNL     1      43.971 -15.933   6.461  1.00  0.00     0.035 A 
HETATM   32  C   UNL     1      43.304 -15.925   5.230  1.00  0.00     0.045 A 
HETATM   33  C   UNL     1      43.352 -17.023   4.335  1.00  0.00     0.014 A 
HETATM   34  C   UNL     1      44.097 -18.156   4.733  1.00  0.00     0.044 A 
HETATM   35  C   UNL     1      42.699 -17.055   3.077  1.00  0.00     0.020 A 
HETATM   36  N   UNL     1      44.142 -19.236   3.932  1.00  0.00    -0.359 N 
HETATM   37  C   UNL     1      44.768 -18.171   5.963  1.00  0.00     0.033 A 
HETATM   38  H   UNL     1      44.683 -20.042   4.242  1.00  0.00     0.166 HD
HETATM   39  C   UNL     1      43.488 -19.320   2.762  1.00  0.00     0.007 A 
HETATM   40  C   UNL     1      43.565 -20.588   1.975  1.00  0.00     0.068 C 
HETATM   41  C   UNL     1      42.737 -18.232   2.327  1.00  0.00     0.048 A 
HETATM   42  C   UNL     1      44.700 -17.069   6.820  1.00  0.00     0.032 A 
BRANCH  35  43
HETATM   43  N   UNL     1      41.824 -16.042   2.663  1.00  0.00    -0.302 NA
HETATM   44  H   UNL     1      40.928 -16.345   2.289  1.00  0.00     0.124 HD
HETATM   45  H   UNL     1      42.225 -15.308   2.082  1.00  0.00     0.124 HD
ENDBRANCH  35  43
ENDBRANCH  28  31
ENDBRANCH  26  27
ENDBRANCH  25  26
ENDBRANCH  24  25
ENDBRANCH   1  24
TORSDOF 12
ENDMDL
MODEL 3
REMARK VINA RESULT:      -9.4      1.980      7.497
REMARK  12 active torsions:
REMARK  status: ('A' for Active; 'I' for Inactive)
REMARK    1  A    between atoms: C_7  and  N_8 
REMARK    2  A    between atoms: C_12  and  N_13 
REMARK       I    between atoms: N_13  and  C_14 
REMARK    3  A    between atoms: C_14  and  C_15 
REMARK    4  A    between atoms: C_15  and  C_16 
REMARK    5  A    between atoms: C_16  and  C_17 
REMARK    6  A    between atoms: C_17  and  C_18 
REMARK    7  A    between atoms: C_18  and  C_19 
REMARK    8  A    between atoms: C_19  and  C_20 
REMARK    9  A    between atoms: C_20  and  C_21 
REMARK   10  A    between atoms: C_21  and  C_22 
REMARK       I    between atoms: C_22  and  N_23 
REMARK   11  A    between atoms: N_23  and  C_24 
REMARK   12  A    between atoms: C_33  and  N_34 
ROOT
HETATM    1  C   UNL     1      44.307 -21.376   2.792  1.00  0.00     0.000 C 
ENDROOT
BRANCH   1   2
HETATM    2  C   UNL     1      45.228 -20.944   3.938  1.00  0.00     0.000 C 
BRANCH   2   3
HETATM    3  C   UNL     1      44.754 -21.412   5.319  1.00  0.00     0.009 C 
BRANCH   3   4
HETATM    4  C   UNL     1      43.519 -20.694   5.871  1.00  0.00     0.103 C 
BRANCH   4   5
HETATM    5  C   UNL     1      43.595 -20.394   7.351  1.00  0.00     0.222 C 
HETATM    6  N   UNL     1      43.659 -19.114   7.822  1.00  0.00    -0.327 N 
HETATM    7  H   UNL     1      43.720 -19.152   8.836  1.00  0.00     0.169 HD
HETATM    8  O   UNL     1      43.608 -21.293   8.194  1.00  0.00    -0.273 OA
BRANCH   6   9
HETATM    9  C   UNL     1      43.654 -17.831   7.247  1.00  0.00     0.035 A 
HETATM   10  C   UNL     1      44.774 -17.058   6.963  1.00  0.00     0.032 A 
HETATM   11  C   UNL     1      44.640 -15.803   6.353  1.00  0.00     0.033 A 
HETATM   12  C   UNL     1      43.377 -15.297   6.024  1.00  0.00     0.044 A 
HETATM   13  N   UNL     1      43.274 -14.110   5.396  1.00  0.00    -0.359 N 
HETATM   14  C   UNL     1      42.212 -16.033   6.324  1.00  0.00     0.014 A 
HETATM   15  C   UNL     1      42.105 -13.581   5.003  1.00  0.00     0.007 A 
HETATM   16  H   UNL     1      44.131 -13.601   5.186  1.00  0.00     0.166 HD
HETATM   17  C   UNL     1      42.108 -12.282   4.263  1.00  0.00     0.068 C 
HETATM   18  C   UNL     1      40.924 -14.260   5.291  1.00  0.00     0.048 A 
HETATM   19  C   UNL     1      40.956 -15.462   6.001  1.00  0.00     0.020 A 
HETATM   20  C   UNL     1      42.387 -17.305   6.928  1.00  0.00     0.045 A 
BRANCH  19  21
HETATM   21  N   UNL     1      39.755 -16.164   6.160  1.00  0.00    -0.302 NA
HETATM   22  H   UNL     1      39.798 -17.021   6.705  1.00  0.00     0.124 HD
HETATM   23  H   UNL     1      38.946 -15.611   6.439  1.00  0.00     0.124 HD
ENDBRANCH  19  21
ENDBRANCH   6   9
ENDBRANCH   4   5
ENDBRANCH   3   4
ENDBRANCH   2   3
ENDBRANCH   1   2
BRANCH   1  24
HETATM   24  C   UNL     1      43.617 -20.166   2.155  1.00  0.00     0.000 C 
BRANCH  24  25
HETATM   25  C   UNL     1      44.111 -18.815   2.680  1.00  0.00     0.009 C 
BRANCH  25  26
HETATM   26  C   UNL     1      43.038 -17.905   3.271  1.00  0.00     0.103 C 
BRANCH  26  27
HETATM   27  C   UNL     1      42.696 -16.691   2.422  1.00  0.00     0.222 C 
HETATM   28  N   UNL     1      41.653 -16.911   1.539  1.00  0.00    -0.327 N 
HETATM   29  H   UNL     1      41.325 -17.867   1.461  1.00  0.00     0.169 HD
HETATM   30  O   UNL     1      43.310 -15.637   2.566  1.00  0.00    -0.273 OA
BRANCH  28  31
HETATM   31  C   UNL     1      41.023 -15.958   0.711  1.00  0.00     0.035 A 
HETATM   32  C   UNL     1      41.336 -15.771  -0.641  1.00  0.00     0.045 A 
HETATM   33  C   UNL     1      40.694 -14.791  -1.439  1.00  0.00     0.014 A 
HETATM   34  C   UNL     1      39.718 -13.982  -0.816  1.00  0.00     0.044 A 
HETATM   35  C   UNL     1      40.974 -14.574  -2.811  1.00  0.00     0.020 A 
HETATM   36  N   UNL     1      39.107 -13.015  -1.525  1.00  0.00    -0.359 N 
HETATM   37  C   UNL     1      39.399 -14.163   0.536  1.00  0.00     0.033 A 
HETATM   38  H   UNL     1      38.408 -12.442  -1.053  1.00  0.00     0.166 HD
HETATM   39  C   UNL     1      39.390 -12.745  -2.810  1.00  0.00     0.007 A 
HETATM   40  C   UNL     1      38.688 -11.612  -3.487  1.00  0.00     0.068 C 
HETATM   41  C   UNL     1      40.348 -13.512  -3.467  1.00  0.00     0.048 A 
HETATM   42  C   UNL     1      40.051 -15.141   1.293  1.00  0.00     0.032 A 
BRANCH  35  43
HETATM   43  N   UNL     1      42.023 -15.226  -3.474  1.00  0.00    -0.302 NA
HETATM   44  H   UNL     1      42.678 -14.631  -3.974  1.00  0.00     0.124 HD
HETATM   45  H   UNL     1      41.767 -16.033  -4.040  1.00  0.00     0.124 HD
ENDBRANCH  35  43
ENDBRANCH  28  31
ENDBRANCH  26  27
ENDBRANCH  25  26
ENDBRANCH  24  25
ENDBRANCH   1  24
TORSDOF 12
ENDMDL
MODEL 4
REMARK VINA RESULT:      -9.2      3.688      8.338
REMARK  12 active torsions:
REMARK  status: ('A' for Active; 'I' for Inactive)
REMARK    1  A    between atoms: C_7  and  N_8 
REMARK    2  A    between atoms: C_12  and  N_13 
REMARK       I    between atoms: N_13  and  C_14 
REMARK    3  A    between atoms: C_14  and  C_15 
REMARK    4  A    between atoms: C_15  and  C_16 
REMARK    5  A    between atoms: C_16  and  C_17 
REMARK    6  A    between atoms: C_17  and  C_18 
REMARK    7  A    between atoms: C_18  and  C_19 
REMARK    8  A    between atoms: C_19  and  C_20 
REMARK    9  A    between atoms: C_20  and  C_21 
REMARK   10  A    between atoms: C_21  and  C_22 
REMARK       I    between atoms: C_22  and  N_23 
REMARK   11  A    between atoms: N_23  and  C_24 
REMARK   12  A    between atoms: C_33  and  N_34 
ROOT
HETATM    1  C   UNL     1      44.149 -11.952  11.101  1.00  0.00     0.000 C 
ENDROOT
BRANCH   1   2
HETATM    2  C   UNL     1      43.661 -10.748  11.914  1.00  0.00     0.000 C 
BRANCH   2   3
HETATM    3  C   UNL     1      42.650  -9.871  11.166  1.00  0.00     0.009 C 
BRANCH   3   4
HETATM    4  C   UNL     1      41.912 -10.551  10.010  1.00  0.00     0.103 C 
BRANCH   4   5
HETATM    5  C   UNL     1      40.543 -11.075  10.380  1.00  0.00     0.222 C 
HETATM    6  N   UNL     1      39.596 -11.345   9.433  1.00  0.00    -0.327 N 
HETATM    7  H   UNL     1      38.757 -11.666   9.907  1.00  0.00     0.169 HD
HETATM    8  O   UNL     1      40.221 -11.275  11.554  1.00  0.00    -0.273 OA
BRANCH   6   9
HETATM    9  C   UNL     1      39.535 -11.283   8.030  1.00  0.00     0.035 A 
HETATM   10  C   UNL     1      39.421 -10.127   7.267  1.00  0.00     0.032 A 
HETATM   11  C   UNL     1      39.405 -10.194   5.867  1.00  0.00     0.033 A 
HETATM   12  C   UNL     1      39.495 -11.425   5.206  1.00  0.00     0.044 A 
HETATM   13  N   UNL     1      39.525 -11.463   3.861  1.00  0.00    -0.359 N 
HETATM   14  C   UNL     1      39.578 -12.625   5.942  1.00  0.00     0.014 A 
HETATM   15  C   UNL     1      39.660 -12.597   3.156  1.00  0.00     0.007 A 
HETATM   16  H   UNL     1      39.469 -10.581   3.354  1.00  0.00     0.166 HD
HETATM   17  C   UNL     1      39.737 -12.521   1.665  1.00  0.00     0.068 C 
HETATM   18  C   UNL     1      39.728 -13.811   3.834  1.00  0.00     0.048 A 
HETATM   19  C   UNL     1      39.633 -13.848   5.228  1.00  0.00     0.020 A 
HETATM   20  C   UNL     1      39.606 -12.518   7.356  1.00  0.00     0.045 A 
BRANCH  19  21
HETATM   21  N   UNL     1      39.827 -15.078   5.868  1.00  0.00    -0.302 NA
HETATM   22  H   UNL     1      40.672 -15.588   5.625  1.00  0.00     0.124 HD
HETATM   23  H   UNL     1      39.692 -15.084   6.878  1.00  0.00     0.124 HD
ENDBRANCH  19  21
ENDBRANCH   6   9
ENDBRANCH   4   5
ENDBRANCH   3   4
ENDBRANCH   2   3
ENDBRANCH   1   2
BRANCH   1  24
HETATM   24  C   UNL     1      45.492 -11.654  10.427  1.00  0.00     0.000 C 
BRANCH  24  25
HETATM   25  C   UNL     1      45.523 -11.967   8.928  1.00  0.00     0.009 C 
BRANCH  25  26
HETATM   26  C   UNL     1      44.389 -12.851   8.416  1.00  0.00     0.103 C 
BRANCH  26  27
HETATM   27  C   UNL     1      44.805 -13.889   7.387  1.00  0.00     0.222 C 
HETATM   28  N   UNL     1      43.977 -14.998   7.354  1.00  0.00    -0.327 N 
HETATM   29  H   UNL     1      43.279 -15.059   8.087  1.00  0.00     0.169 HD
HETATM   30  O   UNL     1      45.782 -13.696   6.668  1.00  0.00    -0.273 OA
BRANCH  28  31
HETATM   31  C   UNL     1      44.022 -16.067   6.435  1.00  0.00     0.035 A 
HETATM   32  C   UNL     1      43.404 -16.042   5.179  1.00  0.00     0.045 A 
HETATM   33  C   UNL     1      43.456 -17.143   4.287  1.00  0.00     0.014 A 
HETATM   34  C   UNL     1      44.152 -18.295   4.715  1.00  0.00     0.044 A 
HETATM   35  C   UNL     1      42.852 -17.158   3.005  1.00  0.00     0.020 A 
HETATM   36  N   UNL     1      44.197 -19.378   3.917  1.00  0.00    -0.359 N 
HETATM   37  C   UNL     1      44.773 -18.328   5.971  1.00  0.00     0.033 A 
HETATM   38  H   UNL     1      44.703 -20.199   4.249  1.00  0.00     0.166 HD
HETATM   39  C   UNL     1      43.588 -19.445   2.722  1.00  0.00     0.007 A 
HETATM   40  C   UNL     1      43.659 -20.717   1.940  1.00  0.00     0.068 C 
HETATM   41  C   UNL     1      42.886 -18.337   2.258  1.00  0.00     0.048 A 
HETATM   42  C   UNL     1      44.704 -17.222   6.824  1.00  0.00     0.032 A 
BRANCH  35  43
HETATM   43  N   UNL     1      42.023 -16.121   2.556  1.00  0.00    -0.302 NA
HETATM   44  H   UNL     1      41.932 -16.022   1.548  1.00  0.00     0.124 HD
HETATM   45  H   UNL     1      42.159 -15.212   2.995  1.00  0.00     0.124 HD
ENDBRANCH  35  43
ENDBRANCH  28  31
ENDBRANCH  26  27
ENDBRANCH  25  26
ENDBRANCH  24  25
ENDBRANCH   1  24
TORSDOF 12
ENDMDL
MODEL 5
REMARK VINA RESULT:      -9.2      1.736      2.427
REMARK  12 active torsions:
REMARK  status: ('A' for Active; 'I' for Inactive)
REMARK    1  A    between atoms: C_7  and  N_8 
REMARK    2  A    between atoms: C_12  and  N_13 
REMARK       I    between atoms: N_13  and  C_14 
REMARK    3  A    between atoms: C_14  and  C_15 
REMARK    4  A    between atoms: C_15  and  C_16 
REMARK    5  A    between atoms: C_16  and  C_17 
REMARK    6  A    between atoms: C_17  and  C_18 
REMARK    7  A    between atoms: C_18  and  C_19 
REMARK    8  A    between atoms: C_19  and  C_20 
REMARK    9  A    between atoms: C_20  and  C_21 
REMARK   10  A    between atoms: C_21  and  C_22 
REMARK       I    between atoms: C_22  and  N_23 
REMARK   11  A    between atoms: N_23  and  C_24 
REMARK   12  A    between atoms: C_33  and  N_34 
ROOT
HETATM    1  C   UNL     1      44.072 -20.008   2.621  1.00  0.00     0.000 C 
ENDROOT
BRANCH   1   2
HETATM    2  C   UNL     1      44.266 -18.515   2.337  1.00  0.00     0.000 C 
BRANCH   2   3
HETATM    3  C   UNL     1      43.809 -18.091   0.936  1.00  0.00     0.009 C 
BRANCH   3   4
HETATM    4  C   UNL     1      42.990 -16.800   0.871  1.00  0.00     0.103 C 
BRANCH   4   5
HETATM    5  C   UNL     1      41.508 -17.024   0.667  1.00  0.00     0.222 C 
HETATM    6  N   UNL     1      40.800 -16.334  -0.276  1.00  0.00    -0.327 N 
HETATM    7  H   UNL     1      39.830 -16.631  -0.224  1.00  0.00     0.169 HD
HETATM    8  O   UNL     1      40.875 -17.834   1.348  1.00  0.00    -0.273 OA
BRANCH   6   9
HETATM    9  C   UNL     1      41.103 -15.365  -1.249  1.00  0.00     0.035 A 
HETATM   10  C   UNL     1      40.893 -15.488  -2.617  1.00  0.00     0.032 A 
HETATM   11  C   UNL     1      41.204 -14.433  -3.485  1.00  0.00     0.033 A 
HETATM   12  C   UNL     1      41.741 -13.236  -2.996  1.00  0.00     0.044 A 
HETATM   13  N   UNL     1      41.990 -12.218  -3.841  1.00  0.00    -0.359 N 
HETATM   14  C   UNL     1      42.001 -13.081  -1.619  1.00  0.00     0.014 A 
HETATM   15  C   UNL     1      42.456 -11.024  -3.444  1.00  0.00     0.007 A 
HETATM   16  H   UNL     1      41.788 -12.355  -4.831  1.00  0.00     0.166 HD
HETATM   17  C   UNL     1      42.644  -9.944  -4.459  1.00  0.00     0.068 C 
HETATM   18  C   UNL     1      42.746 -10.825  -2.097  1.00  0.00     0.048 A 
HETATM   19  C   UNL     1      42.577 -11.863  -1.177  1.00  0.00     0.020 A 
HETATM   20  C   UNL     1      41.660 -14.164  -0.768  1.00  0.00     0.045 A 
BRANCH  19  21
HETATM   21  N   UNL     1      42.767 -11.577   0.180  1.00  0.00    -0.302 NA
HETATM   22  H   UNL     1      42.724 -12.365   0.820  1.00  0.00     0.124 HD
HETATM   23  H   UNL     1      43.566 -10.985   0.405  1.00  0.00     0.124 HD
ENDBRANCH  19  21
ENDBRANCH   6   9
ENDBRANCH   4   5
ENDBRANCH   3   4
ENDBRANCH   2   3
ENDBRANCH   1   2
BRANCH   1  24
HETATM   24  C   UNL     1      44.321 -20.325   4.099  1.00  0.00     0.000 C 
BRANCH  24  25
HETATM   25  C   UNL     1      44.668 -19.100   4.951  1.00  0.00     0.009 C 
BRANCH  25  26
HETATM   26  C   UNL     1      43.549 -18.587   5.852  1.00  0.00     0.103 C 
BRANCH  26  27
HETATM   27  C   UNL     1      42.555 -17.660   5.170  1.00  0.00     0.222 C 
HETATM   28  N   UNL     1      42.974 -16.342   5.120  1.00  0.00    -0.327 N 
HETATM   29  H   UNL     1      43.813 -16.117   5.644  1.00  0.00     0.169 HD
HETATM   30  O   UNL     1      41.506 -18.102   4.710  1.00  0.00    -0.273 OA
BRANCH  28  31
HETATM   31  C   UNL     1      42.342 -15.273   4.452  1.00  0.00     0.035 A 
HETATM   32  C   UNL     1      41.161 -15.405   3.711  1.00  0.00     0.045 A 
HETATM   33  C   UNL     1      40.563 -14.311   3.037  1.00  0.00     0.014 A 
HETATM   34  C   UNL     1      41.211 -13.059   3.125  1.00  0.00     0.044 A 
HETATM   35  C   UNL     1      39.365 -14.398   2.284  1.00  0.00     0.020 A 
HETATM   36  N   UNL     1      40.699 -11.999   2.472  1.00  0.00    -0.359 N 
HETATM   37  C   UNL     1      42.393 -12.918   3.864  1.00  0.00     0.033 A 
HETATM   38  H   UNL     1      41.186 -11.107   2.548  1.00  0.00     0.166 HD
HETATM   39  C   UNL     1      39.599 -12.061   1.704  1.00  0.00     0.007 A 
HETATM   40  C   UNL     1      39.146 -10.834   0.981  1.00  0.00     0.068 C 
HETATM   41  C   UNL     1      38.926 -13.273   1.583  1.00  0.00     0.048 A 
HETATM   42  C   UNL     1      42.954 -14.019   4.518  1.00  0.00     0.032 A 
BRANCH  35  43
HETATM   43  N   UNL     1      38.733 -15.621   2.023  1.00  0.00    -0.302 NA
HETATM   44  H   UNL     1      38.921 -16.375   2.680  1.00  0.00     0.124 HD
HETATM   45  H   UNL     1      38.786 -15.961   1.064  1.00  0.00     0.124 HD
ENDBRANCH  35  43
ENDBRANCH  28  31
ENDBRANCH  26  27
ENDBRANCH  25  26
ENDBRANCH  24  25
ENDBRANCH   1  24
TORSDOF 12
ENDMDL
MODEL 6
REMARK VINA RESULT:      -8.9      2.800      8.133
REMARK  12 active torsions:
REMARK  status: ('A' for Active; 'I' for Inactive)
REMARK    1  A    between atoms: C_7  and  N_8 
REMARK    2  A    between atoms: C_12  and  N_13 
REMARK       I    between atoms: N_13  and  C_14 
REMARK    3  A    between atoms: C_14  and  C_15 
REMARK    4  A    between atoms: C_15  and  C_16 
REMARK    5  A    between atoms: C_16  and  C_17 
REMARK    6  A    between atoms: C_17  and  C_18 
REMARK    7  A    between atoms: C_18  and  C_19 
REMARK    8  A    between atoms: C_19  and  C_20 
REMARK    9  A    between atoms: C_20  and  C_21 
REMARK   10  A    between atoms: C_21  and  C_22 
REMARK       I    between atoms: C_22  and  N_23 
REMARK   11  A    between atoms: N_23  and  C_24 
REMARK   12  A    between atoms: C_33  and  N_34 
ROOT
HETATM    1  C   UNL     1      38.330 -12.650  -0.278  1.00  0.00     0.000 C 
ENDROOT
BRANCH   1   2
HETATM    2  C   UNL     1      38.212 -12.767   1.245  1.00  0.00     0.000 C 
BRANCH   2   3
HETATM    3  C   UNL     1      38.164 -11.415   1.964  1.00  0.00     0.009 C 
BRANCH   3   4
HETATM    4  C   UNL     1      39.267 -11.178   3.000  1.00  0.00     0.103 C 
BRANCH   4   5
HETATM    5  C   UNL     1      40.665 -11.195   2.422  1.00  0.00     0.222 C 
HETATM    6  N   UNL     1      41.607 -12.088   2.848  1.00  0.00    -0.327 N 
HETATM    7  H   UNL     1      42.467 -11.907   2.339  1.00  0.00     0.169 HD
HETATM    8  O   UNL     1      41.014 -10.400   1.547  1.00  0.00    -0.273 OA
BRANCH   6   9
HETATM    9  C   UNL     1      41.643 -13.143   3.777  1.00  0.00     0.035 A 
HETATM   10  C   UNL     1      40.651 -14.098   3.968  1.00  0.00     0.032 A 
HETATM   11  C   UNL     1      40.821 -15.126   4.904  1.00  0.00     0.033 A 
HETATM   12  C   UNL     1      41.988 -15.211   5.674  1.00  0.00     0.044 A 
HETATM   13  N   UNL     1      42.150 -16.234   6.534  1.00  0.00    -0.359 N 
HETATM   14  C   UNL     1      43.005 -14.244   5.536  1.00  0.00     0.014 A 
HETATM   15  C   UNL     1      43.259 -16.413   7.269  1.00  0.00     0.007 A 
HETATM   16  H   UNL     1      41.402 -16.921   6.611  1.00  0.00     0.166 HD
HETATM   17  C   UNL     1      43.358 -17.614   8.153  1.00  0.00     0.068 C 
HETATM   18  C   UNL     1      44.286 -15.477   7.183  1.00  0.00     0.048 A 
HETATM   19  C   UNL     1      44.152 -14.355   6.361  1.00  0.00     0.020 A 
HETATM   20  C   UNL     1      42.805 -13.226   4.568  1.00  0.00     0.045 A 
BRANCH  19  21
HETATM   21  N   UNL     1      45.258 -13.509   6.217  1.00  0.00    -0.302 NA
HETATM   22  H   UNL     1      45.252 -12.656   6.770  1.00  0.00     0.124 HD
HETATM   23  H   UNL     1      46.173 -13.955   6.269  1.00  0.00     0.124 HD
ENDBRANCH  19  21
ENDBRANCH   6   9
ENDBRANCH   4   5
ENDBRANCH   3   4
ENDBRANCH   2   3
ENDBRANCH   1   2
BRANCH   1  24
HETATM   24  C   UNL     1      39.406 -13.595  -0.821  1.00  0.00     0.000 C 
BRANCH  24  25
HETATM   25  C   UNL     1      40.306 -14.205   0.258  1.00  0.00     0.009 C 
BRANCH  25  26
HETATM   26  C   UNL     1      41.174 -15.377  -0.192  1.00  0.00     0.103 C 
BRANCH  26  27
HETATM   27  C   UNL     1      41.372 -16.461   0.855  1.00  0.00     0.222 C 
HETATM   28  N   UNL     1      42.644 -17.007   0.850  1.00  0.00    -0.327 N 
HETATM   29  H   UNL     1      43.250 -16.728   0.085  1.00  0.00     0.169 HD
HETATM   30  O   UNL     1      40.459 -16.766   1.617  1.00  0.00    -0.273 OA
BRANCH  28  31
HETATM   31  C   UNL     1      43.176 -17.936   1.769  1.00  0.00     0.035 A 
HETATM   32  C   UNL     1      43.392 -19.288   1.475  1.00  0.00     0.045 A 
HETATM   33  C   UNL     1      43.913 -20.197   2.430  1.00  0.00     0.014 A 
HETATM   34  C   UNL     1      44.201 -19.694   3.718  1.00  0.00     0.044 A 
HETATM   35  C   UNL     1      44.154 -21.570   2.173  1.00  0.00     0.020 A 
HETATM   36  N   UNL     1      44.664 -20.528   4.668  1.00  0.00    -0.359 N 
HETATM   37  C   UNL     1      43.988 -18.343   4.020  1.00  0.00     0.033 A 
HETATM   38  H   UNL     1      44.863 -20.142   5.590  1.00  0.00     0.166 HD
HETATM   39  C   UNL     1      44.849 -21.844   4.474  1.00  0.00     0.007 A 
HETATM   40  C   UNL     1      45.318 -22.688   5.615  1.00  0.00     0.068 C 
HETATM   41  C   UNL     1      44.575 -22.388   3.223  1.00  0.00     0.048 A 
HETATM   42  C   UNL     1      43.476 -17.473   3.052  1.00  0.00     0.032 A 
BRANCH  35  43
HETATM   43  N   UNL     1      43.765 -22.187   0.976  1.00  0.00    -0.302 NA
HETATM   44  H   UNL     1      44.438 -22.825   0.559  1.00  0.00     0.124 HD
HETATM   45  H   UNL     1      43.360 -21.580   0.266  1.00  0.00     0.124 HD
ENDBRANCH  35  43
ENDBRANCH  28  31
ENDBRANCH  26  27
ENDBRANCH  25  26
ENDBRANCH  24  25
ENDBRANCH   1  24
TORSDOF 12
ENDMDL
MODEL 7
REMARK VINA RESULT:      -8.9      1.689      5.303
REMARK  12 active torsions:
REMARK  status: ('A' for Active; 'I' for Inactive)
REMARK    1  A    between atoms: C_7  and  N_8 
REMARK    2  A    between atoms: C_12  and  N_13 
REMARK       I    between atoms: N_13  and  C_14 
REMARK    3  A    between atoms: C_14  and  C_15 
REMARK    4  A    between atoms: C_15  and  C_16 
REMARK    5  A    between atoms: C_16  and  C_17 
REMARK    6  A    between atoms: C_17  and  C_18 
REMARK    7  A    between atoms: C_18  and  C_19 
REMARK    8  A    between atoms: C_19  and  C_20 
REMARK    9  A    between atoms: C_20  and  C_21 
REMARK   10  A    between atoms: C_21  and  C_22 
REMARK       I    between atoms: C_22  and  N_23 
REMARK   11  A    between atoms: N_23  and  C_24 
REMARK   12  A    between atoms: C_33  and  N_34 
ROOT
HETATM    1  C   UNL     1      39.077 -11.657   3.818  1.00  0.00     0.000 C 
ENDROOT
BRANCH   1   2
HETATM    2  C   UNL     1      39.128 -12.430   2.495  1.00  0.00     0.000 C 
BRANCH   2   3
HETATM    3  C   UNL     1      39.765 -13.818   2.618  1.00  0.00     0.009 C 
BRANCH   3   4
HETATM    4  C   UNL     1      39.178 -14.898   1.705  1.00  0.00     0.103 C 
BRANCH   4   5
HETATM    5  C   UNL     1      40.103 -16.071   1.468  1.00  0.00     0.222 C 
HETATM    6  N   UNL     1      40.905 -16.142   0.365  1.00  0.00    -0.327 N 
HETATM    7  H   UNL     1      41.422 -17.015   0.405  1.00  0.00     0.169 HD
HETATM    8  O   UNL     1      40.167 -17.015   2.259  1.00  0.00    -0.273 OA
BRANCH   6   9
HETATM    9  C   UNL     1      41.160 -15.318  -0.745  1.00  0.00     0.035 A 
HETATM   10  C   UNL     1      40.887 -15.627  -2.073  1.00  0.00     0.032 A 
HETATM   11  C   UNL     1      41.156 -14.703  -3.091  1.00  0.00     0.033 A 
HETATM   12  C   UNL     1      41.713 -13.453  -2.797  1.00  0.00     0.044 A 
HETATM   13  N   UNL     1      41.921 -12.562  -3.785  1.00  0.00    -0.359 N 
HETATM   14  C   UNL     1      42.037 -13.111  -1.468  1.00  0.00     0.014 A 
HETATM   15  C   UNL     1      42.403 -11.327  -3.579  1.00  0.00     0.007 A 
HETATM   16  H   UNL     1      41.673 -12.833  -4.736  1.00  0.00     0.166 HD
HETATM   17  C   UNL     1      42.542 -10.398  -4.741  1.00  0.00     0.068 C 
HETATM   18  C   UNL     1      42.755 -10.946  -2.286  1.00  0.00     0.048 A 
HETATM   19  C   UNL     1      42.630 -11.846  -1.225  1.00  0.00     0.020 A 
HETATM   20  C   UNL     1      41.737 -14.065  -0.461  1.00  0.00     0.045 A 
BRANCH  19  21
HETATM   21  N   UNL     1      42.883 -11.377   0.069  1.00  0.00    -0.302 NA
HETATM   22  H   UNL     1      43.438 -11.980   0.670  1.00  0.00     0.124 HD
HETATM   23  H   UNL     1      43.208 -10.414   0.141  1.00  0.00     0.124 HD
ENDBRANCH  19  21
ENDBRANCH   6   9
ENDBRANCH   4   5
ENDBRANCH   3   4
ENDBRANCH   2   3
ENDBRANCH   1   2
BRANCH   1  24
HETATM   24  C   UNL     1      39.902 -12.361   4.899  1.00  0.00     0.000 C 
BRANCH  24  25
HETATM   25  C   UNL     1      41.279 -11.734   5.141  1.00  0.00     0.009 C 
BRANCH  25  26
HETATM   26  C   UNL     1      42.244 -12.568   5.979  1.00  0.00     0.103 C 
BRANCH  26  27
HETATM   27  C   UNL     1      42.918 -13.706   5.230  1.00  0.00     0.222 C 
HETATM   28  N   UNL     1      42.658 -14.953   5.771  1.00  0.00    -0.327 N 
HETATM   29  H   UNL     1      42.169 -14.964   6.660  1.00  0.00     0.169 HD
HETATM   30  O   UNL     1      43.600 -13.479   4.235  1.00  0.00    -0.273 OA
BRANCH  28  31
HETATM   31  C   UNL     1      43.031 -16.206   5.241  1.00  0.00     0.035 A 
HETATM   32  C   UNL     1      43.250 -16.442   3.878  1.00  0.00     0.045 A 
HETATM   33  C   UNL     1      43.608 -17.719   3.378  1.00  0.00     0.014 A 
HETATM   34  C   UNL     1      43.727 -18.774   4.311  1.00  0.00     0.044 A 
HETATM   35  C   UNL     1      43.846 -18.000   2.010  1.00  0.00     0.020 A 
HETATM   36  N   UNL     1      44.030 -20.012   3.879  1.00  0.00    -0.359 N 
HETATM   37  C   UNL     1      43.510 -18.545   5.676  1.00  0.00     0.033 A 
HETATM   38  H   UNL     1      44.107 -20.756   4.570  1.00  0.00     0.166 HD
HETATM   39  C   UNL     1      44.205 -20.323   2.584  1.00  0.00     0.007 A 
HETATM   40  C   UNL     1      44.487 -21.742   2.209  1.00  0.00     0.068 C 
HETATM   41  C   UNL     1      44.094 -19.320   1.626  1.00  0.00     0.048 A 
HETATM   42  C   UNL     1      43.160 -17.272   6.135  1.00  0.00     0.032 A 
BRANCH  35  43
HETATM   43  N   UNL     1      43.612 -17.057   1.000  1.00  0.00    -0.302 NA
HETATM   44  H   UNL     1      44.190 -16.221   1.023  1.00  0.00     0.124 HD
HETATM   45  H   UNL     1      42.639 -16.815   0.825  1.00  0.00     0.124 HD
ENDBRANCH  35  43
ENDBRANCH  28  31
ENDBRANCH  26  27
ENDBRANCH  25  26
ENDBRANCH  24  25
ENDBRANCH   1  24
TORSDOF 12
ENDMDL
MODEL 8
REMARK VINA RESULT:      -8.8      3.058      7.788
REMARK  12 active torsions:
REMARK  status: ('A' for Active; 'I' for Inactive)
REMARK    1  A    between atoms: C_7  and  N_8 
REMARK    2  A    between atoms: C_12  and  N_13 
REMARK       I    between atoms: N_13  and  C_14 
REMARK    3  A    between atoms: C_14  and  C_15 
REMARK    4  A    between atoms: C_15  and  C_16 
REMARK    5  A    between atoms: C_16  and  C_17 
REMARK    6  A    between atoms: C_17  and  C_18 
REMARK    7  A    between atoms: C_18  and  C_19 
REMARK    8  A    between atoms: C_19  and  C_20 
REMARK    9  A    between atoms: C_20  and  C_21 
REMARK   10  A    between atoms: C_21  and  C_22 
REMARK       I    between atoms: C_22  and  N_23 
REMARK   11  A    between atoms: N_23  and  C_24 
REMARK   12  A    between atoms: C_33  and  N_34 
ROOT
HETATM    1  C   UNL     1      37.675 -13.255   1.063  1.00  0.00     0.000 C 
ENDROOT
BRANCH   1   2
HETATM    2  C   UNL     1      38.487 -14.426   1.628  1.00  0.00     0.000 C 
BRANCH   2   3
HETATM    3  C   UNL     1      39.455 -15.048   0.616  1.00  0.00     0.009 C 
BRANCH   3   4
HETATM    4  C   UNL     1      40.658 -15.781   1.217  1.00  0.00     0.103 C 
BRANCH   4   5
HETATM    5  C   UNL     1      41.796 -15.994   0.243  1.00  0.00     0.222 C 
HETATM    6  N   UNL     1      42.891 -16.742   0.570  1.00  0.00    -0.327 N 
HETATM    7  H   UNL     1      43.527 -16.734  -0.222  1.00  0.00     0.169 HD
HETATM    8  O   UNL     1      41.785 -15.495  -0.885  1.00  0.00    -0.273 OA
BRANCH   6   9
HETATM    9  C   UNL     1      43.303 -17.481   1.693  1.00  0.00     0.035 A 
HETATM   10  C   UNL     1      43.482 -16.983   2.978  1.00  0.00     0.032 A 
HETATM   11  C   UNL     1      43.863 -17.831   4.026  1.00  0.00     0.033 A 
HETATM   12  C   UNL     1      44.080 -19.196   3.802  1.00  0.00     0.044 A 
HETATM   13  N   UNL     1      44.399 -20.002   4.832  1.00  0.00    -0.359 N 
HETATM   14  C   UNL     1      43.941 -19.737   2.507  1.00  0.00     0.014 A 
HETATM   15  C   UNL     1      44.573 -21.327   4.708  1.00  0.00     0.007 A 
HETATM   16  H   UNL     1      44.488 -19.586   5.758  1.00  0.00     0.166 HD
HETATM   17  C   UNL     1      44.872 -22.137   5.927  1.00  0.00     0.068 C 
HETATM   18  C   UNL     1      44.466 -21.908   3.447  1.00  0.00     0.048 A 
HETATM   19  C   UNL     1      44.204 -21.118   2.325  1.00  0.00     0.020 A 
HETATM   20  C   UNL     1      43.540 -18.851   1.474  1.00  0.00     0.045 A 
BRANCH  19  21
HETATM   21  N   UNL     1      43.987 -21.764   1.102  1.00  0.00    -0.302 NA
HETATM   22  H   UNL     1      44.782 -22.248   0.697  1.00  0.00     0.124 HD
HETATM   23  H   UNL     1      43.154 -22.348   1.046  1.00  0.00     0.124 HD
ENDBRANCH  19  21
ENDBRANCH   6   9
ENDBRANCH   4   5
ENDBRANCH   3   4
ENDBRANCH   2   3
ENDBRANCH   1   2
BRANCH   1  24
HETATM   24  C   UNL     1      38.579 -12.263   0.327  1.00  0.00     0.000 C 
BRANCH  24  25
HETATM   25  C   UNL     1      39.233 -11.218   1.237  1.00  0.00     0.009 C 
BRANCH  25  26
HETATM   26  C   UNL     1      40.755 -11.142   1.165  1.00  0.00     0.103 C 
BRANCH  26  27
HETATM   27  C   UNL     1      41.485 -12.182   1.999  1.00  0.00     0.222 C 
HETATM   28  N   UNL     1      40.924 -12.379   3.250  1.00  0.00    -0.327 N 
HETATM   29  H   UNL     1      40.188 -11.735   3.518  1.00  0.00     0.169 HD
HETATM   30  O   UNL     1      42.463 -12.770   1.546  1.00  0.00    -0.273 OA
BRANCH  28  31
HETATM   31  C   UNL     1      41.290 -13.353   4.202  1.00  0.00     0.035 A 
HETATM   32  C   UNL     1      42.548 -13.414   4.812  1.00  0.00     0.045 A 
HETATM   33  C   UNL     1      42.887 -14.417   5.754  1.00  0.00     0.014 A 
HETATM   34  C   UNL     1      41.902 -15.384   6.057  1.00  0.00     0.044 A 
HETATM   35  C   UNL     1      44.144 -14.511   6.401  1.00  0.00     0.020 A 
HETATM   36  N   UNL     1      42.190 -16.377   6.919  1.00  0.00    -0.359 N 
HETATM   37  C   UNL     1      40.640 -15.330   5.451  1.00  0.00     0.033 A 
HETATM   38  H   UNL     1      41.464 -17.065   7.119  1.00  0.00     0.166 HD
HETATM   39  C   UNL     1      43.389 -16.528   7.504  1.00  0.00     0.007 A 
HETATM   40  C   UNL     1      43.617 -17.698   8.405  1.00  0.00     0.068 C 
HETATM   41  C   UNL     1      44.394 -15.604   7.235  1.00  0.00     0.048 A 
HETATM   42  C   UNL     1      40.340 -14.324   4.528  1.00  0.00     0.032 A 
BRANCH  35  43
HETATM   43  N   UNL     1      45.225 -13.688   6.058  1.00  0.00    -0.302 NA
HETATM   44  H   UNL     1      46.022 -14.148   5.625  1.00  0.00     0.124 HD
HETATM   45  H   UNL     1      45.535 -13.030   6.771  1.00  0.00     0.124 HD
ENDBRANCH  35  43
ENDBRANCH  28  31
ENDBRANCH  26  27
ENDBRANCH  25  26
ENDBRANCH  24  25
ENDBRANCH   1  24
TORSDOF 12
ENDMDL
MODEL 9
REMARK VINA RESULT:      -8.8      1.502      8.483
REMARK  12 active torsions:
REMARK  status: ('A' for Active; 'I' for Inactive)
REMARK    1  A    between atoms: C_7  and  N_8 
REMARK    2  A    between atoms: C_12  and  N_13 
REMARK       I    between atoms: N_13  and  C_14 
REMARK    3  A    between atoms: C_14  and  C_15 
REMARK    4  A    between atoms: C_15  and  C_16 
REMARK    5  A    between atoms: C_16  and  C_17 
REMARK    6  A    between atoms: C_17  and  C_18 
REMARK    7  A    between atoms: C_18  and  C_19 
REMARK    8  A    between atoms: C_19  and  C_20 
REMARK    9  A    between atoms: C_20  and  C_21 
REMARK   10  A    between atoms: C_21  and  C_22 
REMARK       I    between atoms: C_22  and  N_23 
REMARK   11  A    between atoms: N_23  and  C_24 
REMARK   12  A    between atoms: C_33  and  N_34 
ROOT
HETATM    1  C   UNL     1      44.035 -18.396   2.061  1.00  0.00     0.000 C 
ENDROOT
BRANCH   1   2
HETATM    2  C   UNL     1      43.173 -19.661   1.983  1.00  0.00     0.000 C 
BRANCH   2   3
HETATM    3  C   UNL     1      43.962 -20.957   2.203  1.00  0.00     0.009 C 
BRANCH   3   4
HETATM    4  C   UNL     1      45.102 -20.872   3.221  1.00  0.00     0.103 C 
BRANCH   4   5
HETATM    5  C   UNL     1      44.755 -21.439   4.579  1.00  0.00     0.222 C 
HETATM    6  N   UNL     1      44.431 -20.632   5.633  1.00  0.00    -0.327 N 
HETATM    7  H   UNL     1      44.253 -21.223   6.441  1.00  0.00     0.169 HD
HETATM    8  O   UNL     1      44.756 -22.653   4.794  1.00  0.00    -0.273 OA
BRANCH   6   9
HETATM    9  C   UNL     1      44.292 -19.248   5.832  1.00  0.00     0.035 A 
HETATM   10  C   UNL     1      45.275 -18.388   6.308  1.00  0.00     0.032 A 
HETATM   11  C   UNL     1      45.025 -17.014   6.429  1.00  0.00     0.033 A 
HETATM   12  C   UNL     1      43.779 -16.478   6.082  1.00  0.00     0.044 A 
HETATM   13  N   UNL     1      43.575 -15.150   6.161  1.00  0.00    -0.359 N 
HETATM   14  C   UNL     1      42.743 -17.319   5.626  1.00  0.00     0.014 A 
HETATM   15  C   UNL     1      42.428 -14.555   5.800  1.00  0.00     0.007 A 
HETATM   16  H   UNL     1      44.342 -14.565   6.489  1.00  0.00     0.166 HD
HETATM   17  C   UNL     1      42.327 -13.066   5.876  1.00  0.00     0.068 C 
HETATM   18  C   UNL     1      41.367 -15.342   5.359  1.00  0.00     0.048 A 
HETATM   19  C   UNL     1      41.489 -16.733   5.319  1.00  0.00     0.020 A 
HETATM   20  C   UNL     1      43.036 -18.702   5.502  1.00  0.00     0.045 A 
BRANCH  19  21
HETATM   21  N   UNL     1      40.440 -17.469   4.757  1.00  0.00    -0.302 NA
HETATM   22  H   UNL     1      40.694 -18.161   4.057  1.00  0.00     0.124 HD
HETATM   23  H   UNL     1      39.768 -17.864   5.413  1.00  0.00     0.124 HD
ENDBRANCH  19  21
ENDBRANCH   6   9
ENDBRANCH   4   5
ENDBRANCH   3   4
ENDBRANCH   2   3
ENDBRANCH   1   2
BRANCH   1  24
HETATM   24  C   UNL     1      43.496 -17.304   1.131  1.00  0.00     0.000 C 
BRANCH  24  25
HETATM   25  C   UNL     1      41.989 -17.393   0.871  1.00  0.00     0.009 C 
BRANCH  25  26
HETATM   26  C   UNL     1      41.145 -16.293   1.508  1.00  0.00     0.103 C 
BRANCH  26  27
HETATM   27  C   UNL     1      40.889 -15.089   0.615  1.00  0.00     0.222 C 
HETATM   28  N   UNL     1      41.873 -14.888  -0.337  1.00  0.00    -0.327 N 
HETATM   29  H   UNL     1      42.702 -15.467  -0.256  1.00  0.00     0.169 HD
HETATM   30  O   UNL     1      39.876 -14.410   0.761  1.00  0.00    -0.273 OA
BRANCH  28  31
HETATM   31  C   UNL     1      41.866 -13.941  -1.382  1.00  0.00     0.035 A 
HETATM   32  C   UNL     1      42.436 -12.666  -1.285  1.00  0.00     0.045 A 
HETATM   33  C   UNL     1      42.395 -11.734  -2.351  1.00  0.00     0.014 A 
HETATM   34  C   UNL     1      41.736 -12.129  -3.537  1.00  0.00     0.044 A 
HETATM   35  C   UNL     1      42.966 -10.437  -2.298  1.00  0.00     0.020 A 
HETATM   36  N   UNL     1      41.641 -11.264  -4.563  1.00  0.00    -0.359 N 
HETATM   37  C   UNL     1      41.163 -13.403  -3.643  1.00  0.00     0.033 A 
HETATM   38  H   UNL     1      41.159 -11.571  -5.407  1.00  0.00     0.166 HD
HETATM   39  C   UNL     1      42.120 -10.010  -4.524  1.00  0.00     0.007 A 
HETATM   40  C   UNL     1      41.912  -9.115  -5.703  1.00  0.00     0.068 C 
HETATM   41  C   UNL     1      42.773  -9.571  -3.377  1.00  0.00     0.048 A 
HETATM   42  C   UNL     1      41.225 -14.299  -2.571  1.00  0.00     0.032 A 
BRANCH  35  43
HETATM   43  N   UNL     1      43.509  -9.907  -1.121  1.00  0.00    -0.302 NA
HETATM   44  H   UNL     1      44.431 -10.247  -0.857  1.00  0.00     0.124 HD
HETATM   45  H   UNL     1      42.893  -9.880  -0.311  1.00  0.00     0.124 HD
ENDBRANCH  35  43
ENDBRANCH  28  31
ENDBRANCH  26  27
ENDBRANCH  25  26
ENDBRANCH  24  25
ENDBRANCH   1  24
TORSDOF 12
ENDMDL
MODEL 10
REMARK VINA RESULT:      -8.7      2.704      7.137
REMARK  12 active torsions:
REMARK  status: ('A' for Active; 'I' for Inactive)
REMARK    1  A    between atoms: C_7  and  N_8 
REMARK    2  A    between atoms: C_12  and  N_13 
REMARK       I    between atoms: N_13  and  C_14 
REMARK    3  A    between atoms: C_14  and  C_15 
REMARK    4  A    between atoms: C_15  and  C_16 
REMARK    5  A    between atoms: C_16  and  C_17 
REMARK    6  A    between atoms: C_17  and  C_18 
REMARK    7  A    between atoms: C_18  and  C_19 
REMARK    8  A    between atoms: C_19  and  C_20 
REMARK    9  A    between atoms: C_20  and  C_21 
REMARK   10  A    between atoms: C_21  and  C_22 
REMARK       I    between atoms: C_22  and  N_23 
REMARK   11  A    between atoms: N_23  and  C_24 
REMARK   12  A    between atoms: C_33  and  N_34 
ROOT
HETATM    1  C   UNL     1      40.163 -12.209  -2.096  1.00  0.00     0.000 C 
ENDROOT
BRANCH   1   2
HETATM    2  C   UNL     1      39.704 -11.972  -0.653  1.00  0.00     0.000 C 
BRANCH   2   3
HETATM    3  C   UNL     1      38.728 -13.036  -0.136  1.00  0.00     0.009 C 
BRANCH   3   4
HETATM    4  C   UNL     1      38.619 -13.146   1.387  1.00  0.00     0.103 C 
BRANCH   4   5
HETATM    5  C   UNL     1      37.994 -11.937   2.047  1.00  0.00     0.222 C 
HETATM    6  N   UNL     1      38.427 -11.475   3.256  1.00  0.00    -0.327 N 
HETATM    7  H   UNL     1      37.858 -10.672   3.511  1.00  0.00     0.169 HD
HETATM    8  O   UNL     1      37.063 -11.322   1.522  1.00  0.00    -0.273 OA
BRANCH   6   9
HETATM    9  C   UNL     1      39.431 -11.840   4.170  1.00  0.00     0.035 A 
HETATM   10  C   UNL     1      39.370 -11.700   5.552  1.00  0.00     0.032 A 
HETATM   11  C   UNL     1      40.426 -12.137   6.362  1.00  0.00     0.033 A 
HETATM   12  C   UNL     1      41.571 -12.715   5.799  1.00  0.00     0.044 A 
HETATM   13  N   UNL     1      42.554 -13.170   6.598  1.00  0.00    -0.359 N 
HETATM   14  C   UNL     1      41.690 -12.845   4.400  1.00  0.00     0.014 A 
HETATM   15  C   UNL     1      43.658 -13.780   6.138  1.00  0.00     0.007 A 
HETATM   16  H   UNL     1      42.441 -13.068   7.605  1.00  0.00     0.166 HD
HETATM   17  C   UNL     1      44.662 -14.297   7.117  1.00  0.00     0.068 C 
HETATM   18  C   UNL     1      43.832 -13.918   4.764  1.00  0.00     0.048 A 
HETATM   19  C   UNL     1      42.882 -13.406   3.877  1.00  0.00     0.020 A 
HETATM   20  C   UNL     1      40.594 -12.406   3.612  1.00  0.00     0.045 A 
BRANCH  19  21
HETATM   21  N   UNL     1      43.043 -13.675   2.512  1.00  0.00    -0.302 NA
HETATM   22  H   UNL     1      43.921 -13.384   2.093  1.00  0.00     0.124 HD
HETATM   23  H   UNL     1      42.806 -14.620   2.211  1.00  0.00     0.124 HD
ENDBRANCH  19  21
ENDBRANCH   6   9
ENDBRANCH   4   5
ENDBRANCH   3   4
ENDBRANCH   2   3
ENDBRANCH   1   2
BRANCH   1  24
HETATM   24  C   UNL     1      39.824 -13.630  -2.556  1.00  0.00     0.000 C 
BRANCH  24  25
HETATM   25  C   UNL     1      41.001 -14.608  -2.482  1.00  0.00     0.009 C 
BRANCH  25  26
HETATM   26  C   UNL     1      40.785 -15.833  -1.599  1.00  0.00     0.103 C 
BRANCH  26  27
HETATM   27  C   UNL     1      41.397 -15.733  -0.211  1.00  0.00     0.222 C 
HETATM   28  N   UNL     1      41.120 -16.824   0.595  1.00  0.00    -0.327 N 
HETATM   29  H   UNL     1      40.450 -17.493   0.230  1.00  0.00     0.169 HD
HETATM   30  O   UNL     1      42.078 -14.760   0.101  1.00  0.00    -0.273 OA
BRANCH  28  31
HETATM   31  C   UNL     1      41.639 -17.088   1.879  1.00  0.00     0.035 A 
HETATM   32  C   UNL     1      41.030 -16.669   3.068  1.00  0.00     0.045 A 
HETATM   33  C   UNL     1      41.589 -16.937   4.342  1.00  0.00     0.014 A 
HETATM   34  C   UNL     1      42.813 -17.643   4.381  1.00  0.00     0.044 A 
HETATM   35  C   UNL     1      41.003 -16.539   5.570  1.00  0.00     0.020 A 
HETATM   36  N   UNL     1      43.400 -17.890   5.566  1.00  0.00    -0.359 N 
HETATM   37  C   UNL     1      43.429 -18.066   3.195  1.00  0.00     0.033 A 
HETATM   38  H   UNL     1      44.284 -18.398   5.568  1.00  0.00     0.166 HD
HETATM   39  C   UNL     1      42.900 -17.477   6.742  1.00  0.00     0.007 A 
HETATM   40  C   UNL     1      43.662 -17.760   7.996  1.00  0.00     0.068 C 
HETATM   41  C   UNL     1      41.699 -16.774   6.757  1.00  0.00     0.048 A 
HETATM   42  C   UNL     1      42.847 -17.786   1.955  1.00  0.00     0.032 A 
BRANCH  35  43
HETATM   43  N   UNL     1      39.871 -15.715   5.625  1.00  0.00    -0.302 NA
HETATM   44  H   UNL     1      40.002 -14.750   5.330  1.00  0.00     0.124 HD
HETATM   45  H   UNL     1      39.324 -15.755   6.484  1.00  0.00     0.124 HD
ENDBRANCH  35  43
ENDBRANCH  28  31
ENDBRANCH  26  27
ENDBRANCH  25  26
ENDBRANCH  24  25
ENDBRANCH   1  24
TORSDOF 12
ENDMDL
