MODEL 1
REMARK VINA RESULT:      -9.9      0.000      0.000
REMARK  6 active torsions:
REMARK  status: ('A' for Active; 'I' for Inactive)
REMARK    1  A    between atoms: C_4  and  C_5 
REMARK    2  A    between atoms: C_5  and  N_6 
REMARK    3  A    between atoms: C_14  and  C_15 
REMARK    4  A    between atoms: C_18  and  O_19 
REMARK    5  A    between atoms: O_19  and  C_20 
REMARK    6  A    between atoms: C_20  and  C_21 
ROOT
HETATM    1  N   UNL     1      41.167  -8.837   9.393  1.00  0.00    -0.063 N 
HETATM    2  H   UNL     1      42.021  -9.404   9.440  1.00  0.00     0.280 HD
HETATM    3  C   UNL     1      40.025  -9.831   9.546  1.00  0.00     0.282 C 
HETATM    4  C   UNL     1      39.982 -10.741   8.366  1.00  0.00     0.018 A 
HETATM    5  C   UNL     1      40.599 -10.497   7.153  1.00  0.00    -0.023 A 
HETATM    6  C   UNL     1      40.333 -11.549   6.218  1.00  0.00     0.073 A 
HETATM    7  C   UNL     1      39.507 -12.508   6.752  1.00  0.00     0.088 A 
HETATM    8  N   UNL     1      39.065 -13.577   6.063  1.00  0.00    -0.358 N 
HETATM    9  C   UNL     1      39.692 -13.938   4.810  1.00  0.00     0.219 C 
HETATM   10  N   UNL     1      40.342 -12.807   4.194  1.00  0.00    -0.332 N 
HETATM   11  C   UNL     1      40.787 -11.694   4.849  1.00  0.00     0.256 C 
HETATM   12  O   UNL     1      41.519 -10.875   4.305  1.00  0.00    -0.267 OA
HETATM   13  S   UNL     1      39.091 -12.189   8.369  1.00  0.00    -0.074 SA
HETATM   14  C   UNL     1      41.428  -9.267   6.926  1.00  0.00     0.068 C 
HETATM   15  C   UNL     1      41.162  -8.200   8.008  1.00  0.00     0.240 C 
HETATM   16  H   UNL     1      38.633 -14.348   6.562  1.00  0.00     0.162 HD
HETATM   17  H   UNL     1      40.708 -12.929   3.261  1.00  0.00     0.165 HD
ENDROOT
BRANCH   9  18
HETATM   18  C   UNL     1      40.605 -15.133   5.005  1.00  0.00    -0.016 A 
HETATM   19  C   UNL     1      41.479 -15.506   3.968  1.00  0.00     0.014 A 
HETATM   20  C   UNL     1      42.341 -16.600   4.103  1.00  0.00     0.037 A 
HETATM   21  C   UNL     1      42.349 -17.341   5.282  1.00  0.00     0.069 A 
HETATM   22  C   UNL     1      41.460 -17.003   6.304  1.00  0.00     0.037 A 
HETATM   23  C   UNL     1      40.594 -15.915   6.169  1.00  0.00     0.014 A 
BRANCH  21  24
HETATM   24  O   UNL     1      43.158 -18.409   5.555  1.00  0.00    -0.347 OA
BRANCH  24  25
HETATM   25  C   UNL     1      44.373 -18.506   4.812  1.00  0.00     0.214 C 
BRANCH  25  26
HETATM   26  C   UNL     1      44.284 -19.709   3.906  1.00  0.00    -0.034 A 
HETATM   27  C   UNL     1      43.672 -19.607   2.648  1.00  0.00     0.009 A 
HETATM   28  C   UNL     1      43.589 -20.720   1.810  1.00  0.00     0.001 A 
HETATM   29  C   UNL     1      44.110 -21.946   2.222  1.00  0.00     0.000 A 
HETATM   30  C   UNL     1      44.711 -22.060   3.474  1.00  0.00     0.001 A 
HETATM   31  C   UNL     1      44.795 -20.949   4.313  1.00  0.00     0.009 A 
ENDBRANCH  25  26
ENDBRANCH  24  25
ENDBRANCH  21  24
ENDBRANCH   9  18
BRANCH   1  32
HETATM   32  C   UNL     1      41.269  -7.855  10.533  1.00  0.00     0.273 C 
BRANCH  32  33
HETATM   33  C   UNL     1      41.964  -8.355  11.770  1.00  0.00    -0.033 A 
HETATM   34  C   UNL     1      42.927  -9.375  11.682  1.00  0.00     0.009 A 
HETATM   35  C   UNL     1      43.548  -9.865  12.830  1.00  0.00     0.001 A 
HETATM   36  C   UNL     1      43.221  -9.342  14.079  1.00  0.00     0.000 A 
HETATM   37  C   UNL     1      42.279  -8.322  14.180  1.00  0.00     0.001 A 
HETATM   38  C   UNL     1      41.655  -7.827  13.034  1.00  0.00     0.009 A 
ENDBRANCH  32  33
ENDBRANCH   1  32
TORSDOF 6
ENDMDL
MODEL 2
REMARK VINA RESULT:      -9.9      2.573     10.945
REMARK  6 active torsions:
REMARK  status: ('A' for Active; 'I' for Inactive)
REMARK    1  A    between atoms: C_4  and  C_5 
REMARK    2  A    between atoms: C_5  and  N_6 
REMARK    3  A    between atoms: C_14  and  C_15 
REMARK    4  A    between atoms: C_18  and  O_19 
REMARK    5  A    between atoms: O_19  and  C_20 
REMARK    6  A    between atoms: C_20  and  C_21 
ROOT
HETATM    1  N   UNL     1      43.481 -17.692   2.980  1.00  0.00    -0.063 N 
HETATM    2  H   UNL     1      43.959 -17.712   3.888  1.00  0.00     0.280 HD
HETATM    3  C   UNL     1      43.692 -16.279   2.456  1.00  0.00     0.282 C 
HETATM    4  C   UNL     1      42.974 -15.302   3.322  1.00  0.00     0.018 A 
HETATM    5  C   UNL     1      41.964 -15.622   4.211  1.00  0.00    -0.023 A 
HETATM    6  C   UNL     1      41.459 -14.451   4.862  1.00  0.00     0.073 A 
HETATM    7  C   UNL     1      42.078 -13.310   4.410  1.00  0.00     0.088 A 
HETATM    8  N   UNL     1      41.753 -12.072   4.827  1.00  0.00    -0.358 N 
HETATM    9  C   UNL     1      40.938 -11.899   6.010  1.00  0.00     0.219 C 
HETATM   10  N   UNL     1      40.135 -13.066   6.279  1.00  0.00    -0.332 N 
HETATM   11  C   UNL     1      40.415 -14.336   5.860  1.00  0.00     0.256 C 
HETATM   12  O   UNL     1      39.814 -15.308   6.303  1.00  0.00    -0.267 OA
HETATM   13  S   UNL     1      43.289 -13.632   3.260  1.00  0.00    -0.074 SA
HETATM   14  C   UNL     1      41.517 -17.040   4.414  1.00  0.00     0.068 C 
HETATM   15  C   UNL     1      42.008 -17.956   3.275  1.00  0.00     0.240 C 
HETATM   16  H   UNL     1      42.374 -11.296   4.619  1.00  0.00     0.162 HD
HETATM   17  H   UNL     1      39.447 -13.001   7.015  1.00  0.00     0.165 HD
ENDROOT
BRANCH   9  18
HETATM   18  C   UNL     1      41.799 -11.468   7.181  1.00  0.00    -0.016 A 
HETATM   19  C   UNL     1      41.374 -10.395   7.987  1.00  0.00     0.014 A 
HETATM   20  C   UNL     1      42.134  -9.963   9.080  1.00  0.00     0.037 A 
HETATM   21  C   UNL     1      43.333 -10.601   9.393  1.00  0.00     0.069 A 
HETATM   22  C   UNL     1      43.782 -11.642   8.579  1.00  0.00     0.037 A 
HETATM   23  C   UNL     1      43.028 -12.072   7.483  1.00  0.00     0.014 A 
BRANCH  21  24
HETATM   24  O   UNL     1      44.152 -10.300  10.445  1.00  0.00    -0.347 OA
BRANCH  24  25
HETATM   25  C   UNL     1      44.147 -11.207  11.547  1.00  0.00     0.214 C 
BRANCH  25  26
HETATM   26  C   UNL     1      43.205 -10.676  12.599  1.00  0.00    -0.034 A 
HETATM   27  C   UNL     1      41.935 -11.246  12.768  1.00  0.00     0.009 A 
HETATM   28  C   UNL     1      41.063 -10.754  13.741  1.00  0.00     0.001 A 
HETATM   29  C   UNL     1      41.450  -9.686  14.550  1.00  0.00     0.000 A 
HETATM   30  C   UNL     1      42.706  -9.106  14.383  1.00  0.00     0.001 A 
HETATM   31  C   UNL     1      43.578  -9.596  13.411  1.00  0.00     0.009 A 
ENDBRANCH  25  26
ENDBRANCH  24  25
ENDBRANCH  21  24
ENDBRANCH   9  18
BRANCH   1  32
HETATM   32  C   UNL     1      44.151 -18.753   2.145  1.00  0.00     0.273 C 
BRANCH  32  33
HETATM   33  C   UNL     1      44.352 -20.085   2.815  1.00  0.00    -0.033 A 
HETATM   34  C   UNL     1      44.737 -20.152   4.165  1.00  0.00     0.009 A 
HETATM   35  C   UNL     1      44.958 -21.384   4.780  1.00  0.00     0.001 A 
HETATM   36  C   UNL     1      44.792 -22.564   4.059  1.00  0.00     0.000 A 
HETATM   37  C   UNL     1      44.397 -22.514   2.724  1.00  0.00     0.001 A 
HETATM   38  C   UNL     1      44.175 -21.283   2.105  1.00  0.00     0.009 A 
ENDBRANCH  32  33
ENDBRANCH   1  32
TORSDOF 6
ENDMDL
MODEL 3
REMARK VINA RESULT:      -9.5      2.743     10.655
REMARK  6 active torsions:
REMARK  status: ('A' for Active; 'I' for Inactive)
REMARK    1  A    between atoms: C_4  and  C_5 
REMARK    2  A    between atoms: C_5  and  N_6 
REMARK    3  A    between atoms: C_14  and  C_15 
REMARK    4  A    between atoms: C_18  and  O_19 
REMARK    5  A    between atoms: O_19  and  C_20 
REMARK    6  A    between atoms: C_20  and  C_21 
ROOT
HETATM    1  N   UNL     1      42.905 -18.010   2.220  1.00  0.00    -0.063 N 
HETATM    2  H   UNL     1      42.540 -18.180   3.165  1.00  0.00     0.280 HD
HETATM    3  C   UNL     1      43.800 -16.788   2.358  1.00  0.00     0.282 C 
HETATM    4  C   UNL     1      42.980 -15.592   2.704  1.00  0.00     0.018 A 
HETATM    5  C   UNL     1      41.610 -15.497   2.544  1.00  0.00    -0.023 A 
HETATM    6  C   UNL     1      41.133 -14.205   2.936  1.00  0.00     0.073 A 
HETATM    7  C   UNL     1      42.159 -13.383   3.335  1.00  0.00     0.088 A 
HETATM    8  N   UNL     1      41.985 -12.100   3.707  1.00  0.00    -0.358 N 
HETATM    9  C   UNL     1      40.657 -11.610   4.004  1.00  0.00     0.219 C 
HETATM   10  N   UNL     1      39.640 -12.394   3.348  1.00  0.00    -0.332 N 
HETATM   11  C   UNL     1      39.779 -13.689   2.936  1.00  0.00     0.256 C 
HETATM   12  O   UNL     1      38.816 -14.362   2.587  1.00  0.00    -0.267 OA
HETATM   13  S   UNL     1      43.673 -14.156   3.294  1.00  0.00    -0.074 SA
HETATM   14  C   UNL     1      40.797 -16.647   2.024  1.00  0.00     0.068 C 
HETATM   15  C   UNL     1      41.689 -17.709   1.350  1.00  0.00     0.240 C 
HETATM   16  H   UNL     1      42.737 -11.612   4.182  1.00  0.00     0.162 HD
HETATM   17  H   UNL     1      38.687 -12.062   3.399  1.00  0.00     0.165 HD
ENDROOT
BRANCH   9  18
HETATM   18  C   UNL     1      40.464 -11.492   5.504  1.00  0.00    -0.016 A 
HETATM   19  C   UNL     1      41.290 -10.619   6.235  1.00  0.00     0.014 A 
HETATM   20  C   UNL     1      41.148 -10.475   7.620  1.00  0.00     0.037 A 
HETATM   21  C   UNL     1      40.172 -11.200   8.301  1.00  0.00     0.069 A 
HETATM   22  C   UNL     1      39.372 -12.096   7.591  1.00  0.00     0.037 A 
HETATM   23  C   UNL     1      39.515 -12.246   6.209  1.00  0.00     0.014 A 
BRANCH  21  24
HETATM   24  O   UNL     1      39.908 -11.131   9.640  1.00  0.00    -0.347 OA
BRANCH  24  25
HETATM   25  C   UNL     1      40.047  -9.854  10.262  1.00  0.00     0.214 C 
BRANCH  25  26
HETATM   26  C   UNL     1      41.087  -9.961  11.349  1.00  0.00    -0.034 A 
HETATM   27  C   UNL     1      42.453  -9.902  11.033  1.00  0.00     0.009 A 
HETATM   28  C   UNL     1      43.416 -10.003  12.039  1.00  0.00     0.001 A 
HETATM   29  C   UNL     1      43.024 -10.168  13.367  1.00  0.00     0.000 A 
HETATM   30  C   UNL     1      41.671 -10.238  13.690  1.00  0.00     0.001 A 
HETATM   31  C   UNL     1      40.707 -10.139  12.686  1.00  0.00     0.009 A 
ENDBRANCH  25  26
ENDBRANCH  24  25
ENDBRANCH  21  24
ENDBRANCH   9  18
BRANCH   1  32
HETATM   32  C   UNL     1      43.649 -19.265   1.842  1.00  0.00     0.273 C 
BRANCH  32  33
HETATM   33  C   UNL     1      44.078 -20.144   2.985  1.00  0.00    -0.033 A 
HETATM   34  C   UNL     1      44.344 -21.508   2.772  1.00  0.00     0.009 A 
HETATM   35  C   UNL     1      44.708 -22.334   3.835  1.00  0.00     0.001 A 
HETATM   36  C   UNL     1      44.817 -21.810   5.121  1.00  0.00     0.000 A 
HETATM   37  C   UNL     1      44.571 -20.458   5.344  1.00  0.00     0.001 A 
HETATM   38  C   UNL     1      44.206 -19.627   4.284  1.00  0.00     0.009 A 
ENDBRANCH  32  33
ENDBRANCH   1  32
TORSDOF 6
ENDMDL
MODEL 4
REMARK VINA RESULT:      -9.2      5.876     10.481
REMARK  6 active torsions:
REMARK  status: ('A' for Active; 'I' for Inactive)
REMARK    1  A    between atoms: C_4  and  C_5 
REMARK    2  A    between atoms: C_5  and  N_6 
REMARK    3  A    between atoms: C_14  and  C_15 
REMARK    4  A    between atoms: C_18  and  O_19 
REMARK    5  A    between atoms: O_19  and  C_20 
REMARK    6  A    between atoms: C_20  and  C_21 
ROOT
HETATM    1  N   UNL     1      43.778 -17.665   4.521  1.00  0.00    -0.063 N 
HETATM    2  H   UNL     1      44.320 -17.184   3.793  1.00  0.00     0.280 HD
HETATM    3  C   UNL     1      42.570 -18.240   3.796  1.00  0.00     0.282 C 
HETATM    4  C   UNL     1      41.702 -17.136   3.298  1.00  0.00     0.018 A 
HETATM    5  C   UNL     1      41.750 -15.827   3.743  1.00  0.00    -0.023 A 
HETATM    6  C   UNL     1      40.760 -15.024   3.089  1.00  0.00     0.073 A 
HETATM    7  C   UNL     1      39.996 -15.764   2.220  1.00  0.00     0.088 A 
HETATM    8  N   UNL     1      38.966 -15.257   1.517  1.00  0.00    -0.358 N 
HETATM    9  C   UNL     1      38.803 -13.824   1.407  1.00  0.00     0.219 C 
HETATM   10  N   UNL     1      39.441 -13.129   2.498  1.00  0.00    -0.332 N 
HETATM   11  C   UNL     1      40.473 -13.612   3.251  1.00  0.00     0.256 C 
HETATM   12  O   UNL     1      41.108 -12.892   4.013  1.00  0.00    -0.267 OA
HETATM   13  S   UNL     1      40.484 -17.391   2.140  1.00  0.00    -0.074 SA
HETATM   14  C   UNL     1      42.744 -15.384   4.776  1.00  0.00     0.068 C 
HETATM   15  C   UNL     1      43.364 -16.586   5.516  1.00  0.00     0.240 C 
HETATM   16  H   UNL     1      38.576 -15.792   0.747  1.00  0.00     0.162 HD
HETATM   17  H   UNL     1      39.285 -12.135   2.575  1.00  0.00     0.165 HD
ENDROOT
BRANCH   9  18
HETATM   18  C   UNL     1      39.251 -13.349   0.038  1.00  0.00    -0.016 A 
HETATM   19  C   UNL     1      38.825 -12.090  -0.425  1.00  0.00     0.014 A 
HETATM   20  C   UNL     1      39.215 -11.609  -1.681  1.00  0.00     0.037 A 
HETATM   21  C   UNL     1      40.044 -12.376  -2.496  1.00  0.00     0.069 A 
HETATM   22  C   UNL     1      40.443 -13.641  -2.062  1.00  0.00     0.037 A 
HETATM   23  C   UNL     1      40.051 -14.127  -0.812  1.00  0.00     0.014 A 
BRANCH  21  24
HETATM   24  O   UNL     1      40.521 -12.014  -3.725  1.00  0.00    -0.347 OA
BRANCH  24  25
HETATM   25  C   UNL     1      41.939 -11.959  -3.878  1.00  0.00     0.214 C 
BRANCH  25  26
HETATM   26  C   UNL     1      42.460 -10.783  -3.089  1.00  0.00    -0.034 A 
HETATM   27  C   UNL     1      42.267  -9.475  -3.554  1.00  0.00     0.009 A 
HETATM   28  C   UNL     1      42.750  -8.387  -2.824  1.00  0.00     0.001 A 
HETATM   29  C   UNL     1      43.435  -8.597  -1.628  1.00  0.00     0.000 A 
HETATM   30  C   UNL     1      43.641  -9.894  -1.163  1.00  0.00     0.001 A 
HETATM   31  C   UNL     1      43.160 -10.982  -1.891  1.00  0.00     0.009 A 
ENDBRANCH  25  26
ENDBRANCH  24  25
ENDBRANCH  21  24
ENDBRANCH   9  18
BRANCH   1  32
HETATM   32  C   UNL     1      44.701 -18.715   5.085  1.00  0.00     0.273 C 
BRANCH  32  33
HETATM   33  C   UNL     1      44.647 -20.063   4.419  1.00  0.00    -0.033 A 
HETATM   34  C   UNL     1      44.665 -21.238   5.190  1.00  0.00     0.009 A 
HETATM   35  C   UNL     1      44.650 -22.490   4.576  1.00  0.00     0.001 A 
HETATM   36  C   UNL     1      44.610 -22.586   3.187  1.00  0.00     0.000 A 
HETATM   37  C   UNL     1      44.578 -21.430   2.411  1.00  0.00     0.001 A 
HETATM   38  C   UNL     1      44.592 -20.175   3.021  1.00  0.00     0.009 A 
ENDBRANCH  32  33
ENDBRANCH   1  32
TORSDOF 6
ENDMDL
MODEL 5
REMARK VINA RESULT:      -9.2      2.090      2.801
REMARK  6 active torsions:
REMARK  status: ('A' for Active; 'I' for Inactive)
REMARK    1  A    between atoms: C_4  and  C_5 
REMARK    2  A    between atoms: C_5  and  N_6 
REMARK    3  A    between atoms: C_14  and  C_15 
REMARK    4  A    between atoms: C_18  and  O_19 
REMARK    5  A    between atoms: O_19  and  C_20 
REMARK    6  A    between atoms: C_20  and  C_21 
ROOT
HETATM    1  N   UNL     1      41.355 -10.151   7.607  1.00  0.00    -0.063 N 
HETATM    2  H   UNL     1      42.275 -10.581   7.462  1.00  0.00     0.280 HD
HETATM    3  C   UNL     1      40.380 -11.317   7.672  1.00  0.00     0.282 C 
HETATM    4  C   UNL     1      40.312 -11.998   6.347  1.00  0.00     0.018 A 
HETATM    5  C   UNL     1      40.740 -11.450   5.151  1.00  0.00    -0.023 A 
HETATM    6  C   UNL     1      40.502 -12.346   4.060  1.00  0.00     0.073 A 
HETATM    7  C   UNL     1      39.879 -13.499   4.473  1.00  0.00     0.088 A 
HETATM    8  N   UNL     1      39.501 -14.483   3.635  1.00  0.00    -0.358 N 
HETATM    9  C   UNL     1      40.012 -14.515   2.282  1.00  0.00     0.219 C 
HETATM   10  N   UNL     1      40.428 -13.207   1.839  1.00  0.00    -0.332 N 
HETATM   11  C   UNL     1      40.800 -12.175   2.652  1.00  0.00     0.256 C 
HETATM   12  O   UNL     1      41.347 -11.171   2.210  1.00  0.00    -0.267 OA
HETATM   13  S   UNL     1      39.625 -13.541   6.154  1.00  0.00    -0.074 SA
HETATM   14  C   UNL     1      41.367 -10.089   5.090  1.00  0.00     0.068 C 
HETATM   15  C   UNL     1      41.099  -9.285   6.378  1.00  0.00     0.240 C 
HETATM   16  H   UNL     1      39.237 -15.387   4.015  1.00  0.00     0.162 HD
HETATM   17  H   UNL     1      40.691 -13.104   0.869  1.00  0.00     0.165 HD
ENDROOT
BRANCH   9  18
HETATM   18  C   UNL     1      41.089 -15.574   2.154  1.00  0.00    -0.016 A 
HETATM   19  C   UNL     1      40.771 -16.808   1.559  1.00  0.00     0.014 A 
HETATM   20  C   UNL     1      41.733 -17.815   1.416  1.00  0.00     0.037 A 
HETATM   21  C   UNL     1      43.036 -17.605   1.862  1.00  0.00     0.069 A 
HETATM   22  C   UNL     1      43.354 -16.398   2.487  1.00  0.00     0.037 A 
HETATM   23  C   UNL     1      42.394 -15.393   2.636  1.00  0.00     0.014 A 
BRANCH  21  24
HETATM   24  O   UNL     1      44.074 -18.487   1.757  1.00  0.00    -0.347 OA
BRANCH  24  25
HETATM   25  C   UNL     1      43.737 -19.862   1.574  1.00  0.00     0.214 C 
BRANCH  25  26
HETATM   26  C   UNL     1      44.144 -20.623   2.811  1.00  0.00    -0.034 A 
HETATM   27  C   UNL     1      44.351 -19.950   4.024  1.00  0.00     0.009 A 
HETATM   28  C   UNL     1      44.728 -20.655   5.168  1.00  0.00     0.001 A 
HETATM   29  C   UNL     1      44.909 -22.036   5.111  1.00  0.00     0.000 A 
HETATM   30  C   UNL     1      44.716 -22.713   3.908  1.00  0.00     0.001 A 
HETATM   31  C   UNL     1      44.339 -22.011   2.763  1.00  0.00     0.009 A 
ENDBRANCH  25  26
ENDBRANCH  24  25
ENDBRANCH  21  24
ENDBRANCH   9  18
BRANCH   1  32
HETATM   32  C   UNL     1      41.466  -9.384   8.900  1.00  0.00     0.273 C 
BRANCH  32  33
HETATM   33  C   UNL     1      42.074 -10.131  10.056  1.00  0.00    -0.033 A 
HETATM   34  C   UNL     1      41.272 -10.551  11.132  1.00  0.00     0.009 A 
HETATM   35  C   UNL     1      41.836 -11.214  12.221  1.00  0.00     0.001 A 
HETATM   36  C   UNL     1      43.205 -11.470  12.250  1.00  0.00     0.000 A 
HETATM   37  C   UNL     1      44.010 -11.072  11.185  1.00  0.00     0.001 A 
HETATM   38  C   UNL     1      43.449 -10.410  10.092  1.00  0.00     0.009 A 
ENDBRANCH  32  33
ENDBRANCH   1  32
TORSDOF 6
ENDMDL
MODEL 6
REMARK VINA RESULT:      -9.2      5.225     10.501
REMARK  6 active torsions:
REMARK  status: ('A' for Active; 'I' for Inactive)
REMARK    1  A    between atoms: C_4  and  C_5 
REMARK    2  A    between atoms: C_5  and  N_6 
REMARK    3  A    between atoms: C_14  and  C_15 
REMARK    4  A    between atoms: C_18  and  O_19 
REMARK    5  A    between atoms: O_19  and  C_20 
REMARK    6  A    between atoms: C_20  and  C_21 
ROOT
HETATM    1  N   UNL     1      40.196 -13.578  -1.598  1.00  0.00    -0.063 N 
HETATM    2  H   UNL     1      40.963 -13.040  -1.179  1.00  0.00     0.280 HD
HETATM    3  C   UNL     1      39.218 -13.824  -0.459  1.00  0.00     0.282 C 
HETATM    4  C   UNL     1      39.838 -14.718   0.560  1.00  0.00     0.018 A 
HETATM    5  C   UNL     1      40.947 -15.516   0.345  1.00  0.00    -0.023 A 
HETATM    6  C   UNL     1      41.267 -16.280   1.514  1.00  0.00     0.073 A 
HETATM    7  C   UNL     1      40.372 -16.053   2.531  1.00  0.00     0.088 A 
HETATM    8  N   UNL     1      40.421 -16.684   3.720  1.00  0.00    -0.358 N 
HETATM    9  C   UNL     1      41.611 -17.413   4.102  1.00  0.00     0.219 C 
HETATM   10  N   UNL     1      42.377 -17.822   2.951  1.00  0.00    -0.332 N 
HETATM   11  C   UNL     1      42.345 -17.226   1.723  1.00  0.00     0.256 C 
HETATM   12  O   UNL     1      43.175 -17.484   0.859  1.00  0.00    -0.267 OA
HETATM   13  S   UNL     1      39.191 -14.901   2.121  1.00  0.00    -0.074 SA
HETATM   14  C   UNL     1      41.670 -15.520  -0.970  1.00  0.00     0.068 C 
HETATM   15  C   UNL     1      40.816 -14.883  -2.085  1.00  0.00     0.240 C 
HETATM   16  H   UNL     1      39.869 -16.330   4.495  1.00  0.00     0.162 HD
HETATM   17  H   UNL     1      43.164 -18.437   3.108  1.00  0.00     0.165 HD
ENDROOT
BRANCH   9  18
HETATM   18  C   UNL     1      42.410 -16.617   5.116  1.00  0.00    -0.016 A 
HETATM   19  C   UNL     1      42.683 -17.185   6.374  1.00  0.00     0.014 A 
HETATM   20  C   UNL     1      43.419 -16.490   7.340  1.00  0.00     0.037 A 
HETATM   21  C   UNL     1      43.903 -15.213   7.065  1.00  0.00     0.069 A 
HETATM   22  C   UNL     1      43.607 -14.625   5.834  1.00  0.00     0.037 A 
HETATM   23  C   UNL     1      42.867 -15.314   4.869  1.00  0.00     0.014 A 
BRANCH  21  24
HETATM   24  O   UNL     1      44.656 -14.440   7.903  1.00  0.00    -0.347 OA
BRANCH  24  25
HETATM   25  C   UNL     1      44.867 -13.083   7.517  1.00  0.00     0.214 C 
BRANCH  25  26
HETATM   26  C   UNL     1      44.628 -12.201   8.717  1.00  0.00    -0.034 A 
HETATM   27  C   UNL     1      45.540 -12.188   9.783  1.00  0.00     0.009 A 
HETATM   28  C   UNL     1      45.317 -11.372  10.894  1.00  0.00     0.001 A 
HETATM   29  C   UNL     1      44.180 -10.568  10.953  1.00  0.00     0.000 A 
HETATM   30  C   UNL     1      43.263 -10.581   9.905  1.00  0.00     0.001 A 
HETATM   31  C   UNL     1      43.483 -11.395   8.794  1.00  0.00     0.009 A 
ENDBRANCH  25  26
ENDBRANCH  24  25
ENDBRANCH  21  24
ENDBRANCH   9  18
BRANCH   1  32
HETATM   32  C   UNL     1      39.640 -12.703  -2.693  1.00  0.00     0.273 C 
BRANCH  32  33
HETATM   33  C   UNL     1      40.598 -11.708  -3.289  1.00  0.00    -0.033 A 
HETATM   34  C   UNL     1      41.783 -11.370  -2.613  1.00  0.00     0.009 A 
HETATM   35  C   UNL     1      42.658 -10.423  -3.145  1.00  0.00     0.001 A 
HETATM   36  C   UNL     1      42.365  -9.806  -4.358  1.00  0.00     0.000 A 
HETATM   37  C   UNL     1      41.201 -10.141  -5.047  1.00  0.00     0.001 A 
HETATM   38  C   UNL     1      40.324 -11.089  -4.519  1.00  0.00     0.009 A 
ENDBRANCH  32  33
ENDBRANCH   1  32
TORSDOF 6
ENDMDL
MODEL 7
REMARK VINA RESULT:      -9.2      2.632     10.433
REMARK  6 active torsions:
REMARK  status: ('A' for Active; 'I' for Inactive)
REMARK    1  A    between atoms: C_4  and  C_5 
REMARK    2  A    between atoms: C_5  and  N_6 
REMARK    3  A    between atoms: C_14  and  C_15 
REMARK    4  A    between atoms: C_18  and  O_19 
REMARK    5  A    between atoms: O_19  and  C_20 
REMARK    6  A    between atoms: C_20  and  C_21 
ROOT
HETATM    1  N   UNL     1      41.373 -16.618   2.321  1.00  0.00    -0.063 N 
HETATM    2  H   UNL     1      40.904 -16.817   3.212  1.00  0.00     0.280 HD
HETATM    3  C   UNL     1      42.541 -15.713   2.685  1.00  0.00     0.282 C 
HETATM    4  C   UNL     1      42.034 -14.404   3.186  1.00  0.00     0.018 A 
HETATM    5  C   UNL     1      40.752 -13.923   2.991  1.00  0.00    -0.023 A 
HETATM    6  C   UNL     1      40.597 -12.620   3.566  1.00  0.00     0.073 A 
HETATM    7  C   UNL     1      41.767 -12.170   4.129  1.00  0.00     0.088 A 
HETATM    8  N   UNL     1      41.902 -10.954   4.693  1.00  0.00    -0.358 N 
HETATM    9  C   UNL     1      40.728 -10.173   5.014  1.00  0.00     0.219 C 
HETATM   10  N   UNL     1      39.597 -10.554   4.205  1.00  0.00    -0.332 N 
HETATM   11  C   UNL     1      39.428 -11.765   3.597  1.00  0.00     0.256 C 
HETATM   12  O   UNL     1      38.353 -12.098   3.110  1.00  0.00    -0.267 OA
HETATM   13  S   UNL     1      43.028 -13.306   4.022  1.00  0.00    -0.074 SA
HETATM   14  C   UNL     1      39.713 -14.725   2.265  1.00  0.00     0.068 C 
HETATM   15  C   UNL     1      40.349 -15.880   1.465  1.00  0.00     0.240 C 
HETATM   16  H   UNL     1      42.716 -10.759   5.268  1.00  0.00     0.162 HD
HETATM   17  H   UNL     1      38.762  -9.989   4.272  1.00  0.00     0.165 HD
ENDROOT
BRANCH   9  18
HETATM   18  C   UNL     1      40.455 -10.225   6.505  1.00  0.00    -0.016 A 
HETATM   19  C   UNL     1      39.662 -11.265   7.023  1.00  0.00     0.014 A 
HETATM   20  C   UNL     1      39.386 -11.355   8.392  1.00  0.00     0.037 A 
HETATM   21  C   UNL     1      39.903 -10.408   9.273  1.00  0.00     0.069 A 
HETATM   22  C   UNL     1      40.661  -9.351   8.766  1.00  0.00     0.037 A 
HETATM   23  C   UNL     1      40.933  -9.255   7.399  1.00  0.00     0.014 A 
BRANCH  21  24
HETATM   24  O   UNL     1      39.736 -10.396  10.629  1.00  0.00    -0.347 OA
BRANCH  24  25
HETATM   25  C   UNL     1      40.424 -11.401  11.374  1.00  0.00     0.214 C 
BRANCH  25  26
HETATM   26  C   UNL     1      41.443 -10.727  12.258  1.00  0.00    -0.034 A 
HETATM   27  C   UNL     1      42.663 -10.284  11.727  1.00  0.00     0.009 A 
HETATM   28  C   UNL     1      43.606  -9.661  12.547  1.00  0.00     0.001 A 
HETATM   29  C   UNL     1      43.342  -9.481  13.904  1.00  0.00     0.000 A 
HETATM   30  C   UNL     1      42.138  -9.927  14.444  1.00  0.00     0.001 A 
HETATM   31  C   UNL     1      41.194 -10.550  13.627  1.00  0.00     0.009 A 
ENDBRANCH  25  26
ENDBRANCH  24  25
ENDBRANCH  21  24
ENDBRANCH   9  18
BRANCH   1  32
HETATM   32  C   UNL     1      41.794 -17.959   1.776  1.00  0.00     0.273 C 
BRANCH  32  33
HETATM   33  C   UNL     1      42.788 -18.723   2.608  1.00  0.00    -0.033 A 
HETATM   34  C   UNL     1      42.849 -18.530   3.999  1.00  0.00     0.009 A 
HETATM   35  C   UNL     1      43.791 -19.210   4.769  1.00  0.00     0.001 A 
HETATM   36  C   UNL     1      44.681 -20.094   4.164  1.00  0.00     0.000 A 
HETATM   37  C   UNL     1      44.624 -20.306   2.789  1.00  0.00     0.001 A 
HETATM   38  C   UNL     1      43.682 -19.628   2.014  1.00  0.00     0.009 A 
ENDBRANCH  32  33
ENDBRANCH   1  32
TORSDOF 6
ENDMDL
MODEL 8
REMARK VINA RESULT:      -9.1      2.430     10.833
REMARK  6 active torsions:
REMARK  status: ('A' for Active; 'I' for Inactive)
REMARK    1  A    between atoms: C_4  and  C_5 
REMARK    2  A    between atoms: C_5  and  N_6 
REMARK    3  A    between atoms: C_14  and  C_15 
REMARK    4  A    between atoms: C_18  and  O_19 
REMARK    5  A    between atoms: O_19  and  C_20 
REMARK    6  A    between atoms: C_20  and  C_21 
ROOT
HETATM    1  N   UNL     1      43.433 -18.286   6.404  1.00  0.00    -0.063 N 
HETATM    2  H   UNL     1      42.905 -18.162   7.275  1.00  0.00     0.280 HD
HETATM    3  C   UNL     1      44.344 -17.071   6.318  1.00  0.00     0.282 C 
HETATM    4  C   UNL     1      43.530 -15.837   6.133  1.00  0.00     0.018 A 
HETATM    5  C   UNL     1      42.213 -15.811   5.712  1.00  0.00    -0.023 A 
HETATM    6  C   UNL     1      41.733 -14.466   5.601  1.00  0.00     0.073 A 
HETATM    7  C   UNL     1      42.711 -13.550   5.905  1.00  0.00     0.088 A 
HETATM    8  N   UNL     1      42.531 -12.217   5.831  1.00  0.00    -0.358 N 
HETATM    9  C   UNL     1      41.195 -11.674   5.725  1.00  0.00     0.219 C 
HETATM   10  N   UNL     1      40.272 -12.633   5.171  1.00  0.00    -0.332 N 
HETATM   11  C   UNL     1      40.423 -13.990   5.205  1.00  0.00     0.256 C 
HETATM   12  O   UNL     1      39.505 -14.749   4.912  1.00  0.00    -0.267 OA
HETATM   13  S   UNL     1      44.174 -14.281   6.369  1.00  0.00    -0.074 SA
HETATM   14  C   UNL     1      41.452 -17.073   5.432  1.00  0.00     0.068 C 
HETATM   15  C   UNL     1      42.399 -18.282   5.283  1.00  0.00     0.240 C 
HETATM   16  H   UNL     1      43.212 -11.598   6.260  1.00  0.00     0.162 HD
HETATM   17  H   UNL     1      39.340 -12.312   4.949  1.00  0.00     0.165 HD
ENDROOT
BRANCH   9  18
HETATM   18  C   UNL     1      40.753 -11.102   7.059  1.00  0.00    -0.016 A 
HETATM   19  C   UNL     1      41.539 -10.112   7.675  1.00  0.00     0.014 A 
HETATM   20  C   UNL     1      41.171  -9.554   8.905  1.00  0.00     0.037 A 
HETATM   21  C   UNL     1      40.004  -9.972   9.540  1.00  0.00     0.069 A 
HETATM   22  C   UNL     1      39.235 -10.980   8.955  1.00  0.00     0.037 A 
HETATM   23  C   UNL     1      39.604 -11.544   7.731  1.00  0.00     0.014 A 
BRANCH  21  24
HETATM   24  O   UNL     1      39.515  -9.491  10.722  1.00  0.00    -0.347 OA
BRANCH  24  25
HETATM   25  C   UNL     1      39.656 -10.328  11.869  1.00  0.00     0.214 C 
BRANCH  25  26
HETATM   26  C   UNL     1      40.933  -9.955  12.580  1.00  0.00    -0.034 A 
HETATM   27  C   UNL     1      42.102 -10.703  12.379  1.00  0.00     0.009 A 
HETATM   28  C   UNL     1      43.284 -10.358  13.037  1.00  0.00     0.001 A 
HETATM   29  C   UNL     1      43.307  -9.268  13.906  1.00  0.00     0.000 A 
HETATM   30  C   UNL     1      42.148  -8.524  14.121  1.00  0.00     0.001 A 
HETATM   31  C   UNL     1      40.966  -8.868  13.464  1.00  0.00     0.009 A 
ENDBRANCH  25  26
ENDBRANCH  24  25
ENDBRANCH  21  24
ENDBRANCH   9  18
BRANCH   1  32
HETATM   32  C   UNL     1      44.175 -19.589   6.564  1.00  0.00     0.273 C 
BRANCH  32  33
HETATM   33  C   UNL     1      44.334 -20.412   5.314  1.00  0.00    -0.033 A 
HETATM   34  C   UNL     1      44.462 -21.809   5.395  1.00  0.00     0.009 A 
HETATM   35  C   UNL     1      44.644 -22.573   4.242  1.00  0.00     0.001 A 
HETATM   36  C   UNL     1      44.694 -21.953   2.995  1.00  0.00     0.000 A 
HETATM   37  C   UNL     1      44.554 -20.571   2.899  1.00  0.00     0.001 A 
HETATM   38  C   UNL     1      44.372 -19.803   4.050  1.00  0.00     0.009 A 
ENDBRANCH  32  33
ENDBRANCH   1  32
TORSDOF 6
ENDMDL
MODEL 9
REMARK VINA RESULT:      -9.1      4.601      8.484
REMARK  6 active torsions:
REMARK  status: ('A' for Active; 'I' for Inactive)
REMARK    1  A    between atoms: C_4  and  C_5 
REMARK    2  A    between atoms: C_5  and  N_6 
REMARK    3  A    between atoms: C_14  and  C_15 
REMARK    4  A    between atoms: C_18  and  O_19 
REMARK    5  A    between atoms: O_19  and  C_20 
REMARK    6  A    between atoms: C_20  and  C_21 
ROOT
HETATM    1  N   UNL     1      38.578 -11.866   0.194  1.00  0.00    -0.063 N 
HETATM    2  H   UNL     1      38.368 -12.866   0.287  1.00  0.00     0.280 HD
HETATM    3  C   UNL     1      40.097 -11.778   0.221  1.00  0.00     0.282 C 
HETATM    4  C   UNL     1      40.606 -12.183   1.562  1.00  0.00     0.018 A 
HETATM    5  C   UNL     1      39.843 -12.247   2.714  1.00  0.00    -0.023 A 
HETATM    6  C   UNL     1      40.641 -12.635   3.839  1.00  0.00     0.073 A 
HETATM    7  C   UNL     1      41.959 -12.807   3.494  1.00  0.00     0.088 A 
HETATM    8  N   UNL     1      42.924 -13.124   4.378  1.00  0.00    -0.358 N 
HETATM    9  C   UNL     1      42.568 -13.608   5.693  1.00  0.00     0.219 C 
HETATM   10  N   UNL     1      41.246 -13.180   6.078  1.00  0.00    -0.332 N 
HETATM   11  C   UNL     1      40.244 -12.829   5.219  1.00  0.00     0.256 C 
HETATM   12  O   UNL     1      39.088 -12.686   5.600  1.00  0.00    -0.267 OA
HETATM   13  S   UNL     1      42.241 -12.561   1.835  1.00  0.00    -0.074 SA
HETATM   14  C   UNL     1      38.375 -11.940   2.702  1.00  0.00     0.068 C 
HETATM   15  C   UNL     1      37.964 -11.193   1.417  1.00  0.00     0.240 C 
HETATM   16  H   UNL     1      43.829 -13.437   4.037  1.00  0.00     0.162 HD
HETATM   17  H   UNL     1      40.950 -13.368   7.025  1.00  0.00     0.165 HD
ENDROOT
BRANCH   9  18
HETATM   18  C   UNL     1      42.770 -15.109   5.773  1.00  0.00    -0.016 A 
HETATM   19  C   UNL     1      41.724 -15.964   5.380  1.00  0.00     0.014 A 
HETATM   20  C   UNL     1      41.865 -17.355   5.434  1.00  0.00     0.037 A 
HETATM   21  C   UNL     1      43.060 -17.920   5.877  1.00  0.00     0.069 A 
HETATM   22  C   UNL     1      44.091 -17.081   6.303  1.00  0.00     0.037 A 
HETATM   23  C   UNL     1      43.951 -15.692   6.257  1.00  0.00     0.014 A 
BRANCH  21  24
HETATM   24  O   UNL     1      43.339 -19.256   5.950  1.00  0.00    -0.347 OA
BRANCH  24  25
HETATM   25  C   UNL     1      44.606 -19.680   5.447  1.00  0.00     0.214 C 
BRANCH  25  26
HETATM   26  C   UNL     1      44.387 -20.388   4.133  1.00  0.00    -0.034 A 
HETATM   27  C   UNL     1      43.857 -19.698   3.034  1.00  0.00     0.009 A 
HETATM   28  C   UNL     1      43.654 -20.354   1.818  1.00  0.00     0.001 A 
HETATM   29  C   UNL     1      43.972 -21.706   1.692  1.00  0.00     0.000 A 
HETATM   30  C   UNL     1      44.490 -22.403   2.782  1.00  0.00     0.001 A 
HETATM   31  C   UNL     1      44.694 -21.749   3.997  1.00  0.00     0.009 A 
ENDBRANCH  25  26
ENDBRANCH  24  25
ENDBRANCH  21  24
ENDBRANCH   9  18
BRANCH   1  32
HETATM   32  C   UNL     1      37.972 -11.445  -1.121  1.00  0.00     0.273 C 
BRANCH  32  33
HETATM   33  C   UNL     1      37.678 -12.555  -2.094  1.00  0.00    -0.033 A 
HETATM   34  C   UNL     1      38.195 -13.844  -1.878  1.00  0.00     0.009 A 
HETATM   35  C   UNL     1      37.953 -14.867  -2.795  1.00  0.00     0.001 A 
HETATM   36  C   UNL     1      37.190 -14.619  -3.933  1.00  0.00     0.000 A 
HETATM   37  C   UNL     1      36.660 -13.351  -4.152  1.00  0.00     0.001 A 
HETATM   38  C   UNL     1      36.898 -12.324  -3.238  1.00  0.00     0.009 A 
ENDBRANCH  32  33
ENDBRANCH   1  32
TORSDOF 6
ENDMDL
MODEL 10
REMARK VINA RESULT:      -8.8      6.076      7.411
REMARK  6 active torsions:
REMARK  status: ('A' for Active; 'I' for Inactive)
REMARK    1  A    between atoms: C_4  and  C_5 
REMARK    2  A    between atoms: C_5  and  N_6 
REMARK    3  A    between atoms: C_14  and  C_15 
REMARK    4  A    between atoms: C_18  and  O_19 
REMARK    5  A    between atoms: O_19  and  C_20 
REMARK    6  A    between atoms: C_20  and  C_21 
ROOT
HETATM    1  N   UNL     1      34.996 -10.436   1.903  1.00  0.00    -0.063 N 
HETATM    2  H   UNL     1      35.084 -11.129   2.655  1.00  0.00     0.280 HD
HETATM    3  C   UNL     1      35.501 -11.144   0.654  1.00  0.00     0.282 C 
HETATM    4  C   UNL     1      36.959 -11.428   0.785  1.00  0.00     0.018 A 
HETATM    5  C   UNL     1      37.808 -10.817   1.690  1.00  0.00    -0.023 A 
HETATM    6  C   UNL     1      39.152 -11.286   1.533  1.00  0.00     0.073 A 
HETATM    7  C   UNL     1      39.259 -12.191   0.505  1.00  0.00     0.088 A 
HETATM    8  N   UNL     1      40.424 -12.746   0.120  1.00  0.00    -0.358 N 
HETATM    9  C   UNL     1      41.586 -12.652   0.976  1.00  0.00     0.219 C 
HETATM   10  N   UNL     1      41.499 -11.525   1.871  1.00  0.00    -0.332 N 
HETATM   11  C   UNL     1      40.343 -10.918   2.272  1.00  0.00     0.256 C 
HETATM   12  O   UNL     1      40.325 -10.113   3.196  1.00  0.00    -0.267 OA
HETATM   13  S   UNL     1      37.765 -12.522  -0.237  1.00  0.00    -0.074 SA
HETATM   14  C   UNL     1      37.307  -9.806   2.679  1.00  0.00     0.068 C 
HETATM   15  C   UNL     1      35.911  -9.279   2.290  1.00  0.00     0.240 C 
HETATM   16  H   UNL     1      40.412 -13.552  -0.499  1.00  0.00     0.162 HD
HETATM   17  H   UNL     1      42.312 -11.306   2.428  1.00  0.00     0.165 HD
ENDROOT
BRANCH   9  18
HETATM   18  C   UNL     1      41.827 -13.974   1.681  1.00  0.00    -0.016 A 
HETATM   19  C   UNL     1      41.224 -15.140   1.176  1.00  0.00     0.014 A 
HETATM   20  C   UNL     1      41.419 -16.382   1.791  1.00  0.00     0.037 A 
HETATM   21  C   UNL     1      42.226 -16.483   2.922  1.00  0.00     0.069 A 
HETATM   22  C   UNL     1      42.800 -15.326   3.453  1.00  0.00     0.037 A 
HETATM   23  C   UNL     1      42.602 -14.084   2.844  1.00  0.00     0.014 A 
BRANCH  21  24
HETATM   24  O   UNL     1      42.523 -17.633   3.598  1.00  0.00    -0.347 OA
BRANCH  24  25
HETATM   25  C   UNL     1      43.900 -17.996   3.683  1.00  0.00     0.214 C 
BRANCH  25  26
HETATM   26  C   UNL     1      44.040 -19.441   3.274  1.00  0.00    -0.034 A 
HETATM   27  C   UNL     1      43.514 -19.888   2.053  1.00  0.00     0.009 A 
HETATM   28  C   UNL     1      43.644 -21.226   1.676  1.00  0.00     0.001 A 
HETATM   29  C   UNL     1      44.294 -22.129   2.515  1.00  0.00     0.000 A 
HETATM   30  C   UNL     1      44.811 -21.698   3.735  1.00  0.00     0.001 A 
HETATM   31  C   UNL     1      44.683 -20.361   4.114  1.00  0.00     0.009 A 
ENDBRANCH  25  26
ENDBRANCH  24  25
ENDBRANCH  21  24
ENDBRANCH   9  18
BRANCH   1  32
HETATM   32  C   UNL     1      33.532 -10.083   1.846  1.00  0.00     0.273 C 
BRANCH  32  33
HETATM   33  C   UNL     1      32.950  -9.490   3.101  1.00  0.00    -0.033 A 
HETATM   34  C   UNL     1      32.412  -8.191   3.090  1.00  0.00     0.009 A 
HETATM   35  C   UNL     1      31.903  -7.625   4.259  1.00  0.00     0.001 A 
HETATM   36  C   UNL     1      31.920  -8.347   5.449  1.00  0.00     0.000 A 
HETATM   37  C   UNL     1      32.437  -9.639   5.472  1.00  0.00     0.001 A 
HETATM   38  C   UNL     1      32.947 -10.211   4.305  1.00  0.00     0.009 A 
ENDBRANCH  32  33
ENDBRANCH   1  32
TORSDOF 6
ENDMDL
