MODEL 1
REMARK VINA RESULT:      -8.2      0.000      0.000
REMARK  7 active torsions:
REMARK  status: ('A' for Active; 'I' for Inactive)
REMARK    1  A    between atoms: O_2  and  C_3 
REMARK    2  A    between atoms: C_6  and  N_7 
REMARK       I    between atoms: N_7  and  C_8 
REMARK    3  A    between atoms: C_8  and  C_9 
REMARK    4  A    between atoms: C_9  and  C_10 
REMARK    5  A    between atoms: C_10  and  N_11 
REMARK    6  A    between atoms: C_10  and  C_20 
REMARK       I    between atoms: N_11  and  C_12 
REMARK    7  A    between atoms: C_12  and  C_13 
ROOT
HETATM    1  C   UNL     1      44.724 -14.489   6.749  1.00  0.00     0.126 C 
ENDROOT
BRANCH   1   2
HETATM    2  C   UNL     1      44.399 -14.012   5.320  1.00  0.00     0.133 C 
BRANCH   2   3
HETATM    3  C   UNL     1      42.912 -14.008   5.067  1.00  0.00     0.224 C 
HETATM    4  N   UNL     1      42.291 -14.950   4.304  1.00  0.00    -0.326 N 
HETATM    5  H   UNL     1      41.293 -14.767   4.295  1.00  0.00     0.169 HD
HETATM    6  O   UNL     1      42.190 -13.104   5.506  1.00  0.00    -0.273 OA
BRANCH   4   7
HETATM    7  C   UNL     1      42.698 -16.109   3.622  1.00  0.00     0.052 A 
HETATM    8  C   UNL     1      43.520 -16.192   2.504  1.00  0.00     0.149 A 
HETATM    9  N   UNL     1      43.921 -17.357   1.928  1.00  0.00    -0.235 NA
HETATM   10  C   UNL     1      43.474 -18.499   2.484  1.00  0.00     0.163 A 
HETATM   11  C   UNL     1      42.606 -18.533   3.558  1.00  0.00     0.060 A 
HETATM   12  C   UNL     1      42.219 -17.323   4.130  1.00  0.00     0.035 A 
BRANCH  10  13
HETATM   13  O   UNL     1      43.869 -19.719   1.975  1.00  0.00    -0.339 OA
HETATM   14  C   UNL     1      44.745 -20.421   2.851  1.00  0.00     0.211 C 
ENDBRANCH  10  13
ENDBRANCH   4   7
ENDBRANCH   2   3
ENDBRANCH   1   2
BRANCH   1  15
HETATM   15  N   UNL     1      44.194 -13.648   7.831  1.00  0.00    -0.348 N 
HETATM   16  C   UNL     1      44.911 -12.741   8.580  1.00  0.00     0.252 C 
HETATM   17  O   UNL     1      46.103 -12.504   8.419  1.00  0.00    -0.268 OA
HETATM   18  H   UNL     1      43.187 -13.619   7.888  1.00  0.00     0.163 HD
BRANCH  16  19
HETATM   19  C   UNL     1      44.169 -12.004   9.642  1.00  0.00     0.032 A 
HETATM   20  C   UNL     1      43.270 -10.970   9.353  1.00  0.00     0.017 A 
HETATM   21  C   UNL     1      42.574 -10.339  10.387  1.00  0.00     0.001 A 
HETATM   22  C   UNL     1      42.759 -10.745  11.709  1.00  0.00     0.000 A 
HETATM   23  C   UNL     1      43.639 -11.785  12.003  1.00  0.00     0.001 A 
HETATM   24  C   UNL     1      44.340 -12.414  10.973  1.00  0.00     0.017 A 
ENDBRANCH  16  19
ENDBRANCH   1  15
BRANCH   1  25
HETATM   25  C   UNL     1      44.392 -15.962   6.944  1.00  0.00    -0.035 A 
HETATM   26  C   UNL     1      45.199 -16.933   6.324  1.00  0.00     0.009 A 
HETATM   27  C   UNL     1      44.919 -18.294   6.458  1.00  0.00     0.001 A 
HETATM   28  C   UNL     1      43.826 -18.705   7.217  1.00  0.00     0.000 A 
HETATM   29  C   UNL     1      43.011 -17.757   7.829  1.00  0.00     0.001 A 
HETATM   30  C   UNL     1      43.287 -16.395   7.689  1.00  0.00     0.009 A 
ENDBRANCH   1  25
TORSDOF 7
ENDMDL
MODEL 2
REMARK VINA RESULT:      -8.0      3.371      6.698
REMARK  7 active torsions:
REMARK  status: ('A' for Active; 'I' for Inactive)
REMARK    1  A    between atoms: O_2  and  C_3 
REMARK    2  A    between atoms: C_6  and  N_7 
REMARK       I    between atoms: N_7  and  C_8 
REMARK    3  A    between atoms: C_8  and  C_9 
REMARK    4  A    between atoms: C_9  and  C_10 
REMARK    5  A    between atoms: C_10  and  N_11 
REMARK    6  A    between atoms: C_10  and  C_20 
REMARK       I    between atoms: N_11  and  C_12 
REMARK    7  A    between atoms: C_12  and  C_13 
ROOT
HETATM    1  C   UNL     1      43.443 -18.115   5.719  1.00  0.00     0.126 C 
ENDROOT
BRANCH   1   2
HETATM    2  C   UNL     1      44.436 -17.259   6.530  1.00  0.00     0.133 C 
BRANCH   2   3
HETATM    3  C   UNL     1      43.714 -16.294   7.439  1.00  0.00     0.224 C 
HETATM    4  N   UNL     1      43.211 -15.106   7.002  1.00  0.00    -0.326 N 
HETATM    5  H   UNL     1      42.746 -14.638   7.773  1.00  0.00     0.169 HD
HETATM    6  O   UNL     1      43.593 -16.523   8.649  1.00  0.00    -0.273 OA
BRANCH   4   7
HETATM    7  C   UNL     1      43.130 -14.453   5.761  1.00  0.00     0.052 A 
HETATM    8  C   UNL     1      44.164 -14.190   4.871  1.00  0.00     0.149 A 
HETATM    9  N   UNL     1      44.003 -13.600   3.655  1.00  0.00    -0.235 NA
HETATM   10  C   UNL     1      42.751 -13.243   3.311  1.00  0.00     0.163 A 
HETATM   11  C   UNL     1      41.659 -13.401   4.142  1.00  0.00     0.060 A 
HETATM   12  C   UNL     1      41.856 -14.014   5.378  1.00  0.00     0.035 A 
BRANCH  10  13
HETATM   13  O   UNL     1      42.507 -12.673   2.078  1.00  0.00    -0.339 OA
HETATM   14  C   UNL     1      41.293 -11.929   2.050  1.00  0.00     0.211 C 
ENDBRANCH  10  13
ENDBRANCH   4   7
ENDBRANCH   2   3
ENDBRANCH   1   2
BRANCH   1  15
HETATM   15  N   UNL     1      42.973 -17.517   4.462  1.00  0.00    -0.348 N 
HETATM   16  C   UNL     1      41.660 -17.379   4.070  1.00  0.00     0.252 C 
HETATM   17  O   UNL     1      40.699 -17.728   4.745  1.00  0.00    -0.268 OA
HETATM   18  H   UNL     1      43.677 -17.011   3.946  1.00  0.00     0.163 HD
BRANCH  16  19
HETATM   19  C   UNL     1      41.414 -16.752   2.739  1.00  0.00     0.032 A 
HETATM   20  C   UNL     1      40.227 -16.075   2.434  1.00  0.00     0.017 A 
HETATM   21  C   UNL     1      40.067 -15.474   1.182  1.00  0.00     0.001 A 
HETATM   22  C   UNL     1      41.092 -15.535   0.238  1.00  0.00     0.000 A 
HETATM   23  C   UNL     1      42.282 -16.193   0.540  1.00  0.00     0.001 A 
HETATM   24  C   UNL     1      42.444 -16.798   1.788  1.00  0.00     0.017 A 
ENDBRANCH  16  19
ENDBRANCH   1  15
BRANCH   1  25
HETATM   25  C   UNL     1      43.947 -19.540   5.530  1.00  0.00    -0.035 A 
HETATM   26  C   UNL     1      44.488 -19.914   4.287  1.00  0.00     0.009 A 
HETATM   27  C   UNL     1      44.942 -21.215   4.063  1.00  0.00     0.001 A 
HETATM   28  C   UNL     1      44.864 -22.162   5.080  1.00  0.00     0.000 A 
HETATM   29  C   UNL     1      44.322 -21.810   6.314  1.00  0.00     0.001 A 
HETATM   30  C   UNL     1      43.860 -20.511   6.536  1.00  0.00     0.009 A 
ENDBRANCH   1  25
TORSDOF 7
ENDMDL
MODEL 3
REMARK VINA RESULT:      -7.8      3.984      6.209
REMARK  7 active torsions:
REMARK  status: ('A' for Active; 'I' for Inactive)
REMARK    1  A    between atoms: O_2  and  C_3 
REMARK    2  A    between atoms: C_6  and  N_7 
REMARK       I    between atoms: N_7  and  C_8 
REMARK    3  A    between atoms: C_8  and  C_9 
REMARK    4  A    between atoms: C_9  and  C_10 
REMARK    5  A    between atoms: C_10  and  N_11 
REMARK    6  A    between atoms: C_10  and  C_20 
REMARK       I    between atoms: N_11  and  C_12 
REMARK    7  A    between atoms: C_12  and  C_13 
ROOT
HETATM    1  C   UNL     1      43.420 -16.735   2.222  1.00  0.00     0.126 C 
ENDROOT
BRANCH   1   2
HETATM    2  C   UNL     1      42.850 -17.044   0.823  1.00  0.00     0.133 C 
BRANCH   2   3
HETATM    3  C   UNL     1      41.348 -16.906   0.799  1.00  0.00     0.224 C 
HETATM    4  N   UNL     1      40.697 -16.082  -0.069  1.00  0.00    -0.326 N 
HETATM    5  H   UNL     1      39.697 -16.171   0.074  1.00  0.00     0.169 HD
HETATM    6  O   UNL     1      40.636 -17.507   1.614  1.00  0.00    -0.273 OA
BRANCH   4   7
HETATM    7  C   UNL     1      41.084 -15.234  -1.120  1.00  0.00     0.052 A 
HETATM    8  C   UNL     1      41.055 -15.504  -2.483  1.00  0.00     0.149 A 
HETATM    9  N   UNL     1      41.393 -14.611  -3.452  1.00  0.00    -0.235 NA
HETATM   10  C   UNL     1      41.790 -13.390  -3.046  1.00  0.00     0.163 A 
HETATM   11  C   UNL     1      41.914 -13.033  -1.717  1.00  0.00     0.060 A 
HETATM   12  C   UNL     1      41.554 -13.968  -0.749  1.00  0.00     0.035 A 
BRANCH  10  13
HETATM   13  O   UNL     1      42.114 -12.421  -3.974  1.00  0.00    -0.339 OA
HETATM   14  C   UNL     1      42.387 -11.158  -3.376  1.00  0.00     0.211 C 
ENDBRANCH  10  13
ENDBRANCH   4   7
ENDBRANCH   2   3
ENDBRANCH   1   2
BRANCH   1  15
HETATM   15  N   UNL     1      42.583 -15.874   3.068  1.00  0.00    -0.348 N 
HETATM   16  C   UNL     1      42.868 -14.580   3.444  1.00  0.00     0.252 C 
HETATM   17  O   UNL     1      43.869 -13.966   3.094  1.00  0.00    -0.268 OA
HETATM   18  H   UNL     1      41.647 -16.217   3.223  1.00  0.00     0.163 HD
BRANCH  16  19
HETATM   19  C   UNL     1      41.877 -13.897   4.324  1.00  0.00     0.032 A 
HETATM   20  C   UNL     1      41.979 -12.542   4.662  1.00  0.00     0.017 A 
HETATM   21  C   UNL     1      40.999 -11.946   5.461  1.00  0.00     0.001 A 
HETATM   22  C   UNL     1      39.911 -12.693   5.914  1.00  0.00     0.000 A 
HETATM   23  C   UNL     1      39.795 -14.037   5.569  1.00  0.00     0.001 A 
HETATM   24  C   UNL     1      40.774 -14.637   4.775  1.00  0.00     0.017 A 
ENDBRANCH  16  19
ENDBRANCH   1  15
BRANCH   1  25
HETATM   25  C   UNL     1      43.868 -17.998   2.943  1.00  0.00    -0.035 A 
HETATM   26  C   UNL     1      44.124 -19.160   2.193  1.00  0.00     0.009 A 
HETATM   27  C   UNL     1      44.516 -20.347   2.815  1.00  0.00     0.001 A 
HETATM   28  C   UNL     1      44.659 -20.389   4.199  1.00  0.00     0.000 A 
HETATM   29  C   UNL     1      44.400 -19.250   4.959  1.00  0.00     0.001 A 
HETATM   30  C   UNL     1      44.000 -18.065   4.337  1.00  0.00     0.009 A 
ENDBRANCH   1  25
TORSDOF 7
ENDMDL
MODEL 4
REMARK VINA RESULT:      -7.8      3.063      7.978
REMARK  7 active torsions:
REMARK  status: ('A' for Active; 'I' for Inactive)
REMARK    1  A    between atoms: O_2  and  C_3 
REMARK    2  A    between atoms: C_6  and  N_7 
REMARK       I    between atoms: N_7  and  C_8 
REMARK    3  A    between atoms: C_8  and  C_9 
REMARK    4  A    between atoms: C_9  and  C_10 
REMARK    5  A    between atoms: C_10  and  N_11 
REMARK    6  A    between atoms: C_10  and  C_20 
REMARK       I    between atoms: N_11  and  C_12 
REMARK    7  A    between atoms: C_12  and  C_13 
ROOT
HETATM    1  C   UNL     1      42.041 -16.580   4.140  1.00  0.00     0.126 C 
ENDROOT
BRANCH   1   2
HETATM    2  C   UNL     1      41.770 -15.749   2.870  1.00  0.00     0.133 C 
BRANCH   2   3
HETATM    3  C   UNL     1      40.292 -15.654   2.581  1.00  0.00     0.224 C 
HETATM    4  N   UNL     1      39.487 -14.719   3.157  1.00  0.00    -0.326 N 
HETATM    5  H   UNL     1      38.544 -14.824   2.797  1.00  0.00     0.169 HD
HETATM    6  O   UNL     1      39.731 -16.468   1.835  1.00  0.00    -0.273 OA
BRANCH   4   7
HETATM    7  C   UNL     1      39.680 -13.643   4.040  1.00  0.00     0.052 A 
HETATM    8  C   UNL     1      39.866 -12.304   3.719  1.00  0.00     0.149 A 
HETATM    9  N   UNL     1      39.991 -11.303   4.632  1.00  0.00    -0.235 NA
HETATM   10  C   UNL     1      39.939 -11.653   5.932  1.00  0.00     0.163 A 
HETATM   11  C   UNL     1      39.818 -12.959   6.364  1.00  0.00     0.060 A 
HETATM   12  C   UNL     1      39.686 -13.960   5.404  1.00  0.00     0.035 A 
BRANCH  10  13
HETATM   13  O   UNL     1      40.022 -10.686   6.913  1.00  0.00    -0.339 OA
HETATM   14  C   UNL     1      39.535 -11.140   8.172  1.00  0.00     0.211 C 
ENDBRANCH  10  13
ENDBRANCH   4   7
ENDBRANCH   2   3
ENDBRANCH   1   2
BRANCH   1  15
HETATM   15  N   UNL     1      42.525 -17.947   3.909  1.00  0.00    -0.348 N 
HETATM   16  C   UNL     1      43.561 -18.313   3.077  1.00  0.00     0.252 C 
HETATM   17  O   UNL     1      44.234 -17.522   2.428  1.00  0.00    -0.268 OA
HETATM   18  H   UNL     1      42.175 -18.634   4.559  1.00  0.00     0.163 HD
BRANCH  16  19
HETATM   19  C   UNL     1      43.872 -19.768   2.984  1.00  0.00     0.032 A 
HETATM   20  C   UNL     1      43.608 -20.522   1.833  1.00  0.00     0.017 A 
HETATM   21  C   UNL     1      43.956 -21.875   1.789  1.00  0.00     0.001 A 
HETATM   22  C   UNL     1      44.578 -22.476   2.884  1.00  0.00     0.000 A 
HETATM   23  C   UNL     1      44.857 -21.729   4.026  1.00  0.00     0.001 A 
HETATM   24  C   UNL     1      44.507 -20.379   4.075  1.00  0.00     0.017 A 
ENDBRANCH  16  19
ENDBRANCH   1  15
BRANCH   1  25
HETATM   25  C   UNL     1      42.904 -15.821   5.139  1.00  0.00    -0.035 A 
HETATM   26  C   UNL     1      43.221 -16.428   6.368  1.00  0.00     0.009 A 
HETATM   27  C   UNL     1      43.992 -15.761   7.322  1.00  0.00     0.001 A 
HETATM   28  C   UNL     1      44.458 -14.475   7.061  1.00  0.00     0.000 A 
HETATM   29  C   UNL     1      44.144 -13.855   5.853  1.00  0.00     0.001 A 
HETATM   30  C   UNL     1      43.367 -14.520   4.902  1.00  0.00     0.009 A 
ENDBRANCH   1  25
TORSDOF 7
ENDMDL
MODEL 5
REMARK VINA RESULT:      -7.7      3.892      7.964
REMARK  7 active torsions:
REMARK  status: ('A' for Active; 'I' for Inactive)
REMARK    1  A    between atoms: O_2  and  C_3 
REMARK    2  A    between atoms: C_6  and  N_7 
REMARK       I    between atoms: N_7  and  C_8 
REMARK    3  A    between atoms: C_8  and  C_9 
REMARK    4  A    between atoms: C_9  and  C_10 
REMARK    5  A    between atoms: C_10  and  N_11 
REMARK    6  A    between atoms: C_10  and  C_20 
REMARK       I    between atoms: N_11  and  C_12 
REMARK    7  A    between atoms: C_12  and  C_13 
ROOT
HETATM    1  C   UNL     1      40.794 -16.104   1.043  1.00  0.00     0.126 C 
ENDROOT
BRANCH   1   2
HETATM    2  C   UNL     1      39.657 -15.862   2.055  1.00  0.00     0.133 C 
BRANCH   2   3
HETATM    3  C   UNL     1      39.657 -14.438   2.551  1.00  0.00     0.224 C 
HETATM    4  N   UNL     1      40.323 -14.048   3.674  1.00  0.00    -0.326 N 
HETATM    5  H   UNL     1      40.209 -13.048   3.800  1.00  0.00     0.169 HD
HETATM    6  O   UNL     1      38.999 -13.559   1.980  1.00  0.00    -0.273 OA
BRANCH   4   7
HETATM    7  C   UNL     1      41.159 -14.683   4.609  1.00  0.00     0.052 A 
HETATM    8  C   UNL     1      40.780 -15.486   5.678  1.00  0.00     0.149 A 
HETATM    9  N   UNL     1      41.650 -16.116   6.513  1.00  0.00    -0.235 NA
HETATM   10  C   UNL     1      42.964 -15.932   6.280  1.00  0.00     0.163 A 
HETATM   11  C   UNL     1      43.451 -15.108   5.284  1.00  0.00     0.060 A 
HETATM   12  C   UNL     1      42.535 -14.481   4.441  1.00  0.00     0.035 A 
BRANCH  10  13
HETATM   13  O   UNL     1      43.903 -16.570   7.064  1.00  0.00    -0.339 OA
HETATM   14  C   UNL     1      43.319 -17.275   8.153  1.00  0.00     0.211 C 
ENDBRANCH  10  13
ENDBRANCH   4   7
ENDBRANCH   2   3
ENDBRANCH   1   2
BRANCH   1  15
HETATM   15  N   UNL     1      41.289 -14.907   0.351  1.00  0.00    -0.348 N 
HETATM   16  C   UNL     1      41.276 -14.692  -1.009  1.00  0.00     0.252 C 
HETATM   17  O   UNL     1      40.821 -15.483  -1.827  1.00  0.00    -0.268 OA
HETATM   18  H   UNL     1      41.482 -14.121   0.953  1.00  0.00     0.163 HD
BRANCH  16  19
HETATM   19  C   UNL     1      41.848 -13.403  -1.496  1.00  0.00     0.032 A 
HETATM   20  C   UNL     1      42.046 -13.134  -2.855  1.00  0.00     0.017 A 
HETATM   21  C   UNL     1      42.550 -11.893  -3.256  1.00  0.00     0.001 A 
HETATM   22  C   UNL     1      42.846 -10.915  -2.305  1.00  0.00     0.000 A 
HETATM   23  C   UNL     1      42.635 -11.171  -0.952  1.00  0.00     0.001 A 
HETATM   24  C   UNL     1      42.136 -12.410  -0.548  1.00  0.00     0.017 A 
ENDBRANCH  16  19
ENDBRANCH   1  15
BRANCH   1  25
HETATM   25  C   UNL     1      41.921 -16.934   1.646  1.00  0.00    -0.035 A 
HETATM   26  C   UNL     1      41.681 -17.656   2.829  1.00  0.00     0.009 A 
HETATM   27  C   UNL     1      42.690 -18.412   3.427  1.00  0.00     0.001 A 
HETATM   28  C   UNL     1      43.956 -18.458   2.850  1.00  0.00     0.000 A 
HETATM   29  C   UNL     1      44.214 -17.741   1.684  1.00  0.00     0.001 A 
HETATM   30  C   UNL     1      43.206 -16.978   1.089  1.00  0.00     0.009 A 
ENDBRANCH   1  25
TORSDOF 7
ENDMDL
MODEL 6
REMARK VINA RESULT:      -7.7      3.417      8.248
REMARK  7 active torsions:
REMARK  status: ('A' for Active; 'I' for Inactive)
REMARK    1  A    between atoms: O_2  and  C_3 
REMARK    2  A    between atoms: C_6  and  N_7 
REMARK       I    between atoms: N_7  and  C_8 
REMARK    3  A    between atoms: C_8  and  C_9 
REMARK    4  A    between atoms: C_9  and  C_10 
REMARK    5  A    between atoms: C_10  and  N_11 
REMARK    6  A    between atoms: C_10  and  C_20 
REMARK       I    between atoms: N_11  and  C_12 
REMARK    7  A    between atoms: C_12  and  C_13 
ROOT
HETATM    1  C   UNL     1      43.237 -15.578   2.901  1.00  0.00     0.126 C 
ENDROOT
BRANCH   1   2
HETATM    2  C   UNL     1      43.725 -14.656   4.035  1.00  0.00     0.133 C 
BRANCH   2   3
HETATM    3  C   UNL     1      43.293 -15.170   5.386  1.00  0.00     0.224 C 
HETATM    4  N   UNL     1      42.258 -14.625   6.085  1.00  0.00    -0.326 N 
HETATM    5  H   UNL     1      42.129 -15.145   6.947  1.00  0.00     0.169 HD
HETATM    6  O   UNL     1      43.902 -16.089   5.947  1.00  0.00    -0.273 OA
BRANCH   4   7
HETATM    7  C   UNL     1      41.327 -13.600   5.852  1.00  0.00     0.052 A 
HETATM    8  C   UNL     1      41.563 -12.231   5.809  1.00  0.00     0.149 A 
HETATM    9  N   UNL     1      40.619 -11.295   5.521  1.00  0.00    -0.235 NA
HETATM   10  C   UNL     1      39.373 -11.741   5.271  1.00  0.00     0.163 A 
HETATM   11  C   UNL     1      39.012 -13.072   5.345  1.00  0.00     0.060 A 
HETATM   12  C   UNL     1      40.004 -14.007   5.637  1.00  0.00     0.035 A 
BRANCH  10  13
HETATM   13  O   UNL     1      38.372 -10.852   4.936  1.00  0.00    -0.339 OA
HETATM   14  C   UNL     1      38.777  -9.924   3.934  1.00  0.00     0.211 C 
ENDBRANCH  10  13
ENDBRANCH   4   7
ENDBRANCH   2   3
ENDBRANCH   1   2
BRANCH   1  15
HETATM   15  N   UNL     1      43.478 -17.013   3.105  1.00  0.00    -0.348 N 
HETATM   16  C   UNL     1      43.851 -17.920   2.137  1.00  0.00     0.252 C 
HETATM   17  O   UNL     1      44.050 -17.631   0.963  1.00  0.00    -0.268 OA
HETATM   18  H   UNL     1      43.549 -17.296   4.071  1.00  0.00     0.163 HD
BRANCH  16  19
HETATM   19  C   UNL     1      44.027 -19.336   2.569  1.00  0.00     0.032 A 
HETATM   20  C   UNL     1      43.768 -20.419   1.721  1.00  0.00     0.017 A 
HETATM   21  C   UNL     1      43.988 -21.725   2.168  1.00  0.00     0.001 A 
HETATM   22  C   UNL     1      44.477 -21.955   3.455  1.00  0.00     0.000 A 
HETATM   23  C   UNL     1      44.752 -20.881   4.298  1.00  0.00     0.001 A 
HETATM   24  C   UNL     1      44.530 -19.576   3.857  1.00  0.00     0.017 A 
ENDBRANCH  16  19
ENDBRANCH   1  15
BRANCH   1  25
HETATM   25  C   UNL     1      41.795 -15.283   2.511  1.00  0.00    -0.035 A 
HETATM   26  C   UNL     1      41.437 -13.969   2.158  1.00  0.00     0.009 A 
HETATM   27  C   UNL     1      40.122 -13.650   1.815  1.00  0.00     0.001 A 
HETATM   28  C   UNL     1      39.144 -14.640   1.819  1.00  0.00     0.000 A 
HETATM   29  C   UNL     1      39.479 -15.944   2.176  1.00  0.00     0.001 A 
HETATM   30  C   UNL     1      40.793 -16.263   2.526  1.00  0.00     0.009 A 
ENDBRANCH   1  25
TORSDOF 7
ENDMDL
MODEL 7
REMARK VINA RESULT:      -7.6      3.671      7.894
REMARK  7 active torsions:
REMARK  status: ('A' for Active; 'I' for Inactive)
REMARK    1  A    between atoms: O_2  and  C_3 
REMARK    2  A    between atoms: C_6  and  N_7 
REMARK       I    between atoms: N_7  and  C_8 
REMARK    3  A    between atoms: C_8  and  C_9 
REMARK    4  A    between atoms: C_9  and  C_10 
REMARK    5  A    between atoms: C_10  and  N_11 
REMARK    6  A    between atoms: C_10  and  C_20 
REMARK       I    between atoms: N_11  and  C_12 
REMARK    7  A    between atoms: C_12  and  C_13 
ROOT
HETATM    1  C   UNL     1      41.991 -16.532   3.818  1.00  0.00     0.126 C 
ENDROOT
BRANCH   1   2
HETATM    2  C   UNL     1      41.830 -15.747   2.502  1.00  0.00     0.133 C 
BRANCH   2   3
HETATM    3  C   UNL     1      40.681 -16.279   1.681  1.00  0.00     0.224 C 
HETATM    4  N   UNL     1      40.363 -15.787   0.451  1.00  0.00    -0.326 N 
HETATM    5  H   UNL     1      39.580 -16.309   0.075  1.00  0.00     0.169 HD
HETATM    6  O   UNL     1      39.935 -17.163   2.121  1.00  0.00    -0.273 OA
BRANCH   4   7
HETATM    7  C   UNL     1      40.905 -14.812  -0.404  1.00  0.00     0.052 A 
HETATM    8  C   UNL     1      41.418 -13.568  -0.056  1.00  0.00     0.149 A 
HETATM    9  N   UNL     1      41.980 -12.694  -0.934  1.00  0.00    -0.235 NA
HETATM   10  C   UNL     1      42.028 -13.072  -2.226  1.00  0.00     0.163 A 
HETATM   11  C   UNL     1      41.495 -14.258  -2.692  1.00  0.00     0.060 A 
HETATM   12  C   UNL     1      40.931 -15.134  -1.766  1.00  0.00     0.035 A 
BRANCH  10  13
HETATM   13  O   UNL     1      42.617 -12.252  -3.167  1.00  0.00    -0.339 OA
HETATM   14  C   UNL     1      42.745 -10.907  -2.718  1.00  0.00     0.211 C 
ENDBRANCH  10  13
ENDBRANCH   4   7
ENDBRANCH   2   3
ENDBRANCH   1   2
BRANCH   1  15
HETATM   15  N   UNL     1      42.484 -17.908   3.676  1.00  0.00    -0.348 N 
HETATM   16  C   UNL     1      43.577 -18.307   2.938  1.00  0.00     0.252 C 
HETATM   17  O   UNL     1      44.300 -17.542   2.310  1.00  0.00    -0.268 OA
HETATM   18  H   UNL     1      42.085 -18.569   4.326  1.00  0.00     0.163 HD
BRANCH  16  19
HETATM   19  C   UNL     1      43.888 -19.765   2.924  1.00  0.00     0.032 A 
HETATM   20  C   UNL     1      43.627 -20.580   1.816  1.00  0.00     0.017 A 
HETATM   21  C   UNL     1      43.975 -21.933   1.846  1.00  0.00     0.001 A 
HETATM   22  C   UNL     1      44.595 -22.475   2.973  1.00  0.00     0.000 A 
HETATM   23  C   UNL     1      44.872 -21.667   4.073  1.00  0.00     0.001 A 
HETATM   24  C   UNL     1      44.522 -20.316   4.049  1.00  0.00     0.017 A 
ENDBRANCH  16  19
ENDBRANCH   1  15
BRANCH   1  25
HETATM   25  C   UNL     1      42.771 -15.740   4.858  1.00  0.00    -0.035 A 
HETATM   26  C   UNL     1      43.036 -14.379   4.625  1.00  0.00     0.009 A 
HETATM   27  C   UNL     1      43.766 -13.620   5.541  1.00  0.00     0.001 A 
HETATM   28  C   UNL     1      44.243 -14.212   6.708  1.00  0.00     0.000 A 
HETATM   29  C   UNL     1      43.998 -15.562   6.950  1.00  0.00     0.001 A 
HETATM   30  C   UNL     1      43.274 -16.323   6.029  1.00  0.00     0.009 A 
ENDBRANCH   1  25
TORSDOF 7
ENDMDL
MODEL 8
REMARK VINA RESULT:      -7.5      3.663      7.898
REMARK  7 active torsions:
REMARK  status: ('A' for Active; 'I' for Inactive)
REMARK    1  A    between atoms: O_2  and  C_3 
REMARK    2  A    between atoms: C_6  and  N_7 
REMARK       I    between atoms: N_7  and  C_8 
REMARK    3  A    between atoms: C_8  and  C_9 
REMARK    4  A    between atoms: C_9  and  C_10 
REMARK    5  A    between atoms: C_10  and  N_11 
REMARK    6  A    between atoms: C_10  and  C_20 
REMARK       I    between atoms: N_11  and  C_12 
REMARK    7  A    between atoms: C_12  and  C_13 
ROOT
HETATM    1  C   UNL     1      41.056 -15.315   1.930  1.00  0.00     0.126 C 
ENDROOT
BRANCH   1   2
HETATM    2  C   UNL     1      39.851 -15.014   2.843  1.00  0.00     0.133 C 
BRANCH   2   3
HETATM    3  C   UNL     1      40.137 -13.855   3.766  1.00  0.00     0.224 C 
HETATM    4  N   UNL     1      40.720 -14.011   4.987  1.00  0.00    -0.326 N 
HETATM    5  H   UNL     1      40.841 -13.100   5.417  1.00  0.00     0.169 HD
HETATM    6  O   UNL     1      39.801 -12.701   3.469  1.00  0.00    -0.273 OA
BRANCH   4   7
HETATM    7  C   UNL     1      41.237 -15.096   5.715  1.00  0.00     0.052 A 
HETATM    8  C   UNL     1      40.538 -16.178   6.238  1.00  0.00     0.149 A 
HETATM    9  N   UNL     1      41.114 -17.226   6.886  1.00  0.00    -0.235 NA
HETATM   10  C   UNL     1      42.453 -17.194   7.030  1.00  0.00     0.163 A 
HETATM   11  C   UNL     1      43.239 -16.141   6.604  1.00  0.00     0.060 A 
HETATM   12  C   UNL     1      42.620 -15.085   5.938  1.00  0.00     0.035 A 
BRANCH  10  13
HETATM   13  O   UNL     1      43.110 -18.240   7.645  1.00  0.00    -0.339 OA
HETATM   14  C   UNL     1      44.519 -18.195   7.446  1.00  0.00     0.211 C 
ENDBRANCH  10  13
ENDBRANCH   4   7
ENDBRANCH   2   3
ENDBRANCH   1   2
BRANCH   1  15
HETATM   15  N   UNL     1      41.729 -16.598   2.175  1.00  0.00    -0.348 N 
HETATM   16  C   UNL     1      43.037 -16.766   2.572  1.00  0.00     0.252 C 
HETATM   17  O   UNL     1      43.814 -15.844   2.793  1.00  0.00    -0.268 OA
HETATM   18  H   UNL     1      41.112 -17.395   2.227  1.00  0.00     0.163 HD
BRANCH  16  19
HETATM   19  C   UNL     1      43.516 -18.167   2.746  1.00  0.00     0.032 A 
HETATM   20  C   UNL     1      44.164 -18.602   3.910  1.00  0.00     0.017 A 
HETATM   21  C   UNL     1      44.557 -19.937   4.033  1.00  0.00     0.001 A 
HETATM   22  C   UNL     1      44.296 -20.845   3.006  1.00  0.00     0.000 A 
HETATM   23  C   UNL     1      43.638 -20.423   1.852  1.00  0.00     0.001 A 
HETATM   24  C   UNL     1      43.247 -19.089   1.724  1.00  0.00     0.017 A 
ENDBRANCH  16  19
ENDBRANCH   1  15
BRANCH   1  25
HETATM   25  C   UNL     1      40.718 -15.109   0.460  1.00  0.00    -0.035 A 
HETATM   26  C   UNL     1      39.745 -14.156   0.109  1.00  0.00     0.009 A 
HETATM   27  C   UNL     1      39.389 -13.949  -1.225  1.00  0.00     0.001 A 
HETATM   28  C   UNL     1      40.002 -14.692  -2.230  1.00  0.00     0.000 A 
HETATM   29  C   UNL     1      40.962 -15.647  -1.899  1.00  0.00     0.001 A 
HETATM   30  C   UNL     1      41.313 -15.859  -0.563  1.00  0.00     0.009 A 
ENDBRANCH   1  25
TORSDOF 7
ENDMDL
MODEL 9
REMARK VINA RESULT:      -7.5      3.548      7.370
REMARK  7 active torsions:
REMARK  status: ('A' for Active; 'I' for Inactive)
REMARK    1  A    between atoms: O_2  and  C_3 
REMARK    2  A    between atoms: C_6  and  N_7 
REMARK       I    between atoms: N_7  and  C_8 
REMARK    3  A    between atoms: C_8  and  C_9 
REMARK    4  A    between atoms: C_9  and  C_10 
REMARK    5  A    between atoms: C_10  and  N_11 
REMARK    6  A    between atoms: C_10  and  C_20 
REMARK       I    between atoms: N_11  and  C_12 
REMARK    7  A    between atoms: C_12  and  C_13 
ROOT
HETATM    1  C   UNL     1      43.129 -18.162   3.964  1.00  0.00     0.126 C 
ENDROOT
BRANCH   1   2
HETATM    2  C   UNL     1      43.986 -17.647   5.137  1.00  0.00     0.133 C 
BRANCH   2   3
HETATM    3  C   UNL     1      43.194 -17.606   6.420  1.00  0.00     0.224 C 
HETATM    4  N   UNL     1      42.377 -16.567   6.749  1.00  0.00    -0.326 N 
HETATM    5  H   UNL     1      41.927 -16.765   7.636  1.00  0.00     0.169 HD
HETATM    6  O   UNL     1      43.295 -18.505   7.265  1.00  0.00    -0.273 OA
BRANCH   4   7
HETATM    7  C   UNL     1      41.980 -15.373   6.123  1.00  0.00     0.052 A 
HETATM    8  C   UNL     1      42.784 -14.303   5.748  1.00  0.00     0.149 A 
HETATM    9  N   UNL     1      42.338 -13.198   5.092  1.00  0.00    -0.235 NA
HETATM   10  C   UNL     1      41.024 -13.148   4.802  1.00  0.00     0.163 A 
HETATM   11  C   UNL     1      40.124 -14.126   5.180  1.00  0.00     0.060 A 
HETATM   12  C   UNL     1      40.613 -15.249   5.845  1.00  0.00     0.035 A 
BRANCH  10  13
HETATM   13  O   UNL     1      40.507 -12.074   4.106  1.00  0.00    -0.339 OA
HETATM   14  C   UNL     1      39.247 -12.363   3.510  1.00  0.00     0.211 C 
ENDBRANCH  10  13
ENDBRANCH   4   7
ENDBRANCH   2   3
ENDBRANCH   1   2
BRANCH   1  15
HETATM   15  N   UNL     1      42.890 -17.195   2.884  1.00  0.00    -0.348 N 
HETATM   16  C   UNL     1      41.664 -16.714   2.482  1.00  0.00     0.252 C 
HETATM   17  O   UNL     1      40.598 -17.026   3.000  1.00  0.00    -0.268 OA
HETATM   18  H   UNL     1      43.717 -16.724   2.549  1.00  0.00     0.163 HD
BRANCH  16  19
HETATM   19  C   UNL     1      41.656 -15.745   1.348  1.00  0.00     0.032 A 
HETATM   20  C   UNL     1      41.349 -16.125   0.036  1.00  0.00     0.017 A 
HETATM   21  C   UNL     1      41.321 -15.165  -0.981  1.00  0.00     0.001 A 
HETATM   22  C   UNL     1      41.584 -13.826  -0.690  1.00  0.00     0.000 A 
HETATM   23  C   UNL     1      41.874 -13.439   0.616  1.00  0.00     0.001 A 
HETATM   24  C   UNL     1      41.908 -14.395   1.633  1.00  0.00     0.017 A 
ENDBRANCH  16  19
ENDBRANCH   1  15
BRANCH   1  25
HETATM   25  C   UNL     1      43.630 -19.502   3.441  1.00  0.00    -0.035 A 
HETATM   26  C   UNL     1      43.225 -19.933   2.165  1.00  0.00     0.009 A 
HETATM   27  C   UNL     1      43.642 -21.164   1.655  1.00  0.00     0.001 A 
HETATM   28  C   UNL     1      44.473 -21.983   2.415  1.00  0.00     0.000 A 
HETATM   29  C   UNL     1      44.876 -21.576   3.685  1.00  0.00     0.001 A 
HETATM   30  C   UNL     1      44.452 -20.347   4.198  1.00  0.00     0.009 A 
ENDBRANCH   1  25
TORSDOF 7
ENDMDL
MODEL 10
REMARK VINA RESULT:      -7.4      3.864      8.527
REMARK  7 active torsions:
REMARK  status: ('A' for Active; 'I' for Inactive)
REMARK    1  A    between atoms: O_2  and  C_3 
REMARK    2  A    between atoms: C_6  and  N_7 
REMARK       I    between atoms: N_7  and  C_8 
REMARK    3  A    between atoms: C_8  and  C_9 
REMARK    4  A    between atoms: C_9  and  C_10 
REMARK    5  A    between atoms: C_10  and  N_11 
REMARK    6  A    between atoms: C_10  and  C_20 
REMARK       I    between atoms: N_11  and  C_12 
REMARK    7  A    between atoms: C_12  and  C_13 
ROOT
HETATM    1  C   UNL     1      41.938 -16.433   3.733  1.00  0.00     0.126 C 
ENDROOT
BRANCH   1   2
HETATM    2  C   UNL     1      41.036 -16.346   4.980  1.00  0.00     0.133 C 
BRANCH   2   3
HETATM    3  C   UNL     1      41.677 -15.520   6.067  1.00  0.00     0.224 C 
HETATM    4  N   UNL     1      41.412 -14.195   6.239  1.00  0.00    -0.326 N 
HETATM    5  H   UNL     1      41.930 -13.853   7.042  1.00  0.00     0.169 HD
HETATM    6  O   UNL     1      42.524 -16.007   6.827  1.00  0.00    -0.273 OA
BRANCH   4   7
HETATM    7  C   UNL     1      40.561 -13.260   5.626  1.00  0.00     0.052 A 
HETATM    8  C   UNL     1      39.294 -12.866   6.040  1.00  0.00     0.149 A 
HETATM    9  N   UNL     1      38.547 -11.909   5.427  1.00  0.00    -0.235 NA
HETATM   10  C   UNL     1      39.082 -11.319   4.340  1.00  0.00     0.163 A 
HETATM   11  C   UNL     1      40.305 -11.674   3.807  1.00  0.00     0.060 A 
HETATM   12  C   UNL     1      41.049 -12.654   4.462  1.00  0.00     0.035 A 
BRANCH  10  13
HETATM   13  O   UNL     1      38.396 -10.314   3.689  1.00  0.00    -0.339 OA
HETATM   14  C   UNL     1      39.146  -9.742   2.622  1.00  0.00     0.211 C 
ENDBRANCH  10  13
ENDBRANCH   4   7
ENDBRANCH   2   3
ENDBRANCH   1   2
BRANCH   1  15
HETATM   15  N   UNL     1      42.446 -17.773   3.413  1.00  0.00    -0.348 N 
HETATM   16  C   UNL     1      43.595 -18.347   3.910  1.00  0.00     0.252 C 
HETATM   17  O   UNL     1      44.344 -17.804   4.714  1.00  0.00    -0.268 OA
HETATM   18  H   UNL     1      41.789 -18.370   2.932  1.00  0.00     0.163 HD
BRANCH  16  19
HETATM   19  C   UNL     1      43.927 -19.721   3.433  1.00  0.00     0.032 A 
HETATM   20  C   UNL     1      44.571 -20.663   4.244  1.00  0.00     0.017 A 
HETATM   21  C   UNL     1      44.822 -21.949   3.756  1.00  0.00     0.001 A 
HETATM   22  C   UNL     1      44.422 -22.302   2.467  1.00  0.00     0.000 A 
HETATM   23  C   UNL     1      43.766 -21.374   1.660  1.00  0.00     0.001 A 
HETATM   24  C   UNL     1      43.517 -20.088   2.143  1.00  0.00     0.017 A 
ENDBRANCH  16  19
ENDBRANCH   1  15
BRANCH   1  25
HETATM   25  C   UNL     1      41.307 -15.748   2.528  1.00  0.00    -0.035 A 
HETATM   26  C   UNL     1      39.930 -15.465   2.547  1.00  0.00     0.009 A 
HETATM   27  C   UNL     1      39.306 -14.857   1.455  1.00  0.00     0.001 A 
HETATM   28  C   UNL     1      40.051 -14.523   0.328  1.00  0.00     0.000 A 
HETATM   29  C   UNL     1      41.415 -14.806   0.289  1.00  0.00     0.001 A 
HETATM   30  C   UNL     1      42.038 -15.421   1.378  1.00  0.00     0.009 A 
ENDBRANCH   1  25
TORSDOF 7
ENDMDL
