MODEL 1
REMARK VINA RESULT:      -8.5      0.000      0.000
REMARK  8 active torsions:
REMARK  status: ('A' for Active; 'I' for Inactive)
REMARK    1  A    between atoms: C_3  and  N_4 
REMARK    2  A    between atoms: N_7  and  C_9 
REMARK    3  A    between atoms: C_9  and  C_10 
REMARK    4  A    between atoms: C_10  and  C_11 
REMARK    5  A    between atoms: C_11  and  N_12 
REMARK       I    between atoms: N_12  and  C_13 
REMARK    6  A    between atoms: C_13  and  C_14 
REMARK    7  A    between atoms: C_14  and  O_15 
REMARK    8  A    between atoms: O_15  and  C_16 
ROOT
HETATM    1  C   UNL     1      40.357 -12.702   5.844  1.00  0.00     0.236 C 
ENDROOT
BRANCH   1   2
HETATM    2  N   UNL     1      41.069 -14.038   5.892  1.00  0.00    -0.069 N 
HETATM    3  C   UNL     1      40.299 -15.155   5.162  1.00  0.00     0.249 C 
HETATM    4  C   UNL     1      41.103 -16.473   5.144  1.00  0.00     0.123 C 
HETATM    5  N   UNL     1      42.434 -16.227   4.555  1.00  0.00    -0.280 NA
HETATM    6  C   UNL     1      43.233 -15.245   5.305  1.00  0.00     0.123 C 
HETATM    7  C   UNL     1      42.490 -13.894   5.317  1.00  0.00     0.249 C 
HETATM    8  H   UNL     1      41.167 -14.327   6.874  1.00  0.00     0.280 HD
BRANCH   5   9
HETATM    9  C   UNL     1      43.084 -17.400   4.133  1.00  0.00     0.018 A 
HETATM   10  C   UNL     1      43.426 -17.566   2.770  1.00  0.00    -0.041 A 
HETATM   11  C   UNL     1      43.132 -16.514   1.732  1.00  0.00     0.050 C 
HETATM   12  C   UNL     1      44.054 -18.749   2.340  1.00  0.00     0.010 A 
HETATM   13  C   UNL     1      44.379 -19.755   3.247  1.00  0.00     0.024 A 
HETATM   14  C   UNL     1      44.066 -19.587   4.588  1.00  0.00     0.035 A 
HETATM   15  C   UNL     1      43.422 -18.428   5.029  1.00  0.00     0.048 A 
HETATM   16 CL   UNL     1      44.467 -20.818   5.721  1.00  0.00    -0.084 Cl
ENDBRANCH   5   9
ENDBRANCH   1   2
BRANCH   1  17
HETATM   17  C   UNL     1      39.532 -12.454   7.098  1.00  0.00     0.047 C 
BRANCH  17  18
HETATM   18  C   UNL     1      39.873 -11.082   7.684  1.00  0.00     0.124 C 
BRANCH  18  19
HETATM   19  N   UNL     1      40.935 -11.148   8.658  1.00  0.00    -0.359 N 
HETATM   20  C   UNL     1      42.039 -10.320   8.579  1.00  0.00     0.241 C 
HETATM   21  O   UNL     1      42.092  -9.373   7.796  1.00  0.00    -0.271 OA
HETATM   22  H   UNL     1      41.042 -11.971   9.248  1.00  0.00     0.162 HD
BRANCH  20  23
HETATM   23  C   UNL     1      43.189 -10.686   9.521  1.00  0.00     0.278 C 
BRANCH  23  24
HETATM   24  O   UNL     1      42.701 -11.451  10.621  1.00  0.00    -0.342 OA
BRANCH  24  25
HETATM   25  C   UNL     1      42.672 -10.834  11.841  1.00  0.00     0.069 A 
HETATM   26  C   UNL     1      43.645  -9.973  12.350  1.00  0.00     0.038 A 
HETATM   27  C   UNL     1      43.494  -9.419  13.627  1.00  0.00     0.026 A 
HETATM   28  C   UNL     1      42.370  -9.724  14.392  1.00  0.00     0.034 A 
HETATM   29 CL   UNL     1      42.188  -9.041  15.959  1.00  0.00    -0.084 Cl
HETATM   30  C   UNL     1      41.394 -10.581  13.891  1.00  0.00     0.026 A 
HETATM   31  C   UNL     1      41.549 -11.136  12.619  1.00  0.00     0.038 A 
ENDBRANCH  24  25
ENDBRANCH  23  24
ENDBRANCH  20  23
ENDBRANCH  18  19
ENDBRANCH  17  18
ENDBRANCH   1  17
TORSDOF 8
ENDMDL
MODEL 2
REMARK VINA RESULT:      -8.3      1.659      2.589
REMARK  8 active torsions:
REMARK  status: ('A' for Active; 'I' for Inactive)
REMARK    1  A    between atoms: C_3  and  N_4 
REMARK    2  A    between atoms: N_7  and  C_9 
REMARK    3  A    between atoms: C_9  and  C_10 
REMARK    4  A    between atoms: C_10  and  C_11 
REMARK    5  A    between atoms: C_11  and  N_12 
REMARK       I    between atoms: N_12  and  C_13 
REMARK    6  A    between atoms: C_13  and  C_14 
REMARK    7  A    between atoms: C_14  and  O_15 
REMARK    8  A    between atoms: O_15  and  C_16 
ROOT
HETATM    1  C   UNL     1      41.266 -13.441   3.351  1.00  0.00     0.236 C 
ENDROOT
BRANCH   1   2
HETATM    2  N   UNL     1      41.686 -14.843   2.963  1.00  0.00    -0.069 N 
HETATM    3  C   UNL     1      43.214 -14.998   2.833  1.00  0.00     0.249 C 
HETATM    4  C   UNL     1      43.607 -16.462   2.538  1.00  0.00     0.123 C 
HETATM    5  N   UNL     1      43.037 -17.342   3.578  1.00  0.00    -0.280 NA
HETATM    6  C   UNL     1      41.568 -17.295   3.641  1.00  0.00     0.123 C 
HETATM    7  C   UNL     1      41.122 -15.858   3.975  1.00  0.00     0.249 C 
HETATM    8  H   UNL     1      41.278 -15.071   2.047  1.00  0.00     0.280 HD
BRANCH   5   9
HETATM    9  C   UNL     1      43.646 -18.607   3.633  1.00  0.00     0.018 A 
HETATM   10  C   UNL     1      44.392 -18.983   4.776  1.00  0.00    -0.041 A 
HETATM   11  C   UNL     1      44.554 -18.072   5.966  1.00  0.00     0.050 C 
HETATM   12  C   UNL     1      45.023 -20.239   4.825  1.00  0.00     0.010 A 
HETATM   13  C   UNL     1      44.897 -21.142   3.772  1.00  0.00     0.024 A 
HETATM   14  C   UNL     1      44.147 -20.788   2.659  1.00  0.00     0.035 A 
HETATM   15  C   UNL     1      43.533 -19.535   2.584  1.00  0.00     0.048 A 
HETATM   16 CL   UNL     1      43.977 -21.896   1.354  1.00  0.00    -0.084 Cl
ENDBRANCH   5   9
ENDBRANCH   1   2
BRANCH   1  17
HETATM   17  C   UNL     1      42.012 -12.945   4.580  1.00  0.00     0.047 C 
BRANCH  17  18
HETATM   18  C   UNL     1      41.025 -12.679   5.719  1.00  0.00     0.124 C 
BRANCH  18  19
HETATM   19  N   UNL     1      41.619 -11.933   6.800  1.00  0.00    -0.359 N 
HETATM   20  C   UNL     1      40.943 -10.900   7.421  1.00  0.00     0.241 C 
HETATM   21  O   UNL     1      39.750 -10.682   7.216  1.00  0.00    -0.271 OA
HETATM   22  H   UNL     1      42.627 -11.950   6.944  1.00  0.00     0.162 HD
BRANCH  20  23
HETATM   23  C   UNL     1      41.794 -10.043   8.360  1.00  0.00     0.278 C 
BRANCH  23  24
HETATM   24  O   UNL     1      42.662 -10.871   9.132  1.00  0.00    -0.342 OA
BRANCH  24  25
HETATM   25  C   UNL     1      42.688 -10.655  10.482  1.00  0.00     0.069 A 
HETATM   26  C   UNL     1      43.753 -10.120  11.208  1.00  0.00     0.038 A 
HETATM   27  C   UNL     1      43.648  -9.964  12.596  1.00  0.00     0.026 A 
HETATM   28  C   UNL     1      42.480 -10.339  13.255  1.00  0.00     0.034 A 
HETATM   29 CL   UNL     1      42.356 -10.146  14.958  1.00  0.00    -0.084 Cl
HETATM   30  C   UNL     1      41.413 -10.873  12.538  1.00  0.00     0.026 A 
HETATM   31  C   UNL     1      41.521 -11.032  11.154  1.00  0.00     0.038 A 
ENDBRANCH  24  25
ENDBRANCH  23  24
ENDBRANCH  20  23
ENDBRANCH  18  19
ENDBRANCH  17  18
ENDBRANCH   1  17
TORSDOF 8
ENDMDL
MODEL 3
REMARK VINA RESULT:      -8.3      2.152      3.114
REMARK  8 active torsions:
REMARK  status: ('A' for Active; 'I' for Inactive)
REMARK    1  A    between atoms: C_3  and  N_4 
REMARK    2  A    between atoms: N_7  and  C_9 
REMARK    3  A    between atoms: C_9  and  C_10 
REMARK    4  A    between atoms: C_10  and  C_11 
REMARK    5  A    between atoms: C_11  and  N_12 
REMARK       I    between atoms: N_12  and  C_13 
REMARK    6  A    between atoms: C_13  and  C_14 
REMARK    7  A    between atoms: C_14  and  O_15 
REMARK    8  A    between atoms: O_15  and  C_16 
ROOT
HETATM    1  C   UNL     1      39.953 -14.281   4.420  1.00  0.00     0.236 C 
ENDROOT
BRANCH   1   2
HETATM    2  N   UNL     1      40.436 -15.669   4.056  1.00  0.00    -0.069 N 
HETATM    3  C   UNL     1      41.553 -15.657   2.994  1.00  0.00     0.249 C 
HETATM    4  C   UNL     1      42.088 -17.080   2.725  1.00  0.00     0.123 C 
HETATM    5  N   UNL     1      42.527 -17.687   3.997  1.00  0.00    -0.280 NA
HETATM    6  C   UNL     1      41.445 -17.813   4.987  1.00  0.00     0.123 C 
HETATM    7  C   UNL     1      40.901 -16.410   5.323  1.00  0.00     0.249 C 
HETATM    8  H   UNL     1      39.649 -16.203   3.664  1.00  0.00     0.280 HD
BRANCH   5   9
HETATM    9  C   UNL     1      43.376 -18.793   3.824  1.00  0.00     0.018 A 
HETATM   10  C   UNL     1      44.409 -19.042   4.759  1.00  0.00    -0.041 A 
HETATM   11  C   UNL     1      44.634 -18.164   5.964  1.00  0.00     0.050 C 
HETATM   12  C   UNL     1      45.277 -20.134   4.577  1.00  0.00     0.010 A 
HETATM   13  C   UNL     1      45.114 -21.002   3.500  1.00  0.00     0.024 A 
HETATM   14  C   UNL     1      44.089 -20.775   2.593  1.00  0.00     0.035 A 
HETATM   15  C   UNL     1      43.232 -19.682   2.747  1.00  0.00     0.048 A 
HETATM   16 CL   UNL     1      43.872 -21.843   1.262  1.00  0.00    -0.084 Cl
ENDBRANCH   5   9
ENDBRANCH   1   2
BRANCH   1  17
HETATM   17  C   UNL     1      40.570 -13.789   5.721  1.00  0.00     0.047 C 
BRANCH  17  18
HETATM   18  C   UNL     1      41.762 -12.878   5.421  1.00  0.00     0.124 C 
BRANCH  18  19
HETATM   19  N   UNL     1      42.644 -12.735   6.553  1.00  0.00    -0.359 N 
HETATM   20  C   UNL     1      43.809 -13.471   6.658  1.00  0.00     0.241 C 
HETATM   21  O   UNL     1      44.245 -14.143   5.724  1.00  0.00    -0.271 OA
HETATM   22  H   UNL     1      42.308 -12.316   7.418  1.00  0.00     0.162 HD
BRANCH  20  23
HETATM   23  C   UNL     1      44.495 -13.404   8.024  1.00  0.00     0.278 C 
BRANCH  23  24
HETATM   24  O   UNL     1      44.567 -12.052   8.472  1.00  0.00    -0.342 OA
BRANCH  24  25
HETATM   25  C   UNL     1      44.164 -11.800   9.755  1.00  0.00     0.069 A 
HETATM   26  C   UNL     1      44.278 -12.674  10.838  1.00  0.00     0.038 A 
HETATM   27  C   UNL     1      43.810 -12.290  12.101  1.00  0.00     0.026 A 
HETATM   28  C   UNL     1      43.234 -11.035  12.281  1.00  0.00     0.034 A 
HETATM   29 CL   UNL     1      42.662 -10.568  13.833  1.00  0.00    -0.084 Cl
HETATM   30  C   UNL     1      43.118 -10.157  11.206  1.00  0.00     0.026 A 
HETATM   31  C   UNL     1      43.581 -10.544   9.946  1.00  0.00     0.038 A 
ENDBRANCH  24  25
ENDBRANCH  23  24
ENDBRANCH  20  23
ENDBRANCH  18  19
ENDBRANCH  17  18
ENDBRANCH   1  17
TORSDOF 8
ENDMDL
MODEL 4
REMARK VINA RESULT:      -8.1      1.099      2.204
REMARK  8 active torsions:
REMARK  status: ('A' for Active; 'I' for Inactive)
REMARK    1  A    between atoms: C_3  and  N_4 
REMARK    2  A    between atoms: N_7  and  C_9 
REMARK    3  A    between atoms: C_9  and  C_10 
REMARK    4  A    between atoms: C_10  and  C_11 
REMARK    5  A    between atoms: C_11  and  N_12 
REMARK       I    between atoms: N_12  and  C_13 
REMARK    6  A    between atoms: C_13  and  C_14 
REMARK    7  A    between atoms: C_14  and  O_15 
REMARK    8  A    between atoms: O_15  and  C_16 
ROOT
HETATM    1  C   UNL     1      40.011 -12.337   5.267  1.00  0.00     0.236 C 
ENDROOT
BRANCH   1   2
HETATM    2  N   UNL     1      40.882 -13.476   4.779  1.00  0.00    -0.069 N 
HETATM    3  C   UNL     1      42.300 -13.449   5.383  1.00  0.00     0.249 C 
HETATM    4  C   UNL     1      43.122 -14.679   4.943  1.00  0.00     0.123 C 
HETATM    5  N   UNL     1      42.385 -15.911   5.290  1.00  0.00    -0.280 NA
HETATM    6  C   UNL     1      41.073 -16.011   4.631  1.00  0.00     0.123 C 
HETATM    7  C   UNL     1      40.195 -14.822   5.071  1.00  0.00     0.249 C 
HETATM    8  H   UNL     1      40.985 -13.403   3.758  1.00  0.00     0.280 HD
BRANCH   5   9
HETATM    9  C   UNL     1      43.192 -17.061   5.298  1.00  0.00     0.018 A 
HETATM   10  C   UNL     1      43.785 -17.498   6.507  1.00  0.00    -0.041 A 
HETATM   11  C   UNL     1      43.573 -16.777   7.814  1.00  0.00     0.050 C 
HETATM   12  C   UNL     1      44.614 -18.635   6.515  1.00  0.00     0.010 A 
HETATM   13  C   UNL     1      44.835 -19.365   5.350  1.00  0.00     0.024 A 
HETATM   14  C   UNL     1      44.237 -18.954   4.168  1.00  0.00     0.035 A 
HETATM   15  C   UNL     1      43.429 -17.814   4.137  1.00  0.00     0.048 A 
HETATM   16 CL   UNL     1      44.496 -19.850   2.722  1.00  0.00    -0.084 Cl
ENDBRANCH   5   9
ENDBRANCH   1   2
BRANCH   1  17
HETATM   17  C   UNL     1      39.727 -12.439   6.758  1.00  0.00     0.047 C 
BRANCH  17  18
HETATM   18  C   UNL     1      39.740 -11.044   7.388  1.00  0.00     0.124 C 
BRANCH  18  19
HETATM   19  N   UNL     1      40.665 -10.947   8.490  1.00  0.00    -0.359 N 
HETATM   20  C   UNL     1      41.873 -10.288   8.362  1.00  0.00     0.241 C 
HETATM   21  O   UNL     1      42.144  -9.603   7.377  1.00  0.00    -0.271 OA
HETATM   22  H   UNL     1      40.591 -11.583   9.282  1.00  0.00     0.162 HD
BRANCH  20  23
HETATM   23  C   UNL     1      42.848 -10.495   9.524  1.00  0.00     0.278 C 
BRANCH  23  24
HETATM   24  O   UNL     1      42.268 -11.350  10.507  1.00  0.00    -0.342 OA
BRANCH  24  25
HETATM   25  C   UNL     1      42.224 -10.880  11.791  1.00  0.00     0.069 A 
HETATM   26  C   UNL     1      41.212 -11.123  12.721  1.00  0.00     0.038 A 
HETATM   27  C   UNL     1      41.289 -10.566  14.003  1.00  0.00     0.026 A 
HETATM   28  C   UNL     1      42.376  -9.770  14.355  1.00  0.00     0.034 A 
HETATM   29 CL   UNL     1      42.467  -9.089  15.931  1.00  0.00    -0.084 Cl
HETATM   30  C   UNL     1      43.390  -9.523  13.433  1.00  0.00     0.026 A 
HETATM   31  C   UNL     1      43.310 -10.076  12.153  1.00  0.00     0.038 A 
ENDBRANCH  24  25
ENDBRANCH  23  24
ENDBRANCH  20  23
ENDBRANCH  18  19
ENDBRANCH  17  18
ENDBRANCH   1  17
TORSDOF 8
ENDMDL
MODEL 5
REMARK VINA RESULT:      -7.8      5.439      6.687
REMARK  8 active torsions:
REMARK  status: ('A' for Active; 'I' for Inactive)
REMARK    1  A    between atoms: C_3  and  N_4 
REMARK    2  A    between atoms: N_7  and  C_9 
REMARK    3  A    between atoms: C_9  and  C_10 
REMARK    4  A    between atoms: C_10  and  C_11 
REMARK    5  A    between atoms: C_11  and  N_12 
REMARK       I    between atoms: N_12  and  C_13 
REMARK    6  A    between atoms: C_13  and  C_14 
REMARK    7  A    between atoms: C_14  and  O_15 
REMARK    8  A    between atoms: O_15  and  C_16 
ROOT
HETATM    1  C   UNL     1      40.394 -15.359  -0.190  1.00  0.00     0.236 C 
ENDROOT
BRANCH   1   2
HETATM    2  N   UNL     1      41.275 -15.745   0.981  1.00  0.00    -0.069 N 
HETATM    3  C   UNL     1      40.575 -16.696   1.971  1.00  0.00     0.249 C 
HETATM    4  C   UNL     1      41.536 -17.146   3.093  1.00  0.00     0.123 C 
HETATM    5  N   UNL     1      42.743 -17.747   2.491  1.00  0.00    -0.280 NA
HETATM    6  C   UNL     1      43.491 -16.817   1.630  1.00  0.00     0.123 C 
HETATM    7  C   UNL     1      42.585 -16.368   0.466  1.00  0.00     0.249 C 
HETATM    8  H   UNL     1      41.527 -14.895   1.501  1.00  0.00     0.280 HD
BRANCH   5   9
HETATM    9  C   UNL     1      43.484 -18.531   3.392  1.00  0.00     0.018 A 
HETATM   10  C   UNL     1      43.865 -19.847   3.035  1.00  0.00    -0.041 A 
HETATM   11  C   UNL     1      43.515 -20.452   1.699  1.00  0.00     0.050 C 
HETATM   12  C   UNL     1      44.586 -20.643   3.943  1.00  0.00     0.010 A 
HETATM   13  C   UNL     1      44.965 -20.142   5.186  1.00  0.00     0.024 A 
HETATM   14  C   UNL     1      44.615 -18.845   5.531  1.00  0.00     0.035 A 
HETATM   15  C   UNL     1      43.879 -18.048   4.650  1.00  0.00     0.048 A 
HETATM   16 CL   UNL     1      45.083 -18.211   7.061  1.00  0.00    -0.084 Cl
ENDBRANCH   5   9
ENDBRANCH   1   2
BRANCH   1  17
HETATM   17  C   UNL     1      41.189 -14.694  -1.303  1.00  0.00     0.047 C 
BRANCH  17  18
HETATM   18  C   UNL     1      40.921 -13.187  -1.308  1.00  0.00     0.124 C 
BRANCH  18  19
HETATM   19  N   UNL     1      40.589 -12.683   0.001  1.00  0.00    -0.359 N 
HETATM   20  C   UNL     1      41.518 -12.013   0.773  1.00  0.00     0.241 C 
HETATM   21  O   UNL     1      42.605 -11.654   0.324  1.00  0.00    -0.271 OA
HETATM   22  H   UNL     1      39.777 -13.042   0.500  1.00  0.00     0.162 HD
BRANCH  20  23
HETATM   23  C   UNL     1      41.100 -11.774   2.226  1.00  0.00     0.278 C 
BRANCH  23  24
HETATM   24  O   UNL     1      40.808 -13.015   2.865  1.00  0.00    -0.342 OA
BRANCH  24  25
HETATM   25  C   UNL     1      41.704 -13.459   3.798  1.00  0.00     0.069 A 
HETATM   26  C   UNL     1      43.092 -13.488   3.656  1.00  0.00     0.038 A 
HETATM   27  C   UNL     1      43.893 -13.982   4.692  1.00  0.00     0.026 A 
HETATM   28  C   UNL     1      43.308 -14.444   5.868  1.00  0.00     0.034 A 
HETATM   29 CL   UNL     1      44.296 -15.049   7.138  1.00  0.00    -0.084 Cl
HETATM   30  C   UNL     1      41.924 -14.418   6.019  1.00  0.00     0.026 A 
HETATM   31  C   UNL     1      41.126 -13.928   4.982  1.00  0.00     0.038 A 
ENDBRANCH  24  25
ENDBRANCH  23  24
ENDBRANCH  20  23
ENDBRANCH  18  19
ENDBRANCH  17  18
ENDBRANCH   1  17
TORSDOF 8
ENDMDL
MODEL 6
REMARK VINA RESULT:      -7.7      6.300      9.561
REMARK  8 active torsions:
REMARK  status: ('A' for Active; 'I' for Inactive)
REMARK    1  A    between atoms: C_3  and  N_4 
REMARK    2  A    between atoms: N_7  and  C_9 
REMARK    3  A    between atoms: C_9  and  C_10 
REMARK    4  A    between atoms: C_10  and  C_11 
REMARK    5  A    between atoms: C_11  and  N_12 
REMARK       I    between atoms: N_12  and  C_13 
REMARK    6  A    between atoms: C_13  and  C_14 
REMARK    7  A    between atoms: C_14  and  O_15 
REMARK    8  A    between atoms: O_15  and  C_16 
ROOT
HETATM    1  C   UNL     1      41.054 -16.925   4.606  1.00  0.00     0.236 C 
ENDROOT
BRANCH   1   2
HETATM    2  N   UNL     1      41.263 -16.153   3.321  1.00  0.00    -0.069 N 
HETATM    3  C   UNL     1      40.812 -16.934   2.071  1.00  0.00     0.249 C 
HETATM    4  C   UNL     1      40.945 -16.076   0.794  1.00  0.00     0.123 C 
HETATM    5  N   UNL     1      40.198 -14.815   0.970  1.00  0.00    -0.280 NA
HETATM    6  C   UNL     1      40.688 -13.998   2.091  1.00  0.00     0.123 C 
HETATM    7  C   UNL     1      40.538 -14.796   3.402  1.00  0.00     0.249 C 
HETATM    8  H   UNL     1      42.266 -15.955   3.211  1.00  0.00     0.280 HD
BRANCH   5   9
HETATM    9  C   UNL     1      39.924 -14.154  -0.239  1.00  0.00     0.018 A 
HETATM   10  C   UNL     1      38.595 -13.791  -0.560  1.00  0.00    -0.041 A 
HETATM   11  C   UNL     1      37.437 -14.074   0.363  1.00  0.00     0.050 C 
HETATM   12  C   UNL     1      38.314 -13.151  -1.781  1.00  0.00     0.010 A 
HETATM   13  C   UNL     1      39.336 -12.835  -2.673  1.00  0.00     0.024 A 
HETATM   14  C   UNL     1      40.644 -13.169  -2.352  1.00  0.00     0.035 A 
HETATM   15  C   UNL     1      40.938 -13.825  -1.154  1.00  0.00     0.048 A 
HETATM   16 CL   UNL     1      41.918 -12.779  -3.441  1.00  0.00    -0.084 Cl
ENDBRANCH   5   9
ENDBRANCH   1   2
BRANCH   1  17
HETATM   17  C   UNL     1      40.809 -16.001   5.790  1.00  0.00     0.047 C 
BRANCH  17  18
HETATM   18  C   UNL     1      42.132 -15.692   6.493  1.00  0.00     0.124 C 
BRANCH  18  19
HETATM   19  N   UNL     1      43.004 -16.838   6.555  1.00  0.00    -0.359 N 
HETATM   20  C   UNL     1      44.376 -16.698   6.652  1.00  0.00     0.241 C 
HETATM   21  O   UNL     1      44.908 -15.612   6.873  1.00  0.00    -0.271 OA
HETATM   22  H   UNL     1      42.675 -17.753   6.249  1.00  0.00     0.162 HD
BRANCH  20  23
HETATM   23  C   UNL     1      45.174 -17.988   6.444  1.00  0.00     0.278 C 
BRANCH  23  24
HETATM   24  O   UNL     1      44.295 -19.110   6.413  1.00  0.00    -0.342 OA
BRANCH  24  25
HETATM   25  C   UNL     1      44.328 -19.893   5.292  1.00  0.00     0.069 A 
HETATM   26  C   UNL     1      44.688 -21.241   5.241  1.00  0.00     0.038 A 
HETATM   27  C   UNL     1      44.689 -21.921   4.017  1.00  0.00     0.026 A 
HETATM   28  C   UNL     1      44.328 -21.256   2.848  1.00  0.00     0.034 A 
HETATM   29 CL   UNL     1      44.331 -22.096   1.348  1.00  0.00    -0.084 Cl
HETATM   30  C   UNL     1      43.967 -19.912   2.890  1.00  0.00     0.026 A 
HETATM   31  C   UNL     1      43.970 -19.234   4.111  1.00  0.00     0.038 A 
ENDBRANCH  24  25
ENDBRANCH  23  24
ENDBRANCH  20  23
ENDBRANCH  18  19
ENDBRANCH  17  18
ENDBRANCH   1  17
TORSDOF 8
ENDMDL
MODEL 7
REMARK VINA RESULT:      -7.6      5.515      9.141
REMARK  8 active torsions:
REMARK  status: ('A' for Active; 'I' for Inactive)
REMARK    1  A    between atoms: C_3  and  N_4 
REMARK    2  A    between atoms: N_7  and  C_9 
REMARK    3  A    between atoms: C_9  and  C_10 
REMARK    4  A    between atoms: C_10  and  C_11 
REMARK    5  A    between atoms: C_11  and  N_12 
REMARK       I    between atoms: N_12  and  C_13 
REMARK    6  A    between atoms: C_13  and  C_14 
REMARK    7  A    between atoms: C_14  and  O_15 
REMARK    8  A    between atoms: O_15  and  C_16 
ROOT
HETATM    1  C   UNL     1      40.975 -13.216   5.821  1.00  0.00     0.236 C 
ENDROOT
BRANCH   1   2
HETATM    2  N   UNL     1      41.480 -14.644   5.795  1.00  0.00    -0.069 N 
HETATM    3  C   UNL     1      40.802 -15.501   4.709  1.00  0.00     0.249 C 
HETATM    4  C   UNL     1      41.414 -16.917   4.646  1.00  0.00     0.123 C 
HETATM    5  N   UNL     1      42.874 -16.811   4.451  1.00  0.00    -0.280 NA
HETATM    6  C   UNL     1      43.558 -16.093   5.538  1.00  0.00     0.123 C 
HETATM    7  C   UNL     1      43.010 -14.654   5.617  1.00  0.00     0.249 C 
HETATM    8  H   UNL     1      41.278 -15.085   6.702  1.00  0.00     0.280 HD
BRANCH   5   9
HETATM    9  C   UNL     1      43.463 -18.001   3.992  1.00  0.00     0.018 A 
HETATM   10  C   UNL     1      43.776 -18.151   2.619  1.00  0.00    -0.041 A 
HETATM   11  C   UNL     1      43.513 -17.062   1.611  1.00  0.00     0.050 C 
HETATM   12  C   UNL     1      44.344 -19.350   2.152  1.00  0.00     0.010 A 
HETATM   13  C   UNL     1      44.638 -20.390   3.030  1.00  0.00     0.024 A 
HETATM   14  C   UNL     1      44.354 -20.239   4.380  1.00  0.00     0.035 A 
HETATM   15  C   UNL     1      43.770 -19.063   4.858  1.00  0.00     0.048 A 
HETATM   16 CL   UNL     1      44.718 -21.513   5.478  1.00  0.00    -0.084 Cl
ENDBRANCH   5   9
ENDBRANCH   1   2
BRANCH   1  17
HETATM   17  C   UNL     1      41.959 -12.255   5.171  1.00  0.00     0.047 C 
BRANCH  17  18
HETATM   18  C   UNL     1      41.244 -11.414   4.111  1.00  0.00     0.124 C 
BRANCH  18  19
HETATM   19  N   UNL     1      41.662 -11.746   2.771  1.00  0.00    -0.359 N 
HETATM   20  C   UNL     1      40.760 -11.796   1.726  1.00  0.00     0.241 C 
HETATM   21  O   UNL     1      39.605 -11.389   1.838  1.00  0.00    -0.271 OA
HETATM   22  H   UNL     1      42.550 -12.219   2.611  1.00  0.00     0.162 HD
BRANCH  20  23
HETATM   23  C   UNL     1      41.302 -12.412   0.434  1.00  0.00     0.278 C 
BRANCH  23  24
HETATM   24  O   UNL     1      40.989 -13.802   0.383  1.00  0.00    -0.342 OA
BRANCH  24  25
HETATM   25  C   UNL     1      40.454 -14.276  -0.784  1.00  0.00     0.069 A 
HETATM   26  C   UNL     1      39.275 -13.834  -1.386  1.00  0.00     0.038 A 
HETATM   27  C   UNL     1      38.835 -14.419  -2.580  1.00  0.00     0.026 A 
HETATM   28  C   UNL     1      39.575 -15.440  -3.171  1.00  0.00     0.034 A 
HETATM   29 CL   UNL     1      39.031 -16.155  -4.638  1.00  0.00    -0.084 Cl
HETATM   30  C   UNL     1      40.753 -15.886  -2.578  1.00  0.00     0.026 A 
HETATM   31  C   UNL     1      41.187 -15.304  -1.384  1.00  0.00     0.038 A 
ENDBRANCH  24  25
ENDBRANCH  23  24
ENDBRANCH  20  23
ENDBRANCH  18  19
ENDBRANCH  17  18
ENDBRANCH   1  17
TORSDOF 8
ENDMDL
MODEL 8
REMARK VINA RESULT:      -7.5      5.969      9.353
REMARK  8 active torsions:
REMARK  status: ('A' for Active; 'I' for Inactive)
REMARK    1  A    between atoms: C_3  and  N_4 
REMARK    2  A    between atoms: N_7  and  C_9 
REMARK    3  A    between atoms: C_9  and  C_10 
REMARK    4  A    between atoms: C_10  and  C_11 
REMARK    5  A    between atoms: C_11  and  N_12 
REMARK       I    between atoms: N_12  and  C_13 
REMARK    6  A    between atoms: C_13  and  C_14 
REMARK    7  A    between atoms: C_14  and  O_15 
REMARK    8  A    between atoms: O_15  and  C_16 
ROOT
HETATM    1  C   UNL     1      41.156 -13.129   5.463  1.00  0.00     0.236 C 
ENDROOT
BRANCH   1   2
HETATM    2  N   UNL     1      41.466 -14.462   4.817  1.00  0.00    -0.069 N 
HETATM    3  C   UNL     1      42.877 -14.516   4.199  1.00  0.00     0.249 C 
HETATM    4  C   UNL     1      43.193 -15.921   3.641  1.00  0.00     0.123 C 
HETATM    5  N   UNL     1      43.006 -16.925   4.708  1.00  0.00    -0.280 NA
HETATM    6  C   UNL     1      41.633 -16.969   5.234  1.00  0.00     0.123 C 
HETATM    7  C   UNL     1      41.280 -15.597   5.842  1.00  0.00     0.249 C 
HETATM    8  H   UNL     1      40.794 -14.628   4.056  1.00  0.00     0.280 HD
BRANCH   5   9
HETATM    9  C   UNL     1      43.633 -18.153   4.435  1.00  0.00     0.018 A 
HETATM   10  C   UNL     1      44.592 -18.672   5.337  1.00  0.00    -0.041 A 
HETATM   11  C   UNL     1      44.969 -17.958   6.610  1.00  0.00     0.050 C 
HETATM   12  C   UNL     1      45.239 -19.888   5.055  1.00  0.00     0.010 A 
HETATM   13  C   UNL     1      44.924 -20.616   3.910  1.00  0.00     0.024 A 
HETATM   14  C   UNL     1      43.967 -20.123   3.034  1.00  0.00     0.035 A 
HETATM   15  C   UNL     1      43.331 -18.904   3.287  1.00  0.00     0.048 A 
HETATM   16 CL   UNL     1      43.563 -21.014   1.619  1.00  0.00    -0.084 Cl
ENDBRANCH   5   9
ENDBRANCH   1   2
BRANCH   1  17
HETATM   17  C   UNL     1      41.848 -11.977   4.749  1.00  0.00     0.047 C 
BRANCH  17  18
HETATM   18  C   UNL     1      40.864 -11.283   3.804  1.00  0.00     0.124 C 
BRANCH  18  19
HETATM   19  N   UNL     1      41.262 -11.387   2.422  1.00  0.00    -0.359 N 
HETATM   20  C   UNL     1      40.990 -12.518   1.676  1.00  0.00     0.241 C 
HETATM   21  O   UNL     1      40.246 -13.408   2.084  1.00  0.00    -0.271 OA
HETATM   22  H   UNL     1      41.983 -10.774   2.046  1.00  0.00     0.162 HD
BRANCH  20  23
HETATM   23  C   UNL     1      41.698 -12.584   0.320  1.00  0.00     0.278 C 
BRANCH  23  24
HETATM   24  O   UNL     1      41.852 -13.942  -0.089  1.00  0.00    -0.342 OA
BRANCH  24  25
HETATM   25  C   UNL     1      41.045 -14.379  -1.104  1.00  0.00     0.069 A 
HETATM   26  C   UNL     1      41.205 -15.561  -1.828  1.00  0.00     0.038 A 
HETATM   27  C   UNL     1      40.308 -15.881  -2.855  1.00  0.00     0.026 A 
HETATM   28  C   UNL     1      39.253 -15.023  -3.153  1.00  0.00     0.034 A 
HETATM   29 CL   UNL     1      38.154 -15.420  -4.414  1.00  0.00    -0.084 Cl
HETATM   30  C   UNL     1      39.087 -13.842  -2.435  1.00  0.00     0.026 A 
HETATM   31  C   UNL     1      39.985 -13.522  -1.414  1.00  0.00     0.038 A 
ENDBRANCH  24  25
ENDBRANCH  23  24
ENDBRANCH  20  23
ENDBRANCH  18  19
ENDBRANCH  17  18
ENDBRANCH   1  17
TORSDOF 8
ENDMDL
MODEL 9
REMARK VINA RESULT:      -7.5      3.134      4.300
REMARK  8 active torsions:
REMARK  status: ('A' for Active; 'I' for Inactive)
REMARK    1  A    between atoms: C_3  and  N_4 
REMARK    2  A    between atoms: N_7  and  C_9 
REMARK    3  A    between atoms: C_9  and  C_10 
REMARK    4  A    between atoms: C_10  and  C_11 
REMARK    5  A    between atoms: C_11  and  N_12 
REMARK       I    between atoms: N_12  and  C_13 
REMARK    6  A    between atoms: C_13  and  C_14 
REMARK    7  A    between atoms: C_14  and  O_15 
REMARK    8  A    between atoms: O_15  and  C_16 
ROOT
HETATM    1  C   UNL     1      43.894 -14.789   6.706  1.00  0.00     0.236 C 
ENDROOT
BRANCH   1   2
HETATM    2  N   UNL     1      43.000 -14.436   5.536  1.00  0.00    -0.069 N 
HETATM    3  C   UNL     1      43.774 -13.826   4.351  1.00  0.00     0.249 C 
HETATM    4  C   UNL     1      42.847 -13.576   3.142  1.00  0.00     0.123 C 
HETATM    5  N   UNL     1      42.163 -14.834   2.781  1.00  0.00    -0.280 NA
HETATM    6  C   UNL     1      41.325 -15.375   3.862  1.00  0.00     0.123 C 
HETATM    7  C   UNL     1      42.213 -15.681   5.085  1.00  0.00     0.249 C 
HETATM    8  H   UNL     1      42.311 -13.737   5.842  1.00  0.00     0.280 HD
BRANCH   5   9
HETATM    9  C   UNL     1      41.617 -14.820   1.486  1.00  0.00     0.018 A 
HETATM   10  C   UNL     1      41.885 -15.887   0.595  1.00  0.00    -0.041 A 
HETATM   11  C   UNL     1      42.736 -17.068   0.987  1.00  0.00     0.050 C 
HETATM   12  C   UNL     1      41.360 -15.865  -0.709  1.00  0.00     0.010 A 
HETATM   13  C   UNL     1      40.545 -14.818  -1.133  1.00  0.00     0.024 A 
HETATM   14  C   UNL     1      40.260 -13.782  -0.256  1.00  0.00     0.035 A 
HETATM   15  C   UNL     1      40.792 -13.776   1.036  1.00  0.00     0.048 A 
HETATM   16 CL   UNL     1      39.249 -12.485  -0.763  1.00  0.00    -0.084 Cl
ENDBRANCH   5   9
ENDBRANCH   1   2
BRANCH   1  17
HETATM   17  C   UNL     1      45.148 -13.928   6.742  1.00  0.00     0.047 C 
BRANCH  17  18
HETATM   18  C   UNL     1      45.214 -13.157   8.062  1.00  0.00     0.124 C 
BRANCH  18  19
HETATM   19  N   UNL     1      43.959 -12.535   8.401  1.00  0.00    -0.359 N 
HETATM   20  C   UNL     1      43.908 -11.350   9.110  1.00  0.00     0.241 C 
HETATM   21  O   UNL     1      44.913 -10.676   9.330  1.00  0.00    -0.271 OA
HETATM   22  H   UNL     1      43.095 -13.074   8.381  1.00  0.00     0.162 HD
BRANCH  20  23
HETATM   23  C   UNL     1      42.518 -10.957   9.615  1.00  0.00     0.278 C 
BRANCH  23  24
HETATM   24  O   UNL     1      42.566  -9.679  10.244  1.00  0.00    -0.342 OA
BRANCH  24  25
HETATM   25  C   UNL     1      42.420  -9.650  11.604  1.00  0.00     0.069 A 
HETATM   26  C   UNL     1      43.453  -9.598  12.541  1.00  0.00     0.038 A 
HETATM   27  C   UNL     1      43.160  -9.586  13.910  1.00  0.00     0.026 A 
HETATM   28  C   UNL     1      41.836  -9.624  14.341  1.00  0.00     0.034 A 
HETATM   29 CL   UNL     1      41.481  -9.609  16.022  1.00  0.00    -0.084 Cl
HETATM   30  C   UNL     1      40.799  -9.676  13.413  1.00  0.00     0.026 A 
HETATM   31  C   UNL     1      41.094  -9.691  12.048  1.00  0.00     0.038 A 
ENDBRANCH  24  25
ENDBRANCH  23  24
ENDBRANCH  20  23
ENDBRANCH  18  19
ENDBRANCH  17  18
ENDBRANCH   1  17
TORSDOF 8
ENDMDL
MODEL 10
REMARK VINA RESULT:      -7.4      6.474      9.673
REMARK  8 active torsions:
REMARK  status: ('A' for Active; 'I' for Inactive)
REMARK    1  A    between atoms: C_3  and  N_4 
REMARK    2  A    between atoms: N_7  and  C_9 
REMARK    3  A    between atoms: C_9  and  C_10 
REMARK    4  A    between atoms: C_10  and  C_11 
REMARK    5  A    between atoms: C_11  and  N_12 
REMARK       I    between atoms: N_12  and  C_13 
REMARK    6  A    between atoms: C_13  and  C_14 
REMARK    7  A    between atoms: C_14  and  O_15 
REMARK    8  A    between atoms: O_15  and  C_16 
ROOT
HETATM    1  C   UNL     1      41.767 -15.884   5.963  1.00  0.00     0.236 C 
ENDROOT
BRANCH   1   2
HETATM    2  N   UNL     1      41.535 -15.962   4.469  1.00  0.00    -0.069 N 
HETATM    3  C   UNL     1      40.364 -15.079   3.997  1.00  0.00     0.249 C 
HETATM    4  C   UNL     1      40.224 -15.105   2.459  1.00  0.00     0.123 C 
HETATM    5  N   UNL     1      41.508 -14.714   1.844  1.00  0.00    -0.280 NA
HETATM    6  C   UNL     1      42.620 -15.613   2.191  1.00  0.00     0.123 C 
HETATM    7  C   UNL     1      42.829 -15.592   3.719  1.00  0.00     0.249 C 
HETATM    8  H   UNL     1      41.307 -16.932   4.218  1.00  0.00     0.280 HD
BRANCH   5   9
HETATM    9  C   UNL     1      41.388 -14.327   0.499  1.00  0.00     0.018 A 
HETATM   10  C   UNL     1      41.561 -12.969   0.137  1.00  0.00    -0.041 A 
HETATM   11  C   UNL     1      41.891 -11.902   1.149  1.00  0.00     0.050 C 
HETATM   12  C   UNL     1      41.418 -12.574  -1.205  1.00  0.00     0.010 A 
HETATM   13  C   UNL     1      41.138 -13.509  -2.199  1.00  0.00     0.024 A 
HETATM   14  C   UNL     1      40.990 -14.844  -1.852  1.00  0.00     0.035 A 
HETATM   15  C   UNL     1      41.107 -15.251  -0.521  1.00  0.00     0.048 A 
HETATM   16 CL   UNL     1      40.651 -16.012  -3.070  1.00  0.00    -0.084 Cl
ENDBRANCH   5   9
ENDBRANCH   1   2
BRANCH   1  17
HETATM   17  C   UNL     1      43.150 -15.343   6.296  1.00  0.00     0.047 C 
BRANCH  17  18
HETATM   18  C   UNL     1      43.904 -16.342   7.177  1.00  0.00     0.124 C 
BRANCH  18  19
HETATM   19  N   UNL     1      43.579 -17.711   6.859  1.00  0.00    -0.359 N 
HETATM   20  C   UNL     1      43.878 -18.743   7.727  1.00  0.00     0.241 C 
HETATM   21  O   UNL     1      44.264 -18.541   8.877  1.00  0.00    -0.271 OA
HETATM   22  H   UNL     1      43.388 -17.984   5.897  1.00  0.00     0.162 HD
BRANCH  20  23
HETATM   23  C   UNL     1      43.713 -20.148   7.142  1.00  0.00     0.278 C 
BRANCH  23  24
HETATM   24  O   UNL     1      44.878 -20.514   6.405  1.00  0.00    -0.342 OA
BRANCH  24  25
HETATM   25  C   UNL     1      44.687 -20.989   5.137  1.00  0.00     0.069 A 
HETATM   26  C   UNL     1      44.734 -22.328   4.745  1.00  0.00     0.038 A 
HETATM   27  C   UNL     1      44.530 -22.675   3.404  1.00  0.00     0.026 A 
HETATM   28  C   UNL     1      44.278 -21.685   2.457  1.00  0.00     0.034 A 
HETATM   29 CL   UNL     1      44.029 -22.115   0.812  1.00  0.00    -0.084 Cl
HETATM   30  C   UNL     1      44.229 -20.347   2.840  1.00  0.00     0.026 A 
HETATM   31  C   UNL     1      44.436 -20.003   4.178  1.00  0.00     0.038 A 
ENDBRANCH  24  25
ENDBRANCH  23  24
ENDBRANCH  20  23
ENDBRANCH  18  19
ENDBRANCH  17  18
ENDBRANCH   1  17
TORSDOF 8
ENDMDL
