MODEL 1
REMARK VINA RESULT:      -7.4      0.000      0.000
REMARK  7 active torsions:
REMARK  status: ('A' for Active; 'I' for Inactive)
REMARK       I    between atoms: N_2  and  C_3 
REMARK    1  A    between atoms: N_2  and  C_17 
REMARK       I    between atoms: C_3  and  N_4 
REMARK    2  A    between atoms: N_4  and  C_5 
REMARK    3  A    between atoms: N_6  and  C_7 
REMARK    4  A    between atoms: C_17  and  C_18 
REMARK    5  A    between atoms: C_18  and  C_19 
REMARK    6  A    between atoms: C_19  and  O_20 
REMARK    7  A    between atoms: C_19  and  C_21 
ROOT
HETATM    1  C   UNL     1      44.743 -14.659   7.065  1.00  0.00     0.154 C 
HETATM    2  N   UNL     1      43.685 -15.206   6.228  1.00  0.00    -0.343 N 
HETATM    3  C   UNL     1      43.347 -16.558   6.200  1.00  0.00     0.301 C 
HETATM    4  N   UNL     1      44.424 -17.387   6.480  1.00  0.00    -0.194 NA
HETATM    5  O   UNL     1      42.231 -16.952   5.870  1.00  0.00    -0.254 OA
HETATM    6  H   UNL     1      45.251 -17.056   6.001  1.00  0.00     0.140 HD
ENDROOT
BRANCH   2   7
HETATM    7  C   UNL     1      42.877 -14.257   5.463  1.00  0.00     0.129 C 
BRANCH   7   8
HETATM    8  C   UNL     1      43.426 -13.966   4.068  1.00  0.00     0.056 C 
BRANCH   8   9
HETATM    9  C   UNL     1      42.300 -13.697   3.058  1.00  0.00     0.152 C 
BRANCH   9  10
HETATM   10  O   UNL     1      42.792 -12.801   2.060  1.00  0.00    -0.391 OA
HETATM   11  H   UNL     1      42.118 -12.756   1.361  1.00  0.00     0.210 HD
ENDBRANCH   9  10
BRANCH   9  12
HETATM   12  C   UNL     1      41.714 -14.886   2.321  1.00  0.00    -0.030 A 
HETATM   13  C   UNL     1      40.628 -15.636   2.798  1.00  0.00     0.010 A 
HETATM   14  C   UNL     1      40.159 -16.748   2.093  1.00  0.00     0.001 A 
HETATM   15  C   UNL     1      40.772 -17.138   0.905  1.00  0.00     0.000 A 
HETATM   16  C   UNL     1      41.858 -16.416   0.421  1.00  0.00     0.001 A 
HETATM   17  C   UNL     1      42.325 -15.301   1.124  1.00  0.00     0.010 A 
ENDBRANCH   9  12
ENDBRANCH   8   9
ENDBRANCH   7   8
ENDBRANCH   2   7
BRANCH   4  18
HETATM   18  C   UNL     1      44.247 -18.764   6.452  1.00  0.00     0.109 A 
HETATM   19  N   UNL     1      44.622 -19.615   5.427  1.00  0.00    -0.254 N 
HETATM   20  N   UNL     1      44.345 -20.909   5.720  1.00  0.00    -0.183 NA
HETATM   21  C   UNL     1      43.728 -20.857   6.898  1.00  0.00     0.142 A 
HETATM   22  C   UNL     1      43.593 -19.546   7.376  1.00  0.00     0.065 A 
BRANCH  19  23
HETATM   23  C   UNL     1      45.061 -19.248   4.076  1.00  0.00     0.111 C 
HETATM   24  C   UNL     1      45.372 -20.443   3.143  1.00  0.00     0.027 C 
HETATM   25  C   UNL     1      44.129 -21.138   2.572  1.00  0.00     0.002 C 
HETATM   26  C   UNL     1      43.134 -20.158   1.963  1.00  0.00     0.000 C 
HETATM   27  C   UNL     1      42.800 -19.017   2.915  1.00  0.00     0.002 C 
HETATM   28  C   UNL     1      44.065 -18.299   3.380  1.00  0.00     0.027 C 
ENDBRANCH  19  23
ENDBRANCH   4  18
TORSDOF 7
ENDMDL
MODEL 2
REMARK VINA RESULT:      -7.3      3.814      7.337
REMARK  7 active torsions:
REMARK  status: ('A' for Active; 'I' for Inactive)
REMARK       I    between atoms: N_2  and  C_3 
REMARK    1  A    between atoms: N_2  and  C_17 
REMARK       I    between atoms: C_3  and  N_4 
REMARK    2  A    between atoms: N_4  and  C_5 
REMARK    3  A    between atoms: N_6  and  C_7 
REMARK    4  A    between atoms: C_17  and  C_18 
REMARK    5  A    between atoms: C_18  and  C_19 
REMARK    6  A    between atoms: C_19  and  O_20 
REMARK    7  A    between atoms: C_19  and  C_21 
ROOT
HETATM    1  C   UNL     1      42.198 -14.709   3.938  1.00  0.00     0.154 C 
HETATM    2  N   UNL     1      41.297 -15.768   3.508  1.00  0.00    -0.343 N 
HETATM    3  C   UNL     1      40.510 -15.689   2.360  1.00  0.00     0.301 C 
HETATM    4  N   UNL     1      40.151 -14.387   2.043  1.00  0.00    -0.194 NA
HETATM    5  O   UNL     1      40.112 -16.686   1.764  1.00  0.00    -0.254 OA
HETATM    6  H   UNL     1      39.887 -13.884   2.880  1.00  0.00     0.140 HD
ENDROOT
BRANCH   2   7
HETATM    7  C   UNL     1      41.312 -17.013   4.274  1.00  0.00     0.129 C 
BRANCH   7   8
HETATM    8  C   UNL     1      42.684 -17.679   4.339  1.00  0.00     0.056 C 
BRANCH   8   9
HETATM    9  C   UNL     1      43.115 -18.229   2.970  1.00  0.00     0.152 C 
BRANCH   9  10
HETATM   10  O   UNL     1      44.139 -17.382   2.444  1.00  0.00    -0.391 OA
HETATM   11  H   UNL     1      44.361 -17.719   1.560  1.00  0.00     0.210 HD
ENDBRANCH   9  10
BRANCH   9  12
HETATM   12  C   UNL     1      43.656 -19.645   2.917  1.00  0.00    -0.030 A 
HETATM   13  C   UNL     1      43.477 -20.504   1.821  1.00  0.00     0.010 A 
HETATM   14  C   UNL     1      43.965 -21.814   1.848  1.00  0.00     0.001 A 
HETATM   15  C   UNL     1      44.629 -22.293   2.973  1.00  0.00     0.000 A 
HETATM   16  C   UNL     1      44.806 -21.463   4.076  1.00  0.00     0.001 A 
HETATM   17  C   UNL     1      44.323 -20.152   4.047  1.00  0.00     0.010 A 
ENDBRANCH   9  12
ENDBRANCH   8   9
ENDBRANCH   7   8
ENDBRANCH   2   7
BRANCH   4  18
HETATM   18  C   UNL     1      39.335 -14.155   0.944  1.00  0.00     0.109 A 
HETATM   19  N   UNL     1      39.689 -14.317  -0.385  1.00  0.00    -0.254 N 
HETATM   20  N   UNL     1      38.656 -14.044  -1.219  1.00  0.00    -0.183 NA
HETATM   21  C   UNL     1      37.678 -13.639  -0.412  1.00  0.00     0.142 A 
HETATM   22  C   UNL     1      38.060 -13.638   0.938  1.00  0.00     0.065 A 
BRANCH  19  23
HETATM   23  C   UNL     1      41.033 -14.533  -0.932  1.00  0.00     0.111 C 
HETATM   24  C   UNL     1      41.071 -15.193  -2.331  1.00  0.00     0.027 C 
HETATM   25  C   UNL     1      40.732 -14.242  -3.486  1.00  0.00     0.002 C 
HETATM   26  C   UNL     1      41.521 -12.939  -3.427  1.00  0.00     0.000 C 
HETATM   27  C   UNL     1      41.429 -12.278  -2.058  1.00  0.00     0.002 C 
HETATM   28  C   UNL     1      41.866 -13.236  -0.953  1.00  0.00     0.027 C 
ENDBRANCH  19  23
ENDBRANCH   4  18
TORSDOF 7
ENDMDL
MODEL 3
REMARK VINA RESULT:      -7.2      3.155      6.770
REMARK  7 active torsions:
REMARK  status: ('A' for Active; 'I' for Inactive)
REMARK       I    between atoms: N_2  and  C_3 
REMARK    1  A    between atoms: N_2  and  C_17 
REMARK       I    between atoms: C_3  and  N_4 
REMARK    2  A    between atoms: N_4  and  C_5 
REMARK    3  A    between atoms: N_6  and  C_7 
REMARK    4  A    between atoms: C_17  and  C_18 
REMARK    5  A    between atoms: C_18  and  C_19 
REMARK    6  A    between atoms: C_19  and  O_20 
REMARK    7  A    between atoms: C_19  and  C_21 
ROOT
HETATM    1  C   UNL     1      40.554 -15.631   5.649  1.00  0.00     0.154 C 
HETATM    2  N   UNL     1      41.832 -15.896   5.005  1.00  0.00    -0.343 N 
HETATM    3  C   UNL     1      42.070 -15.679   3.649  1.00  0.00     0.301 C 
HETATM    4  N   UNL     1      40.930 -15.824   2.872  1.00  0.00    -0.194 NA
HETATM    5  O   UNL     1      43.196 -15.473   3.203  1.00  0.00    -0.254 OA
HETATM    6  H   UNL     1      40.403 -16.632   3.176  1.00  0.00     0.140 HD
ENDROOT
BRANCH   2   7
HETATM    7  C   UNL     1      42.941 -16.313   5.862  1.00  0.00     0.129 C 
BRANCH   7   8
HETATM    8  C   UNL     1      43.168 -17.822   5.885  1.00  0.00     0.056 C 
BRANCH   8   9
HETATM    9  C   UNL     1      44.371 -18.230   5.020  1.00  0.00     0.152 C 
BRANCH   9  10
HETATM   10  O   UNL     1      45.406 -18.708   5.881  1.00  0.00    -0.391 OA
HETATM   11  H   UNL     1      45.867 -17.928   6.232  1.00  0.00     0.210 HD
ENDBRANCH   9  10
BRANCH   9  12
HETATM   12  C   UNL     1      44.154 -19.301   3.968  1.00  0.00    -0.030 A 
HETATM   13  C   UNL     1      44.776 -20.558   4.001  1.00  0.00     0.010 A 
HETATM   14  C   UNL     1      44.567 -21.490   2.980  1.00  0.00     0.001 A 
HETATM   15  C   UNL     1      43.742 -21.178   1.903  1.00  0.00     0.000 A 
HETATM   16  C   UNL     1      43.126 -19.933   1.843  1.00  0.00     0.001 A 
HETATM   17  C   UNL     1      43.330 -19.003   2.867  1.00  0.00     0.010 A 
ENDBRANCH   9  12
ENDBRANCH   8   9
ENDBRANCH   7   8
ENDBRANCH   2   7
BRANCH   4  18
HETATM   18  C   UNL     1      41.021 -15.672   1.495  1.00  0.00     0.109 A 
HETATM   19  N   UNL     1      40.726 -14.525   0.779  1.00  0.00    -0.254 N 
HETATM   20  N   UNL     1      40.953 -14.687  -0.548  1.00  0.00    -0.183 NA
HETATM   21  C   UNL     1      41.319 -15.961  -0.668  1.00  0.00     0.142 A 
HETATM   22  C   UNL     1      41.329 -16.635   0.562  1.00  0.00     0.065 A 
BRANCH  19  23
HETATM   23  C   UNL     1      40.044 -13.319   1.263  1.00  0.00     0.111 C 
HETATM   24  C   UNL     1      39.959 -12.161   0.240  1.00  0.00     0.027 C 
HETATM   25  C   UNL     1      38.891 -12.355  -0.844  1.00  0.00     0.002 C 
HETATM   26  C   UNL     1      37.531 -12.735  -0.270  1.00  0.00     0.000 C 
HETATM   27  C   UNL     1      37.628 -13.910   0.695  1.00  0.00     0.002 C 
HETATM   28  C   UNL     1      38.635 -13.629   1.807  1.00  0.00     0.027 C 
ENDBRANCH  19  23
ENDBRANCH   4  18
TORSDOF 7
ENDMDL
MODEL 4
REMARK VINA RESULT:      -7.1      4.483      8.355
REMARK  7 active torsions:
REMARK  status: ('A' for Active; 'I' for Inactive)
REMARK       I    between atoms: N_2  and  C_3 
REMARK    1  A    between atoms: N_2  and  C_17 
REMARK       I    between atoms: C_3  and  N_4 
REMARK    2  A    between atoms: N_4  and  C_5 
REMARK    3  A    between atoms: N_6  and  C_7 
REMARK    4  A    between atoms: C_17  and  C_18 
REMARK    5  A    between atoms: C_18  and  C_19 
REMARK    6  A    between atoms: C_19  and  O_20 
REMARK    7  A    between atoms: C_19  and  C_21 
ROOT
HETATM    1  C   UNL     1      40.991 -17.456   1.043  1.00  0.00     0.154 C 
HETATM    2  N   UNL     1      41.492 -16.126   1.355  1.00  0.00    -0.343 N 
HETATM    3  C   UNL     1      40.908 -14.953   0.882  1.00  0.00     0.301 C 
HETATM    4  N   UNL     1      40.283 -15.120  -0.346  1.00  0.00    -0.194 NA
HETATM    5  O   UNL     1      41.026 -13.877   1.463  1.00  0.00    -0.254 OA
HETATM    6  H   UNL     1      40.859 -15.687  -0.954  1.00  0.00     0.140 HD
ENDROOT
BRANCH   2   7
HETATM    7  C   UNL     1      42.604 -16.033   2.301  1.00  0.00     0.129 C 
BRANCH   7   8
HETATM    8  C   UNL     1      43.691 -17.082   2.078  1.00  0.00     0.056 C 
BRANCH   8   9
HETATM    9  C   UNL     1      43.889 -17.969   3.317  1.00  0.00     0.152 C 
BRANCH   9  10
HETATM   10  O   UNL     1      42.748 -17.820   4.166  1.00  0.00    -0.391 OA
HETATM   11  H   UNL     1      42.366 -16.947   3.979  1.00  0.00     0.210 HD
ENDBRANCH   9  10
BRANCH   9  12
HETATM   12  C   UNL     1      44.073 -19.458   3.098  1.00  0.00    -0.030 A 
HETATM   13  C   UNL     1      43.647 -20.131   1.943  1.00  0.00     0.010 A 
HETATM   14  C   UNL     1      43.809 -21.514   1.816  1.00  0.00     0.001 A 
HETATM   15  C   UNL     1      44.389 -22.250   2.845  1.00  0.00     0.000 A 
HETATM   16  C   UNL     1      44.807 -21.605   4.004  1.00  0.00     0.001 A 
HETATM   17  C   UNL     1      44.650 -20.222   4.129  1.00  0.00     0.010 A 
ENDBRANCH   9  12
ENDBRANCH   8   9
ENDBRANCH   7   8
ENDBRANCH   2   7
BRANCH   4  18
HETATM   18  C   UNL     1      39.687 -14.027  -0.960  1.00  0.00     0.109 A 
HETATM   19  N   UNL     1      40.255 -13.230  -1.939  1.00  0.00    -0.254 N 
HETATM   20  N   UNL     1      39.402 -12.266  -2.362  1.00  0.00    -0.183 NA
HETATM   21  C   UNL     1      38.327 -12.414  -1.592  1.00  0.00     0.142 A 
HETATM   22  C   UNL     1      38.468 -13.460  -0.667  1.00  0.00     0.065 A 
BRANCH  19  23
HETATM   23  C   UNL     1      41.657 -13.208  -2.371  1.00  0.00     0.111 C 
HETATM   24  C   UNL     1      41.907 -12.545  -3.747  1.00  0.00     0.027 C 
HETATM   25  C   UNL     1      41.867 -11.011  -3.725  1.00  0.00     0.002 C 
HETATM   26  C   UNL     1      42.730 -10.416  -2.619  1.00  0.00     0.000 C 
HETATM   27  C   UNL     1      42.434 -11.044  -1.263  1.00  0.00     0.002 C 
HETATM   28  C   UNL     1      42.578 -12.563  -1.316  1.00  0.00     0.027 C 
ENDBRANCH  19  23
ENDBRANCH   4  18
TORSDOF 7
ENDMDL
MODEL 5
REMARK VINA RESULT:      -7.0      4.486      8.102
REMARK  7 active torsions:
REMARK  status: ('A' for Active; 'I' for Inactive)
REMARK       I    between atoms: N_2  and  C_3 
REMARK    1  A    between atoms: N_2  and  C_17 
REMARK       I    between atoms: C_3  and  N_4 
REMARK    2  A    between atoms: N_4  and  C_5 
REMARK    3  A    between atoms: N_6  and  C_7 
REMARK    4  A    between atoms: C_17  and  C_18 
REMARK    5  A    between atoms: C_18  and  C_19 
REMARK    6  A    between atoms: C_19  and  O_20 
REMARK    7  A    between atoms: C_19  and  C_21 
ROOT
HETATM    1  C   UNL     1      41.456 -14.255   3.030  1.00  0.00     0.154 C 
HETATM    2  N   UNL     1      41.111 -15.422   2.232  1.00  0.00    -0.343 N 
HETATM    3  C   UNL     1      40.827 -15.366   0.869  1.00  0.00     0.301 C 
HETATM    4  N   UNL     1      40.275 -14.152   0.483  1.00  0.00    -0.194 NA
HETATM    5  O   UNL     1      40.972 -16.333   0.125  1.00  0.00    -0.254 OA
HETATM    6  H   UNL     1      39.588 -13.851   1.162  1.00  0.00     0.140 HD
ENDROOT
BRANCH   2   7
HETATM    7  C   UNL     1      41.173 -16.726   2.891  1.00  0.00     0.129 C 
BRANCH   7   8
HETATM    8  C   UNL     1      42.591 -17.176   3.233  1.00  0.00     0.056 C 
BRANCH   8   9
HETATM    9  C   UNL     1      43.166 -18.110   2.157  1.00  0.00     0.152 C 
BRANCH   9  10
HETATM   10  O   UNL     1      44.272 -17.455   1.532  1.00  0.00    -0.391 OA
HETATM   11  H   UNL     1      44.041 -16.514   1.459  1.00  0.00     0.210 HD
ENDBRANCH   9  10
BRANCH   9  12
HETATM   12  C   UNL     1      43.665 -19.473   2.599  1.00  0.00    -0.030 A 
HETATM   13  C   UNL     1      44.324 -19.700   3.817  1.00  0.00     0.010 A 
HETATM   14  C   UNL     1      44.797 -20.973   4.151  1.00  0.00     0.001 A 
HETATM   15  C   UNL     1      44.631 -22.038   3.270  1.00  0.00     0.000 A 
HETATM   16  C   UNL     1      43.992 -21.832   2.051  1.00  0.00     0.001 A 
HETATM   17  C   UNL     1      43.514 -20.561   1.719  1.00  0.00     0.010 A 
ENDBRANCH   9  12
ENDBRANCH   8   9
ENDBRANCH   7   8
ENDBRANCH   2   7
BRANCH   4  18
HETATM   18  C   UNL     1      39.907 -13.963  -0.841  1.00  0.00     0.109 A 
HETATM   19  N   UNL     1      40.752 -13.619  -1.883  1.00  0.00    -0.254 N 
HETATM   20  N   UNL     1      40.092 -13.546  -3.064  1.00  0.00    -0.183 NA
HETATM   21  C   UNL     1      38.819 -13.771  -2.747  1.00  0.00     0.142 A 
HETATM   22  C   UNL     1      38.638 -13.985  -1.372  1.00  0.00     0.065 A 
BRANCH  19  23
HETATM   23  C   UNL     1      42.142 -13.158  -1.791  1.00  0.00     0.111 C 
HETATM   24  C   UNL     1      42.823 -12.861  -3.148  1.00  0.00     0.027 C 
HETATM   25  C   UNL     1      42.401 -11.531  -3.788  1.00  0.00     0.002 C 
HETATM   26  C   UNL     1      42.485 -10.359  -2.818  1.00  0.00     0.000 C 
HETATM   27  C   UNL     1      41.765 -10.650  -1.508  1.00  0.00     0.002 C 
HETATM   28  C   UNL     1      42.286 -11.933  -0.866  1.00  0.00     0.027 C 
ENDBRANCH  19  23
ENDBRANCH   4  18
TORSDOF 7
ENDMDL
MODEL 6
REMARK VINA RESULT:      -7.0      3.783      5.567
REMARK  7 active torsions:
REMARK  status: ('A' for Active; 'I' for Inactive)
REMARK       I    between atoms: N_2  and  C_3 
REMARK    1  A    between atoms: N_2  and  C_17 
REMARK       I    between atoms: C_3  and  N_4 
REMARK    2  A    between atoms: N_4  and  C_5 
REMARK    3  A    between atoms: N_6  and  C_7 
REMARK    4  A    between atoms: C_17  and  C_18 
REMARK    5  A    between atoms: C_18  and  C_19 
REMARK    6  A    between atoms: C_19  and  O_20 
REMARK    7  A    between atoms: C_19  and  C_21 
ROOT
HETATM    1  C   UNL     1      42.124 -13.273   1.269  1.00  0.00     0.154 C 
HETATM    2  N   UNL     1      41.753 -14.540   0.659  1.00  0.00    -0.343 N 
HETATM    3  C   UNL     1      41.870 -15.769   1.306  1.00  0.00     0.301 C 
HETATM    4  N   UNL     1      42.903 -15.793   2.232  1.00  0.00    -0.194 NA
HETATM    5  O   UNL     1      41.182 -16.741   1.005  1.00  0.00    -0.254 OA
HETATM    6  H   UNL     1      43.721 -15.334   1.853  1.00  0.00     0.140 HD
ENDROOT
BRANCH   2   7
HETATM    7  C   UNL     1      41.128 -14.491  -0.661  1.00  0.00     0.129 C 
BRANCH   7   8
HETATM    8  C   UNL     1      41.828 -13.550  -1.639  1.00  0.00     0.056 C 
BRANCH   8   9
HETATM    9  C   UNL     1      41.438 -13.849  -3.095  1.00  0.00     0.152 C 
BRANCH   9  10
HETATM   10  O   UNL     1      42.242 -14.934  -3.564  1.00  0.00    -0.391 OA
HETATM   11  H   UNL     1      42.884 -15.137  -2.863  1.00  0.00     0.210 HD
ENDBRANCH   9  10
BRANCH   9  12
HETATM   12  C   UNL     1      39.997 -14.226  -3.377  1.00  0.00    -0.030 A 
HETATM   13  C   UNL     1      39.598 -15.502  -3.805  1.00  0.00     0.010 A 
HETATM   14  C   UNL     1      38.256 -15.777  -4.088  1.00  0.00     0.001 A 
HETATM   15  C   UNL     1      37.292 -14.781  -3.960  1.00  0.00     0.000 A 
HETATM   16  C   UNL     1      37.668 -13.506  -3.549  1.00  0.00     0.001 A 
HETATM   17  C   UNL     1      39.008 -13.232  -3.262  1.00  0.00     0.010 A 
ENDBRANCH   9  12
ENDBRANCH   8   9
ENDBRANCH   7   8
ENDBRANCH   2   7
BRANCH   4  18
HETATM   18  C   UNL     1      43.164 -16.965   2.930  1.00  0.00     0.109 A 
HETATM   19  N   UNL     1      42.746 -17.260   4.216  1.00  0.00    -0.254 N 
HETATM   20  N   UNL     1      43.133 -18.501   4.600  1.00  0.00    -0.183 NA
HETATM   21  C   UNL     1      43.857 -18.952   3.578  1.00  0.00     0.142 A 
HETATM   22  C   UNL     1      43.954 -18.020   2.535  1.00  0.00     0.065 A 
BRANCH  19  23
HETATM   23  C   UNL     1      42.154 -16.342   5.196  1.00  0.00     0.111 C 
HETATM   24  C   UNL     1      41.574 -17.021   6.460  1.00  0.00     0.027 C 
HETATM   25  C   UNL     1      42.630 -17.463   7.481  1.00  0.00     0.002 C 
HETATM   26  C   UNL     1      43.628 -16.359   7.811  1.00  0.00     0.000 C 
HETATM   27  C   UNL     1      44.228 -15.738   6.556  1.00  0.00     0.002 C 
HETATM   28  C   UNL     1      43.137 -15.230   5.616  1.00  0.00     0.027 C 
ENDBRANCH  19  23
ENDBRANCH   4  18
TORSDOF 7
ENDMDL
MODEL 7
REMARK VINA RESULT:      -6.9      1.669      2.170
REMARK  7 active torsions:
REMARK  status: ('A' for Active; 'I' for Inactive)
REMARK       I    between atoms: N_2  and  C_3 
REMARK    1  A    between atoms: N_2  and  C_17 
REMARK       I    between atoms: C_3  and  N_4 
REMARK    2  A    between atoms: N_4  and  C_5 
REMARK    3  A    between atoms: N_6  and  C_7 
REMARK    4  A    between atoms: C_17  and  C_18 
REMARK    5  A    between atoms: C_18  and  C_19 
REMARK    6  A    between atoms: C_19  and  O_20 
REMARK    7  A    between atoms: C_19  and  C_21 
ROOT
HETATM    1  C   UNL     1      44.463 -15.014   6.999  1.00  0.00     0.154 C 
HETATM    2  N   UNL     1      43.298 -15.625   6.375  1.00  0.00    -0.343 N 
HETATM    3  C   UNL     1      43.068 -17.000   6.358  1.00  0.00     0.301 C 
HETATM    4  N   UNL     1      44.239 -17.743   6.371  1.00  0.00    -0.194 NA
HETATM    5  O   UNL     1      41.941 -17.478   6.248  1.00  0.00    -0.254 OA
HETATM    6  H   UNL     1      44.920 -17.330   5.747  1.00  0.00     0.140 HD
ENDROOT
BRANCH   2   7
HETATM    7  C   UNL     1      42.278 -14.728   5.837  1.00  0.00     0.129 C 
BRANCH   7   8
HETATM    8  C   UNL     1      42.128 -14.806   4.319  1.00  0.00     0.056 C 
BRANCH   8   9
HETATM    9  C   UNL     1      40.752 -15.353   3.910  1.00  0.00     0.152 C 
BRANCH   9  10
HETATM   10  O   UNL     1      40.003 -15.626   5.097  1.00  0.00    -0.391 OA
HETATM   11  H   UNL     1      40.564 -15.378   5.851  1.00  0.00     0.210 HD
ENDBRANCH   9  10
BRANCH   9  12
HETATM   12  C   UNL     1      39.874 -14.477   3.037  1.00  0.00    -0.030 A 
HETATM   13  C   UNL     1      39.678 -13.106   3.263  1.00  0.00     0.010 A 
HETATM   14  C   UNL     1      38.825 -12.359   2.446  1.00  0.00     0.001 A 
HETATM   15  C   UNL     1      38.143 -12.970   1.397  1.00  0.00     0.000 A 
HETATM   16  C   UNL     1      38.312 -14.331   1.164  1.00  0.00     0.001 A 
HETATM   17  C   UNL     1      39.169 -15.077   1.978  1.00  0.00     0.010 A 
ENDBRANCH   9  12
ENDBRANCH   8   9
ENDBRANCH   7   8
ENDBRANCH   2   7
BRANCH   4  18
HETATM   18  C   UNL     1      44.167 -19.128   6.320  1.00  0.00     0.109 A 
HETATM   19  N   UNL     1      44.616 -19.931   5.286  1.00  0.00    -0.254 N 
HETATM   20  N   UNL     1      44.434 -21.247   5.554  1.00  0.00    -0.183 NA
HETATM   21  C   UNL     1      43.803 -21.262   6.726  1.00  0.00     0.142 A 
HETATM   22  C   UNL     1      43.564 -19.972   7.224  1.00  0.00     0.065 A 
BRANCH  19  23
HETATM   23  C   UNL     1      45.040 -19.510   3.946  1.00  0.00     0.111 C 
HETATM   24  C   UNL     1      45.123 -20.645   2.899  1.00  0.00     0.027 C 
HETATM   25  C   UNL     1      43.763 -21.097   2.349  1.00  0.00     0.002 C 
HETATM   26  C   UNL     1      42.899 -19.930   1.885  1.00  0.00     0.000 C 
HETATM   27  C   UNL     1      42.787 -18.845   2.949  1.00  0.00     0.002 C 
HETATM   28  C   UNL     1      44.167 -18.365   3.394  1.00  0.00     0.027 C 
ENDBRANCH  19  23
ENDBRANCH   4  18
TORSDOF 7
ENDMDL
MODEL 8
REMARK VINA RESULT:      -6.9      3.011      4.535
REMARK  7 active torsions:
REMARK  status: ('A' for Active; 'I' for Inactive)
REMARK       I    between atoms: N_2  and  C_3 
REMARK    1  A    between atoms: N_2  and  C_17 
REMARK       I    between atoms: C_3  and  N_4 
REMARK    2  A    between atoms: N_4  and  C_5 
REMARK    3  A    between atoms: N_6  and  C_7 
REMARK    4  A    between atoms: C_17  and  C_18 
REMARK    5  A    between atoms: C_18  and  C_19 
REMARK    6  A    between atoms: C_19  and  O_20 
REMARK    7  A    between atoms: C_19  and  C_21 
ROOT
HETATM    1  C   UNL     1      40.000 -15.523   2.244  1.00  0.00     0.154 C 
HETATM    2  N   UNL     1      41.328 -14.942   2.109  1.00  0.00    -0.343 N 
HETATM    3  C   UNL     1      42.376 -15.207   2.989  1.00  0.00     0.301 C 
HETATM    4  N   UNL     1      41.940 -15.495   4.274  1.00  0.00    -0.194 NA
HETATM    5  O   UNL     1      43.555 -15.100   2.660  1.00  0.00    -0.254 OA
HETATM    6  H   UNL     1      41.197 -14.862   4.540  1.00  0.00     0.140 HD
ENDROOT
BRANCH   2   7
HETATM    7  C   UNL     1      41.585 -14.125   0.925  1.00  0.00     0.129 C 
BRANCH   7   8
HETATM    8  C   UNL     1      41.720 -14.933  -0.363  1.00  0.00     0.056 C 
BRANCH   8   9
HETATM    9  C   UNL     1      41.268 -14.127  -1.591  1.00  0.00     0.152 C 
BRANCH   9  10
HETATM   10  O   UNL     1      42.370 -14.023  -2.495  1.00  0.00    -0.391 OA
HETATM   11  H   UNL     1      42.106 -13.404  -3.196  1.00  0.00     0.210 HD
ENDBRANCH   9  10
BRANCH   9  12
HETATM   12  C   UNL     1      40.098 -14.661  -2.394  1.00  0.00    -0.030 A 
HETATM   13  C   UNL     1      40.204 -15.721  -3.308  1.00  0.00     0.010 A 
HETATM   14  C   UNL     1      39.096 -16.143  -4.050  1.00  0.00     0.001 A 
HETATM   15  C   UNL     1      37.867 -15.506  -3.901  1.00  0.00     0.000 A 
HETATM   16  C   UNL     1      37.743 -14.445  -3.010  1.00  0.00     0.001 A 
HETATM   17  C   UNL     1      38.849 -14.026  -2.265  1.00  0.00     0.010 A 
ENDBRANCH   9  12
ENDBRANCH   8   9
ENDBRANCH   7   8
ENDBRANCH   2   7
BRANCH   4  18
HETATM   18  C   UNL     1      42.875 -15.745   5.269  1.00  0.00     0.109 A 
HETATM   19  N   UNL     1      43.336 -16.990   5.663  1.00  0.00    -0.254 N 
HETATM   20  N   UNL     1      44.275 -16.895   6.636  1.00  0.00    -0.183 NA
HETATM   21  C   UNL     1      44.345 -15.593   6.903  1.00  0.00     0.142 A 
HETATM   22  C   UNL     1      43.460 -14.836   6.120  1.00  0.00     0.065 A 
BRANCH  19  23
HETATM   23  C   UNL     1      42.789 -18.302   5.299  1.00  0.00     0.111 C 
HETATM   24  C   UNL     1      42.576 -18.523   3.783  1.00  0.00     0.027 C 
HETATM   25  C   UNL     1      43.863 -18.820   3.001  1.00  0.00     0.002 C 
HETATM   26  C   UNL     1      44.702 -19.917   3.644  1.00  0.00     0.000 C 
HETATM   27  C   UNL     1      44.945 -19.656   5.125  1.00  0.00     0.002 C 
HETATM   28  C   UNL     1      43.629 -19.460   5.874  1.00  0.00     0.027 C 
ENDBRANCH  19  23
ENDBRANCH   4  18
TORSDOF 7
ENDMDL
MODEL 9
REMARK VINA RESULT:      -6.8      2.169      4.403
REMARK  7 active torsions:
REMARK  status: ('A' for Active; 'I' for Inactive)
REMARK       I    between atoms: N_2  and  C_3 
REMARK    1  A    between atoms: N_2  and  C_17 
REMARK       I    between atoms: C_3  and  N_4 
REMARK    2  A    between atoms: N_4  and  C_5 
REMARK    3  A    between atoms: N_6  and  C_7 
REMARK    4  A    between atoms: C_17  and  C_18 
REMARK    5  A    between atoms: C_18  and  C_19 
REMARK    6  A    between atoms: C_19  and  O_20 
REMARK    7  A    between atoms: C_19  and  C_21 
ROOT
HETATM    1  C   UNL     1      39.903 -14.174   3.214  1.00  0.00     0.154 C 
HETATM    2  N   UNL     1      41.259 -13.759   2.887  1.00  0.00    -0.343 N 
HETATM    3  C   UNL     1      42.356 -13.992   3.715  1.00  0.00     0.301 C 
HETATM    4  N   UNL     1      42.017 -14.037   5.059  1.00  0.00    -0.194 NA
HETATM    5  O   UNL     1      43.505 -14.056   3.284  1.00  0.00    -0.254 OA
HETATM    6  H   UNL     1      41.359 -13.299   5.277  1.00  0.00     0.140 HD
ENDROOT
BRANCH   2   7
HETATM    7  C   UNL     1      41.478 -13.160   1.572  1.00  0.00     0.129 C 
BRANCH   7   8
HETATM    8  C   UNL     1      41.895 -14.164   0.500  1.00  0.00     0.056 C 
BRANCH   8   9
HETATM    9  C   UNL     1      41.157 -15.503   0.657  1.00  0.00     0.152 C 
BRANCH   9  10
HETATM   10  O   UNL     1      40.525 -15.820  -0.585  1.00  0.00    -0.391 OA
HETATM   11  H   UNL     1      39.890 -16.533  -0.408  1.00  0.00     0.210 HD
ENDBRANCH   9  10
BRANCH   9  12
HETATM   12  C   UNL     1      41.976 -16.719   1.048  1.00  0.00    -0.030 A 
HETATM   13  C   UNL     1      41.411 -17.933   1.465  1.00  0.00     0.010 A 
HETATM   14  C   UNL     1      42.220 -19.006   1.851  1.00  0.00     0.001 A 
HETATM   15  C   UNL     1      43.606 -18.881   1.839  1.00  0.00     0.000 A 
HETATM   16  C   UNL     1      44.187 -17.682   1.441  1.00  0.00     0.001 A 
HETATM   17  C   UNL     1      43.379 -16.610   1.050  1.00  0.00     0.010 A 
ENDBRANCH   9  12
ENDBRANCH   8   9
ENDBRANCH   7   8
ENDBRANCH   2   7
BRANCH   4  18
HETATM   18  C   UNL     1      43.013 -14.227   6.006  1.00  0.00     0.109 A 
HETATM   19  N   UNL     1      43.368 -15.432   6.588  1.00  0.00    -0.254 N 
HETATM   20  N   UNL     1      44.405 -15.290   7.450  1.00  0.00    -0.183 NA
HETATM   21  C   UNL     1      44.648 -13.982   7.461  1.00  0.00     0.142 A 
HETATM   22  C   UNL     1      43.781 -13.266   6.624  1.00  0.00     0.065 A 
BRANCH  19  23
HETATM   23  C   UNL     1      42.642 -16.706   6.521  1.00  0.00     0.111 C 
HETATM   24  C   UNL     1      42.854 -17.510   5.216  1.00  0.00     0.027 C 
HETATM   25  C   UNL     1      44.197 -18.248   5.141  1.00  0.00     0.002 C 
HETATM   26  C   UNL     1      44.489 -19.067   6.392  1.00  0.00     0.000 C 
HETATM   27  C   UNL     1      44.326 -18.245   7.664  1.00  0.00     0.002 C 
HETATM   28  C   UNL     1      42.940 -17.608   7.734  1.00  0.00     0.027 C 
ENDBRANCH  19  23
ENDBRANCH   4  18
TORSDOF 7
ENDMDL
MODEL 10
REMARK VINA RESULT:      -6.7      2.797      4.561
REMARK  7 active torsions:
REMARK  status: ('A' for Active; 'I' for Inactive)
REMARK       I    between atoms: N_2  and  C_3 
REMARK    1  A    between atoms: N_2  and  C_17 
REMARK       I    between atoms: C_3  and  N_4 
REMARK    2  A    between atoms: N_4  and  C_5 
REMARK    3  A    between atoms: N_6  and  C_7 
REMARK    4  A    between atoms: C_17  and  C_18 
REMARK    5  A    between atoms: C_18  and  C_19 
REMARK    6  A    between atoms: C_19  and  O_20 
REMARK    7  A    between atoms: C_19  and  C_21 
ROOT
HETATM    1  C   UNL     1      39.339 -12.941   2.350  1.00  0.00     0.154 C 
HETATM    2  N   UNL     1      40.724 -12.492   2.349  1.00  0.00    -0.343 N 
HETATM    3  C   UNL     1      41.764 -13.202   2.945  1.00  0.00     0.301 C 
HETATM    4  N   UNL     1      41.346 -13.958   4.032  1.00  0.00    -0.194 NA
HETATM    5  O   UNL     1      42.933 -13.084   2.587  1.00  0.00    -0.254 OA
HETATM    6  H   UNL     1      40.699 -13.424   4.598  1.00  0.00     0.140 HD
ENDROOT
BRANCH   2   7
HETATM    7  C   UNL     1      41.035 -11.283   1.588  1.00  0.00     0.129 C 
BRANCH   7   8
HETATM    8  C   UNL     1      40.483 -11.292   0.165  1.00  0.00     0.056 C 
BRANCH   8   9
HETATM    9  C   UNL     1      41.525 -11.793  -0.847  1.00  0.00     0.152 C 
BRANCH   9  10
HETATM   10  O   UNL     1      42.797 -11.848  -0.197  1.00  0.00    -0.391 OA
HETATM   11  H   UNL     1      42.627 -11.868   0.759  1.00  0.00     0.210 HD
ENDBRANCH   9  10
BRANCH   9  12
HETATM   12  C   UNL     1      41.302 -13.156  -1.475  1.00  0.00    -0.030 A 
HETATM   13  C   UNL     1      41.292 -14.354  -0.744  1.00  0.00     0.010 A 
HETATM   14  C   UNL     1      41.120 -15.585  -1.386  1.00  0.00     0.001 A 
HETATM   15  C   UNL     1      40.968 -15.641  -2.768  1.00  0.00     0.000 A 
HETATM   16  C   UNL     1      40.988 -14.466  -3.513  1.00  0.00     0.001 A 
HETATM   17  C   UNL     1      41.154 -13.236  -2.872  1.00  0.00     0.010 A 
ENDBRANCH   9  12
ENDBRANCH   8   9
ENDBRANCH   7   8
ENDBRANCH   2   7
BRANCH   4  18
HETATM   18  C   UNL     1      42.280 -14.692   4.749  1.00  0.00     0.109 A 
HETATM   19  N   UNL     1      42.666 -15.996   4.492  1.00  0.00    -0.254 N 
HETATM   20  N   UNL     1      43.625 -16.417   5.352  1.00  0.00    -0.183 NA
HETATM   21  C   UNL     1      43.786 -15.398   6.193  1.00  0.00     0.142 A 
HETATM   22  C   UNL     1      42.939 -14.320   5.898  1.00  0.00     0.065 A 
BRANCH  19  23
HETATM   23  C   UNL     1      42.027 -16.955   3.582  1.00  0.00     0.111 C 
HETATM   24  C   UNL     1      42.189 -16.634   2.077  1.00  0.00     0.027 C 
HETATM   25  C   UNL     1      43.570 -16.979   1.504  1.00  0.00     0.002 C 
HETATM   26  C   UNL     1      44.018 -18.392   1.857  1.00  0.00     0.000 C 
HETATM   27  C   UNL     1      43.901 -18.672   3.350  1.00  0.00     0.002 C 
HETATM   28  C   UNL     1      42.484 -18.402   3.851  1.00  0.00     0.027 C 
ENDBRANCH  19  23
ENDBRANCH   4  18
TORSDOF 7
ENDMDL
