MODEL 1
REMARK VINA RESULT:      -9.1      0.000      0.000
REMARK  8 active torsions:
REMARK  status: ('A' for Active; 'I' for Inactive)
REMARK    1  A    between atoms: C_2  and  C_3 
REMARK    2  A    between atoms: C_3  and  O_4 
REMARK    3  A    between atoms: O_4  and  C_5 
REMARK    4  A    between atoms: C_7  and  C_8 
REMARK    5  A    between atoms: N_9  and  C_10 
REMARK    6  A    between atoms: C_10  and  C_11 
REMARK    7  A    between atoms: C_24  and  C_25 
REMARK    8  A    between atoms: C_26  and  O_27 
ROOT
HETATM    1  C   UNL     1      41.782 -17.319   3.685  1.00  0.00     0.159 A 
HETATM    2  N   UNL     1      41.247 -16.188   2.874  1.00  0.00    -0.329 N 
HETATM    3  C   UNL     1      41.994 -15.902   1.727  1.00  0.00     0.273 A 
HETATM    4  O   UNL     1      41.800 -15.043   0.886  1.00  0.00    -0.266 OA
HETATM    5  C   UNL     1      43.005 -16.887   1.743  1.00  0.00     0.129 A 
HETATM    6  C   UNL     1      42.903 -17.734   2.808  1.00  0.00     0.034 A 
HETATM    7  N   UNL     1      44.043 -17.284   0.993  1.00  0.00    -0.272 N 
HETATM    8  H   UNL     1      44.404 -16.883   0.132  1.00  0.00     0.189 HD
HETATM    9  N   UNL     1      44.634 -18.391   1.512  1.00  0.00    -0.173 NA
HETATM   10  C   UNL     1      43.887 -18.716   2.601  1.00  0.00     0.101 A 
ENDROOT
BRANCH   1  11
HETATM   11  C   UNL     1      42.398 -16.886   5.000  1.00  0.00    -0.028 A 
HETATM   12  C   UNL     1      43.309 -15.810   5.089  1.00  0.00     0.046 A 
HETATM   13  C   UNL     1      43.883 -15.445   6.309  1.00  0.00     0.069 A 
HETATM   14  C   UNL     1      43.554 -16.164   7.457  1.00  0.00     0.037 A 
HETATM   15  C   UNL     1      42.658 -17.230   7.394  1.00  0.00     0.003 A 
HETATM   16  C   UNL     1      42.081 -17.585   6.176  1.00  0.00     0.010 A 
BRANCH  13  17
HETATM   17  O   UNL     1      44.771 -14.423   6.509  1.00  0.00    -0.348 OA
BRANCH  17  18
HETATM   18  C   UNL     1      44.586 -13.617   7.671  1.00  0.00     0.202 C 
BRANCH  18  19
HETATM   19  C   UNL     1      45.869 -12.881   7.919  1.00  0.00    -0.011 C 
HETATM   20  C   UNL     1      46.002 -11.843   8.755  1.00  0.00     0.009 C 
ENDBRANCH  18  19
ENDBRANCH  17  18
ENDBRANCH  13  17
ENDBRANCH   1  11
BRANCH   2  21
HETATM   21  C   UNL     1      39.980 -15.551   3.172  1.00  0.00     0.167 C 
BRANCH  21  22
HETATM   22  C   UNL     1      40.095 -14.332   4.049  1.00  0.00    -0.023 A 
HETATM   23  C   UNL     1      40.357 -13.092   3.469  1.00  0.00     0.125 A 
HETATM   24  N   UNL     1      40.440 -11.929   4.155  1.00  0.00    -0.273 NA
HETATM   25  C   UNL     1      40.234 -11.992   5.486  1.00  0.00     0.116 A 
HETATM   26  C   UNL     1      39.949 -13.165   6.162  1.00  0.00     0.020 A 
HETATM   27  C   UNL     1      39.870 -14.347   5.430  1.00  0.00     0.012 A 
ENDBRANCH  21  22
ENDBRANCH   2  21
BRANCH  10  28
HETATM   28  C   UNL     1      44.173 -19.935   3.359  1.00  0.00     0.028 A 
HETATM   29  C   UNL     1      44.218 -21.193   2.734  1.00  0.00     0.078 A 
HETATM   30  C   UNL     1      44.503 -22.351   3.456  1.00  0.00     0.037 A 
HETATM   31  C   UNL     1      44.722 -22.274   4.830  1.00  0.00     0.003 A 
HETATM   32  C   UNL     1      44.649 -21.042   5.477  1.00  0.00     0.001 A 
HETATM   33  C   UNL     1      44.374 -19.880   4.748  1.00  0.00     0.017 A 
BRANCH  29  34
HETATM   34  O   UNL     1      43.972 -21.357   1.395  1.00  0.00    -0.360 OA
HETATM   35  H   UNL     1      44.644 -20.811   0.927  1.00  0.00     0.217 HD
ENDBRANCH  29  34
ENDBRANCH  10  28
TORSDOF 8
ENDMDL
MODEL 2
REMARK VINA RESULT:      -8.4      1.623      6.386
REMARK  8 active torsions:
REMARK  status: ('A' for Active; 'I' for Inactive)
REMARK    1  A    between atoms: C_2  and  C_3 
REMARK    2  A    between atoms: C_3  and  O_4 
REMARK    3  A    between atoms: O_4  and  C_5 
REMARK    4  A    between atoms: C_7  and  C_8 
REMARK    5  A    between atoms: N_9  and  C_10 
REMARK    6  A    between atoms: C_10  and  C_11 
REMARK    7  A    between atoms: C_24  and  C_25 
REMARK    8  A    between atoms: C_26  and  O_27 
ROOT
HETATM    1  C   UNL     1      42.589 -15.806   3.192  1.00  0.00     0.159 A 
HETATM    2  N   UNL     1      42.629 -17.000   2.301  1.00  0.00    -0.329 N 
HETATM    3  C   UNL     1      41.397 -17.325   1.723  1.00  0.00     0.273 A 
HETATM    4  O   UNL     1      41.131 -18.238   0.963  1.00  0.00    -0.266 OA
HETATM    5  C   UNL     1      40.540 -16.304   2.188  1.00  0.00     0.129 A 
HETATM    6  C   UNL     1      41.176 -15.402   2.989  1.00  0.00     0.034 A 
HETATM    7  N   UNL     1      39.265 -15.915   2.053  1.00  0.00    -0.272 N 
HETATM    8  H   UNL     1      38.512 -16.352   1.529  1.00  0.00     0.189 HD
HETATM    9  N   UNL     1      39.026 -14.760   2.725  1.00  0.00    -0.173 NA
HETATM   10  C   UNL     1      40.228 -14.399   3.250  1.00  0.00     0.101 A 
ENDROOT
BRANCH   1  11
HETATM   11  C   UNL     1      42.737 -16.139   4.663  1.00  0.00    -0.028 A 
HETATM   12  C   UNL     1      43.519 -15.354   5.540  1.00  0.00     0.046 A 
HETATM   13  C   UNL     1      43.660 -15.695   6.887  1.00  0.00     0.069 A 
HETATM   14  C   UNL     1      43.020 -16.836   7.370  1.00  0.00     0.037 A 
HETATM   15  C   UNL     1      42.243 -17.625   6.525  1.00  0.00     0.003 A 
HETATM   16  C   UNL     1      42.099 -17.276   5.182  1.00  0.00     0.010 A 
BRANCH  13  17
HETATM   17  O   UNL     1      44.388 -15.009   7.820  1.00  0.00    -0.348 OA
BRANCH  17  18
HETATM   18  C   UNL     1      45.018 -13.801   7.397  1.00  0.00     0.202 C 
BRANCH  18  19
HETATM   19  C   UNL     1      44.785 -12.772   8.462  1.00  0.00    -0.011 C 
HETATM   20  C   UNL     1      45.719 -11.931   8.928  1.00  0.00     0.009 C 
ENDBRANCH  18  19
ENDBRANCH  17  18
ENDBRANCH  13  17
ENDBRANCH   1  11
BRANCH   2  21
HETATM   21  C   UNL     1      43.868 -17.664   1.949  1.00  0.00     0.167 C 
BRANCH  21  22
HETATM   22  C   UNL     1      44.045 -19.016   2.588  1.00  0.00    -0.023 A 
HETATM   23  C   UNL     1      43.825 -20.166   1.832  1.00  0.00     0.125 A 
HETATM   24  N   UNL     1      43.993 -21.428   2.291  1.00  0.00    -0.273 NA
HETATM   25  C   UNL     1      44.422 -21.559   3.563  1.00  0.00     0.116 A 
HETATM   26  C   UNL     1      44.688 -20.487   4.396  1.00  0.00     0.020 A 
HETATM   27  C   UNL     1      44.507 -19.201   3.896  1.00  0.00     0.012 A 
ENDBRANCH  21  22
ENDBRANCH   2  21
BRANCH  10  28
HETATM   28  C   UNL     1      40.374 -13.128   3.963  1.00  0.00     0.028 A 
HETATM   29  C   UNL     1      40.345 -13.068   5.367  1.00  0.00     0.078 A 
HETATM   30  C   UNL     1      40.497 -11.859   6.042  1.00  0.00     0.037 A 
HETATM   31  C   UNL     1      40.656 -10.677   5.322  1.00  0.00     0.003 A 
HETATM   32  C   UNL     1      40.655 -10.708   3.929  1.00  0.00     0.001 A 
HETATM   33  C   UNL     1      40.512 -11.925   3.253  1.00  0.00     0.017 A 
BRANCH  29  34
HETATM   34  O   UNL     1      40.151 -14.180   6.146  1.00  0.00    -0.360 OA
HETATM   35  H   UNL     1      41.038 -14.593   6.253  1.00  0.00     0.217 HD
ENDBRANCH  29  34
ENDBRANCH  10  28
TORSDOF 8
ENDMDL
MODEL 3
REMARK VINA RESULT:      -8.3      2.583      7.064
REMARK  8 active torsions:
REMARK  status: ('A' for Active; 'I' for Inactive)
REMARK    1  A    between atoms: C_2  and  C_3 
REMARK    2  A    between atoms: C_3  and  O_4 
REMARK    3  A    between atoms: O_4  and  C_5 
REMARK    4  A    between atoms: C_7  and  C_8 
REMARK    5  A    between atoms: N_9  and  C_10 
REMARK    6  A    between atoms: C_10  and  C_11 
REMARK    7  A    between atoms: C_24  and  C_25 
REMARK    8  A    between atoms: C_26  and  O_27 
ROOT
HETATM    1  C   UNL     1      41.319 -15.920   3.207  1.00  0.00     0.159 A 
HETATM    2  N   UNL     1      41.601 -15.637   4.642  1.00  0.00    -0.329 N 
HETATM    3  C   UNL     1      42.118 -14.359   4.883  1.00  0.00     0.273 A 
HETATM    4  O   UNL     1      42.440 -13.857   5.944  1.00  0.00    -0.266 OA
HETATM    5  C   UNL     1      42.127 -13.766   3.602  1.00  0.00     0.129 A 
HETATM    6  C   UNL     1      41.649 -14.594   2.630  1.00  0.00     0.034 A 
HETATM    7  N   UNL     1      42.435 -12.591   3.034  1.00  0.00    -0.272 N 
HETATM    8  H   UNL     1      42.816 -11.751   3.461  1.00  0.00     0.189 HD
HETATM    9  N   UNL     1      42.158 -12.596   1.705  1.00  0.00    -0.173 NA
HETATM   10  C   UNL     1      41.603 -13.814   1.462  1.00  0.00     0.101 A 
ENDROOT
BRANCH   1  11
HETATM   11  C   UNL     1      42.277 -16.914   2.582  1.00  0.00    -0.028 A 
HETATM   12  C   UNL     1      42.007 -18.300   2.541  1.00  0.00     0.046 A 
HETATM   13  C   UNL     1      42.918 -19.200   1.982  1.00  0.00     0.069 A 
HETATM   14  C   UNL     1      44.118 -18.718   1.461  1.00  0.00     0.037 A 
HETATM   15  C   UNL     1      44.406 -17.355   1.490  1.00  0.00     0.003 A 
HETATM   16  C   UNL     1      43.491 -16.459   2.042  1.00  0.00     0.010 A 
BRANCH  13  17
HETATM   17  O   UNL     1      42.758 -20.556   1.889  1.00  0.00    -0.348 OA
BRANCH  17  18
HETATM   18  C   UNL     1      43.916 -21.330   1.585  1.00  0.00     0.202 C 
BRANCH  18  19
HETATM   19  C   UNL     1      44.270 -22.116   2.812  1.00  0.00    -0.011 C 
HETATM   20  C   UNL     1      44.730 -21.582   3.952  1.00  0.00     0.009 C 
ENDBRANCH  18  19
ENDBRANCH  17  18
ENDBRANCH  13  17
ENDBRANCH   1  11
BRANCH   2  21
HETATM   21  C   UNL     1      41.225 -16.551   5.702  1.00  0.00     0.167 C 
BRANCH  21  22
HETATM   22  C   UNL     1      42.386 -17.279   6.327  1.00  0.00    -0.023 A 
HETATM   23  C   UNL     1      42.708 -17.038   7.661  1.00  0.00     0.125 A 
HETATM   24  N   UNL     1      43.702 -17.664   8.334  1.00  0.00    -0.273 NA
HETATM   25  C   UNL     1      44.403 -18.594   7.655  1.00  0.00     0.116 A 
HETATM   26  C   UNL     1      44.156 -18.926   6.335  1.00  0.00     0.020 A 
HETATM   27  C   UNL     1      43.127 -18.266   5.668  1.00  0.00     0.012 A 
ENDBRANCH  21  22
ENDBRANCH   2  21
BRANCH  10  28
HETATM   28  C   UNL     1      41.077 -14.138   0.135  1.00  0.00     0.028 A 
HETATM   29  C   UNL     1      40.119 -13.323  -0.493  1.00  0.00     0.078 A 
HETATM   30  C   UNL     1      39.630 -13.627  -1.762  1.00  0.00     0.037 A 
HETATM   31  C   UNL     1      40.072 -14.773  -2.419  1.00  0.00     0.003 A 
HETATM   32  C   UNL     1      40.996 -15.614  -1.802  1.00  0.00     0.001 A 
HETATM   33  C   UNL     1      41.494 -15.301  -0.532  1.00  0.00     0.017 A 
BRANCH  29  34
HETATM   34  O   UNL     1      39.604 -12.201   0.105  1.00  0.00    -0.360 OA
HETATM   35  H   UNL     1      39.404 -11.572  -0.625  1.00  0.00     0.217 HD
ENDBRANCH  29  34
ENDBRANCH  10  28
TORSDOF 8
ENDMDL
MODEL 4
REMARK VINA RESULT:      -8.2      1.802      2.168
REMARK  8 active torsions:
REMARK  status: ('A' for Active; 'I' for Inactive)
REMARK    1  A    between atoms: C_2  and  C_3 
REMARK    2  A    between atoms: C_3  and  O_4 
REMARK    3  A    between atoms: O_4  and  C_5 
REMARK    4  A    between atoms: C_7  and  C_8 
REMARK    5  A    between atoms: N_9  and  C_10 
REMARK    6  A    between atoms: C_10  and  C_11 
REMARK    7  A    between atoms: C_24  and  C_25 
REMARK    8  A    between atoms: C_26  and  O_27 
ROOT
HETATM    1  C   UNL     1      41.227 -17.576   2.959  1.00  0.00     0.159 A 
HETATM    2  N   UNL     1      40.603 -16.629   1.992  1.00  0.00    -0.329 N 
HETATM    3  C   UNL     1      41.407 -16.324   0.888  1.00  0.00     0.273 A 
HETATM    4  O   UNL     1      41.163 -15.589  -0.051  1.00  0.00    -0.266 OA
HETATM    5  C   UNL     1      42.555 -17.120   1.093  1.00  0.00     0.129 A 
HETATM    6  C   UNL     1      42.483 -17.873   2.228  1.00  0.00     0.034 A 
HETATM    7  N   UNL     1      43.713 -17.401   0.479  1.00  0.00    -0.272 N 
HETATM    8  H   UNL     1      44.090 -17.024  -0.386  1.00  0.00     0.189 HD
HETATM    9  N   UNL     1      44.418 -18.341   1.159  1.00  0.00    -0.173 NA
HETATM   10  C   UNL     1      43.627 -18.689   2.209  1.00  0.00     0.101 A 
ENDROOT
BRANCH   1  11
HETATM   11  C   UNL     1      41.632 -16.930   4.269  1.00  0.00    -0.028 A 
HETATM   12  C   UNL     1      42.249 -15.660   4.326  1.00  0.00     0.046 A 
HETATM   13  C   UNL     1      42.635 -15.096   5.543  1.00  0.00     0.069 A 
HETATM   14  C   UNL     1      42.411 -15.804   6.723  1.00  0.00     0.037 A 
HETATM   15  C   UNL     1      41.804 -17.058   6.692  1.00  0.00     0.003 A 
HETATM   16  C   UNL     1      41.413 -17.615   5.475  1.00  0.00     0.010 A 
BRANCH  13  17
HETATM   17  O   UNL     1      43.236 -13.878   5.713  1.00  0.00    -0.348 OA
BRANCH  17  18
HETATM   18  C   UNL     1      42.624 -12.755   5.082  1.00  0.00     0.202 C 
BRANCH  18  19
HETATM   19  C   UNL     1      41.563 -12.238   6.008  1.00  0.00    -0.011 C 
HETATM   20  C   UNL     1      41.060 -10.997   5.973  1.00  0.00     0.009 C 
ENDBRANCH  18  19
ENDBRANCH  17  18
ENDBRANCH  13  17
ENDBRANCH   1  11
BRANCH   2  21
HETATM   21  C   UNL     1      39.228 -16.190   2.113  1.00  0.00     0.167 C 
BRANCH  21  22
HETATM   22  C   UNL     1      39.053 -14.695   2.084  1.00  0.00    -0.023 A 
HETATM   23  C   UNL     1      38.170 -14.125   1.169  1.00  0.00     0.125 A 
HETATM   24  N   UNL     1      37.906 -12.801   1.083  1.00  0.00    -0.273 NA
HETATM   25  C   UNL     1      38.536 -11.997   1.964  1.00  0.00     0.116 A 
HETATM   26  C   UNL     1      39.418 -12.457   2.925  1.00  0.00     0.020 A 
HETATM   27  C   UNL     1      39.669 -13.825   2.990  1.00  0.00     0.012 A 
ENDBRANCH  21  22
ENDBRANCH   2  21
BRANCH  10  28
HETATM   28  C   UNL     1      44.026 -19.770   3.112  1.00  0.00     0.028 A 
HETATM   29  C   UNL     1      44.167 -21.092   2.656  1.00  0.00     0.078 A 
HETATM   30  C   UNL     1      44.559 -22.116   3.516  1.00  0.00     0.037 A 
HETATM   31  C   UNL     1      44.793 -21.841   4.861  1.00  0.00     0.003 A 
HETATM   32  C   UNL     1      44.628 -20.543   5.343  1.00  0.00     0.001 A 
HETATM   33  C   UNL     1      44.244 -19.515   4.476  1.00  0.00     0.017 A 
BRANCH  29  34
HETATM   34  O   UNL     1      43.914 -21.451   1.357  1.00  0.00    -0.360 OA
HETATM   35  H   UNL     1      44.347 -22.326   1.228  1.00  0.00     0.217 HD
ENDBRANCH  29  34
ENDBRANCH  10  28
TORSDOF 8
ENDMDL
MODEL 5
REMARK VINA RESULT:      -7.9      1.587      2.176
REMARK  8 active torsions:
REMARK  status: ('A' for Active; 'I' for Inactive)
REMARK    1  A    between atoms: C_2  and  C_3 
REMARK    2  A    between atoms: C_3  and  O_4 
REMARK    3  A    between atoms: O_4  and  C_5 
REMARK    4  A    between atoms: C_7  and  C_8 
REMARK    5  A    between atoms: N_9  and  C_10 
REMARK    6  A    between atoms: C_10  and  C_11 
REMARK    7  A    between atoms: C_24  and  C_25 
REMARK    8  A    between atoms: C_26  and  O_27 
ROOT
HETATM    1  C   UNL     1      41.876 -16.964   3.924  1.00  0.00     0.159 A 
HETATM    2  N   UNL     1      41.482 -15.576   3.547  1.00  0.00    -0.329 N 
HETATM    3  C   UNL     1      42.297 -14.995   2.570  1.00  0.00     0.273 A 
HETATM    4  O   UNL     1      42.217 -13.886   2.074  1.00  0.00    -0.266 OA
HETATM    5  C   UNL     1      43.209 -16.025   2.251  1.00  0.00     0.129 A 
HETATM    6  C   UNL     1      42.987 -17.168   2.962  1.00  0.00     0.034 A 
HETATM    7  N   UNL     1      44.232 -16.246   1.415  1.00  0.00    -0.272 N 
HETATM    8  H   UNL     1      44.663 -15.616   0.745  1.00  0.00     0.189 HD
HETATM    9  N   UNL     1      44.696 -17.518   1.526  1.00  0.00    -0.173 NA
HETATM   10  C   UNL     1      43.880 -18.116   2.435  1.00  0.00     0.101 A 
ENDROOT
BRANCH   1  11
HETATM   11  C   UNL     1      42.480 -17.070   5.310  1.00  0.00    -0.028 A 
HETATM   12  C   UNL     1      43.139 -15.986   5.931  1.00  0.00     0.046 A 
HETATM   13  C   UNL     1      43.709 -16.115   7.199  1.00  0.00     0.069 A 
HETATM   14  C   UNL     1      43.630 -17.341   7.859  1.00  0.00     0.037 A 
HETATM   15  C   UNL     1      42.986 -18.424   7.267  1.00  0.00     0.003 A 
HETATM   16  C   UNL     1      42.410 -18.289   6.003  1.00  0.00     0.010 A 
BRANCH  13  17
HETATM   17  O   UNL     1      44.366 -15.134   7.892  1.00  0.00    -0.348 OA
BRANCH  17  18
HETATM   18  C   UNL     1      44.725 -13.956   7.173  1.00  0.00     0.202 C 
BRANCH  18  19
HETATM   19  C   UNL     1      44.863 -12.843   8.168  1.00  0.00    -0.011 C 
HETATM   20  C   UNL     1      46.028 -12.298   8.545  1.00  0.00     0.009 C 
ENDBRANCH  18  19
ENDBRANCH  17  18
ENDBRANCH  13  17
ENDBRANCH   1  11
BRANCH   2  21
HETATM   21  C   UNL     1      40.271 -14.953   4.040  1.00  0.00     0.167 C 
BRANCH  21  22
HETATM   22  C   UNL     1      39.470 -14.241   2.982  1.00  0.00    -0.023 A 
HETATM   23  C   UNL     1      38.868 -14.979   1.965  1.00  0.00     0.125 A 
HETATM   24  N   UNL     1      38.095 -14.450   0.989  1.00  0.00    -0.273 NA
HETATM   25  C   UNL     1      37.889 -13.117   1.033  1.00  0.00     0.116 A 
HETATM   26  C   UNL     1      38.423 -12.292   2.006  1.00  0.00     0.020 A 
HETATM   27  C   UNL     1      39.214 -12.865   2.997  1.00  0.00     0.012 A 
ENDBRANCH  21  22
ENDBRANCH   2  21
BRANCH  10  28
HETATM   28  C   UNL     1      44.020 -19.543   2.731  1.00  0.00     0.028 A 
HETATM   29  C   UNL     1      44.681 -19.990   3.889  1.00  0.00     0.078 A 
HETATM   30  C   UNL     1      44.801 -21.348   4.175  1.00  0.00     0.037 A 
HETATM   31  C   UNL     1      44.284 -22.291   3.290  1.00  0.00     0.003 A 
HETATM   32  C   UNL     1      43.654 -21.873   2.119  1.00  0.00     0.001 A 
HETATM   33  C   UNL     1      43.525 -20.508   1.840  1.00  0.00     0.017 A 
BRANCH  29  34
HETATM   34  O   UNL     1      45.253 -19.125   4.788  1.00  0.00    -0.360 OA
HETATM   35  H   UNL     1      45.686 -18.423   4.251  1.00  0.00     0.217 HD
ENDBRANCH  29  34
ENDBRANCH  10  28
TORSDOF 8
ENDMDL
MODEL 6
REMARK VINA RESULT:      -7.9      2.839      6.597
REMARK  8 active torsions:
REMARK  status: ('A' for Active; 'I' for Inactive)
REMARK    1  A    between atoms: C_2  and  C_3 
REMARK    2  A    between atoms: C_3  and  O_4 
REMARK    3  A    between atoms: O_4  and  C_5 
REMARK    4  A    between atoms: C_7  and  C_8 
REMARK    5  A    between atoms: N_9  and  C_10 
REMARK    6  A    between atoms: C_10  and  C_11 
REMARK    7  A    between atoms: C_24  and  C_25 
REMARK    8  A    between atoms: C_26  and  O_27 
ROOT
HETATM    1  C   UNL     1      42.200 -14.186   2.061  1.00  0.00     0.159 A 
HETATM    2  N   UNL     1      41.479 -13.387   1.030  1.00  0.00    -0.329 N 
HETATM    3  C   UNL     1      40.292 -12.803   1.485  1.00  0.00     0.273 A 
HETATM    4  O   UNL     1      39.504 -12.106   0.873  1.00  0.00    -0.266 OA
HETATM    5  C   UNL     1      40.252 -13.169   2.848  1.00  0.00     0.129 A 
HETATM    6  C   UNL     1      41.327 -13.917   3.229  1.00  0.00     0.034 A 
HETATM    7  N   UNL     1      39.480 -12.971   3.926  1.00  0.00    -0.272 N 
HETATM    8  H   UNL     1      38.604 -12.461   4.005  1.00  0.00     0.189 HD
HETATM    9  N   UNL     1      40.016 -13.548   5.032  1.00  0.00    -0.173 NA
HETATM   10  C   UNL     1      41.199 -14.077   4.619  1.00  0.00     0.101 A 
ENDROOT
BRANCH   1  11
HETATM   11  C   UNL     1      42.149 -15.681   1.818  1.00  0.00    -0.028 A 
HETATM   12  C   UNL     1      43.281 -16.511   1.978  1.00  0.00     0.046 A 
HETATM   13  C   UNL     1      43.216 -17.883   1.725  1.00  0.00     0.069 A 
HETATM   14  C   UNL     1      42.010 -18.440   1.301  1.00  0.00     0.037 A 
HETATM   15  C   UNL     1      40.880 -17.642   1.136  1.00  0.00     0.003 A 
HETATM   16  C   UNL     1      40.948 -16.273   1.397  1.00  0.00     0.010 A 
BRANCH  13  17
HETATM   17  O   UNL     1      44.245 -18.776   1.849  1.00  0.00    -0.348 OA
BRANCH  17  18
HETATM   18  C   UNL     1      44.190 -19.689   2.944  1.00  0.00     0.202 C 
BRANCH  18  19
HETATM   19  C   UNL     1      44.617 -21.033   2.435  1.00  0.00    -0.011 C 
HETATM   20  C   UNL     1      43.852 -21.846   1.694  1.00  0.00     0.009 C 
ENDBRANCH  18  19
ENDBRANCH  17  18
ENDBRANCH  13  17
ENDBRANCH   1  11
BRANCH   2  21
HETATM   21  C   UNL     1      42.042 -13.119  -0.278  1.00  0.00     0.167 C 
BRANCH  21  22
HETATM   22  C   UNL     1      41.280 -13.744  -1.416  1.00  0.00    -0.023 A 
HETATM   23  C   UNL     1      40.619 -12.926  -2.330  1.00  0.00     0.125 A 
HETATM   24  N   UNL     1      39.940 -13.377  -3.411  1.00  0.00    -0.273 NA
HETATM   25  C   UNL     1      39.931 -14.711  -3.609  1.00  0.00     0.116 A 
HETATM   26  C   UNL     1      40.569 -15.613  -2.776  1.00  0.00     0.020 A 
HETATM   27  C   UNL     1      41.259 -15.120  -1.673  1.00  0.00     0.012 A 
ENDBRANCH  21  22
ENDBRANCH   2  21
BRANCH  10  28
HETATM   28  C   UNL     1      42.110 -14.697   5.582  1.00  0.00     0.028 A 
HETATM   29  C   UNL     1      41.802 -15.922   6.199  1.00  0.00     0.078 A 
HETATM   30  C   UNL     1      42.678 -16.516   7.106  1.00  0.00     0.037 A 
HETATM   31  C   UNL     1      43.872 -15.879   7.435  1.00  0.00     0.003 A 
HETATM   32  C   UNL     1      44.184 -14.648   6.861  1.00  0.00     0.001 A 
HETATM   33  C   UNL     1      43.308 -14.059   5.943  1.00  0.00     0.017 A 
BRANCH  29  34
HETATM   34  O   UNL     1      40.628 -16.590   5.960  1.00  0.00    -0.360 OA
HETATM   35  H   UNL     1      40.035 -15.944   5.514  1.00  0.00     0.217 HD
ENDBRANCH  29  34
ENDBRANCH  10  28
TORSDOF 8
ENDMDL
MODEL 7
REMARK VINA RESULT:      -7.8      2.106      6.940
REMARK  8 active torsions:
REMARK  status: ('A' for Active; 'I' for Inactive)
REMARK    1  A    between atoms: C_2  and  C_3 
REMARK    2  A    between atoms: C_3  and  O_4 
REMARK    3  A    between atoms: O_4  and  C_5 
REMARK    4  A    between atoms: C_7  and  C_8 
REMARK    5  A    between atoms: N_9  and  C_10 
REMARK    6  A    between atoms: C_10  and  C_11 
REMARK    7  A    between atoms: C_24  and  C_25 
REMARK    8  A    between atoms: C_26  and  O_27 
ROOT
HETATM    1  C   UNL     1      42.507 -15.174   2.433  1.00  0.00     0.159 A 
HETATM    2  N   UNL     1      42.506 -16.536   1.827  1.00  0.00    -0.329 N 
HETATM    3  C   UNL     1      41.230 -17.035   1.543  1.00  0.00     0.273 A 
HETATM    4  O   UNL     1      40.924 -18.107   1.053  1.00  0.00    -0.266 OA
HETATM    5  C   UNL     1      40.376 -15.973   1.910  1.00  0.00     0.129 A 
HETATM    6  C   UNL     1      41.053 -14.886   2.381  1.00  0.00     0.034 A 
HETATM    7  N   UNL     1      39.068 -15.678   1.904  1.00  0.00    -0.272 N 
HETATM    8  H   UNL     1      38.281 -16.254   1.618  1.00  0.00     0.189 HD
HETATM    9  N   UNL     1      38.844 -14.412   2.340  1.00  0.00    -0.173 NA
HETATM   10  C   UNL     1      40.079 -13.891   2.571  1.00  0.00     0.101 A 
ENDROOT
BRANCH   1  11
HETATM   11  C   UNL     1      42.899 -15.159   3.896  1.00  0.00    -0.028 A 
HETATM   12  C   UNL     1      42.436 -16.129   4.812  1.00  0.00     0.046 A 
HETATM   13  C   UNL     1      42.791 -16.080   6.162  1.00  0.00     0.069 A 
HETATM   14  C   UNL     1      43.615 -15.049   6.612  1.00  0.00     0.037 A 
HETATM   15  C   UNL     1      44.085 -14.081   5.727  1.00  0.00     0.003 A 
HETATM   16  C   UNL     1      43.734 -14.138   4.378  1.00  0.00     0.010 A 
BRANCH  13  17
HETATM   17  O   UNL     1      42.403 -16.965   7.131  1.00  0.00    -0.348 OA
BRANCH  17  18
HETATM   18  C   UNL     1      43.330 -17.232   8.181  1.00  0.00     0.202 C 
BRANCH  18  19
HETATM   19  C   UNL     1      44.174 -18.396   7.755  1.00  0.00    -0.011 C 
HETATM   20  C   UNL     1      43.731 -19.655   7.638  1.00  0.00     0.009 C 
ENDBRANCH  18  19
ENDBRANCH  17  18
ENDBRANCH  13  17
ENDBRANCH   1  11
BRANCH   2  21
HETATM   21  C   UNL     1      43.725 -17.209   1.429  1.00  0.00     0.167 C 
BRANCH  21  22
HETATM   22  C   UNL     1      43.973 -18.509   2.147  1.00  0.00    -0.023 A 
HETATM   23  C   UNL     1      44.308 -18.493   3.499  1.00  0.00     0.125 A 
HETATM   24  N   UNL     1      44.512 -19.599   4.251  1.00  0.00    -0.273 NA
HETATM   25  C   UNL     1      44.356 -20.789   3.636  1.00  0.00     0.116 A 
HETATM   26  C   UNL     1      44.006 -20.922   2.304  1.00  0.00     0.020 A 
HETATM   27  C   UNL     1      43.803 -19.766   1.556  1.00  0.00     0.012 A 
ENDBRANCH  21  22
ENDBRANCH   2  21
BRANCH  10  28
HETATM   28  C   UNL     1      40.231 -12.487   2.957  1.00  0.00     0.028 A 
HETATM   29  C   UNL     1      40.432 -12.114   4.298  1.00  0.00     0.078 A 
HETATM   30  C   UNL     1      40.590 -10.778   4.661  1.00  0.00     0.037 A 
HETATM   31  C   UNL     1      40.522  -9.782   3.689  1.00  0.00     0.003 A 
HETATM   32  C   UNL     1      40.291 -10.126   2.358  1.00  0.00     0.001 A 
HETATM   33  C   UNL     1      40.143 -11.469   1.994  1.00  0.00     0.017 A 
BRANCH  29  34
HETATM   34  O   UNL     1      40.469 -13.030   5.317  1.00  0.00    -0.360 OA
HETATM   35  H   UNL     1      40.487 -12.508   6.151  1.00  0.00     0.217 HD
ENDBRANCH  29  34
ENDBRANCH  10  28
TORSDOF 8
ENDMDL
MODEL 8
REMARK VINA RESULT:      -7.8      3.097      6.111
REMARK  8 active torsions:
REMARK  status: ('A' for Active; 'I' for Inactive)
REMARK    1  A    between atoms: C_2  and  C_3 
REMARK    2  A    between atoms: C_3  and  O_4 
REMARK    3  A    between atoms: O_4  and  C_5 
REMARK    4  A    between atoms: C_7  and  C_8 
REMARK    5  A    between atoms: N_9  and  C_10 
REMARK    6  A    between atoms: C_10  and  C_11 
REMARK    7  A    between atoms: C_24  and  C_25 
REMARK    8  A    between atoms: C_26  and  O_27 
ROOT
HETATM    1  C   UNL     1      41.549 -14.192   3.919  1.00  0.00     0.159 A 
HETATM    2  N   UNL     1      40.907 -13.197   4.825  1.00  0.00    -0.329 N 
HETATM    3  C   UNL     1      40.195 -13.765   5.887  1.00  0.00     0.273 A 
HETATM    4  O   UNL     1      39.575 -13.205   6.773  1.00  0.00    -0.266 OA
HETATM    5  C   UNL     1      40.412 -15.150   5.720  1.00  0.00     0.129 A 
HETATM    6  C   UNL     1      41.203 -15.437   4.646  1.00  0.00     0.034 A 
HETATM    7  N   UNL     1      40.104 -16.302   6.331  1.00  0.00    -0.272 N 
HETATM    8  H   UNL     1      39.535 -16.460   7.158  1.00  0.00     0.189 HD
HETATM    9  N   UNL     1      40.683 -17.362   5.710  1.00  0.00    -0.173 NA
HETATM   10  C   UNL     1      41.424 -16.824   4.704  1.00  0.00     0.101 A 
ENDROOT
BRANCH   1  11
HETATM   11  C   UNL     1      40.891 -14.289   2.557  1.00  0.00    -0.028 A 
HETATM   12  C   UNL     1      41.631 -14.220   1.355  1.00  0.00     0.046 A 
HETATM   13  C   UNL     1      41.000 -14.288   0.111  1.00  0.00     0.069 A 
HETATM   14  C   UNL     1      39.613 -14.418   0.058  1.00  0.00     0.037 A 
HETATM   15  C   UNL     1      38.862 -14.488   1.230  1.00  0.00     0.003 A 
HETATM   16  C   UNL     1      39.497 -14.428   2.470  1.00  0.00     0.010 A 
BRANCH  13  17
HETATM   17  O   UNL     1      41.616 -14.234  -1.109  1.00  0.00    -0.348 OA
BRANCH  17  18
HETATM   18  C   UNL     1      40.779 -14.121  -2.259  1.00  0.00     0.202 C 
BRANCH  18  19
HETATM   19  C   UNL     1      40.922 -15.388  -3.049  1.00  0.00    -0.011 C 
HETATM   20  C   UNL     1      39.898 -16.134  -3.484  1.00  0.00     0.009 C 
ENDBRANCH  18  19
ENDBRANCH  17  18
ENDBRANCH  13  17
ENDBRANCH   1  11
BRANCH   2  21
HETATM   21  C   UNL     1      41.134 -11.772   4.697  1.00  0.00     0.167 C 
BRANCH  21  22
HETATM   22  C   UNL     1      40.005 -11.025   4.036  1.00  0.00    -0.023 A 
HETATM   23  C   UNL     1      38.962 -10.528   4.814  1.00  0.00     0.125 A 
HETATM   24  N   UNL     1      37.921  -9.810   4.332  1.00  0.00    -0.273 NA
HETATM   25  C   UNL     1      37.923  -9.553   3.008  1.00  0.00     0.116 A 
HETATM   26  C   UNL     1      38.915  -9.981   2.146  1.00  0.00     0.020 A 
HETATM   27  C   UNL     1      39.974 -10.718   2.671  1.00  0.00     0.012 A 
ENDBRANCH  21  22
ENDBRANCH   2  21
BRANCH  10  28
HETATM   28  C   UNL     1      42.281 -17.675   3.877  1.00  0.00     0.028 A 
HETATM   29  C   UNL     1      43.264 -18.502   4.448  1.00  0.00     0.078 A 
HETATM   30  C   UNL     1      44.069 -19.320   3.658  1.00  0.00     0.037 A 
HETATM   31  C   UNL     1      43.924 -19.307   2.273  1.00  0.00     0.003 A 
HETATM   32  C   UNL     1      42.979 -18.470   1.682  1.00  0.00     0.001 A 
HETATM   33  C   UNL     1      42.164 -17.657   2.478  1.00  0.00     0.017 A 
BRANCH  29  34
HETATM   34  O   UNL     1      43.496 -18.540   5.799  1.00  0.00    -0.360 OA
HETATM   35  H   UNL     1      43.013 -17.772   6.179  1.00  0.00     0.217 HD
ENDBRANCH  29  34
ENDBRANCH  10  28
TORSDOF 8
ENDMDL
MODEL 9
REMARK VINA RESULT:      -7.7      1.826      2.537
REMARK  8 active torsions:
REMARK  status: ('A' for Active; 'I' for Inactive)
REMARK    1  A    between atoms: C_2  and  C_3 
REMARK    2  A    between atoms: C_3  and  O_4 
REMARK    3  A    between atoms: O_4  and  C_5 
REMARK    4  A    between atoms: C_7  and  C_8 
REMARK    5  A    between atoms: N_9  and  C_10 
REMARK    6  A    between atoms: C_10  and  C_11 
REMARK    7  A    between atoms: C_24  and  C_25 
REMARK    8  A    between atoms: C_26  and  O_27 
ROOT
HETATM    1  C   UNL     1      41.006 -16.585   2.943  1.00  0.00     0.159 A 
HETATM    2  N   UNL     1      40.480 -15.937   1.707  1.00  0.00    -0.329 N 
HETATM    3  C   UNL     1      41.348 -16.002   0.612  1.00  0.00     0.273 A 
HETATM    4  O   UNL     1      41.188 -15.564  -0.512  1.00  0.00    -0.266 OA
HETATM    5  C   UNL     1      42.438 -16.751   1.106  1.00  0.00     0.129 A 
HETATM    6  C   UNL     1      42.273 -17.135   2.405  1.00  0.00     0.034 A 
HETATM    7  N   UNL     1      43.604 -17.247   0.669  1.00  0.00    -0.272 N 
HETATM    8  H   UNL     1      44.040 -17.156  -0.244  1.00  0.00     0.189 HD
HETATM    9  N   UNL     1      44.224 -17.976   1.633  1.00  0.00    -0.173 NA
HETATM   10  C   UNL     1      43.368 -17.969   2.690  1.00  0.00     0.101 A 
ENDROOT
BRANCH   1  11
HETATM   11  C   UNL     1      41.388 -15.601   4.030  1.00  0.00    -0.028 A 
HETATM   12  C   UNL     1      42.712 -15.139   4.199  1.00  0.00     0.046 A 
HETATM   13  C   UNL     1      43.046 -14.252   5.224  1.00  0.00     0.069 A 
HETATM   14  C   UNL     1      42.050 -13.821   6.101  1.00  0.00     0.037 A 
HETATM   15  C   UNL     1      40.737 -14.262   5.955  1.00  0.00     0.003 A 
HETATM   16  C   UNL     1      40.407 -15.142   4.924  1.00  0.00     0.010 A 
BRANCH  13  17
HETATM   17  O   UNL     1      44.290 -13.741   5.477  1.00  0.00    -0.348 OA
BRANCH  17  18
HETATM   18  C   UNL     1      45.037 -14.335   6.536  1.00  0.00     0.202 C 
BRANCH  18  19
HETATM   19  C   UNL     1      45.491 -13.232   7.444  1.00  0.00    -0.011 C 
HETATM   20  C   UNL     1      44.795 -12.773   8.493  1.00  0.00     0.009 C 
ENDBRANCH  18  19
ENDBRANCH  17  18
ENDBRANCH  13  17
ENDBRANCH   1  11
BRANCH   2  21
HETATM   21  C   UNL     1      39.128 -15.425   1.615  1.00  0.00     0.167 C 
BRANCH  21  22
HETATM   22  C   UNL     1      39.044 -13.973   1.224  1.00  0.00    -0.023 A 
HETATM   23  C   UNL     1      39.754 -13.023   1.955  1.00  0.00     0.125 A 
HETATM   24  N   UNL     1      39.785 -11.701   1.668  1.00  0.00    -0.273 NA
HETATM   25  C   UNL     1      39.089 -11.299   0.584  1.00  0.00     0.116 A 
HETATM   26  C   UNL     1      38.365 -12.158  -0.223  1.00  0.00     0.020 A 
HETATM   27  C   UNL     1      38.353 -13.513   0.097  1.00  0.00     0.012 A 
ENDBRANCH  21  22
ENDBRANCH   2  21
BRANCH  10  28
HETATM   28  C   UNL     1      43.664 -18.753   3.890  1.00  0.00     0.028 A 
HETATM   29  C   UNL     1      44.354 -19.976   3.814  1.00  0.00     0.078 A 
HETATM   30  C   UNL     1      44.646 -20.715   4.959  1.00  0.00     0.037 A 
HETATM   31  C   UNL     1      44.227 -20.255   6.206  1.00  0.00     0.003 A 
HETATM   32  C   UNL     1      43.513 -19.062   6.302  1.00  0.00     0.001 A 
HETATM   33  C   UNL     1      43.230 -18.317   5.152  1.00  0.00     0.017 A 
BRANCH  29  34
HETATM   34  O   UNL     1      44.762 -20.516   2.621  1.00  0.00    -0.360 OA
HETATM   35  H   UNL     1      45.744 -20.556   2.664  1.00  0.00     0.217 HD
ENDBRANCH  29  34
ENDBRANCH  10  28
TORSDOF 8
ENDMDL
MODEL 10
REMARK VINA RESULT:      -7.6      2.186      3.529
REMARK  8 active torsions:
REMARK  status: ('A' for Active; 'I' for Inactive)
REMARK    1  A    between atoms: C_2  and  C_3 
REMARK    2  A    between atoms: C_3  and  O_4 
REMARK    3  A    between atoms: O_4  and  C_5 
REMARK    4  A    between atoms: C_7  and  C_8 
REMARK    5  A    between atoms: N_9  and  C_10 
REMARK    6  A    between atoms: C_10  and  C_11 
REMARK    7  A    between atoms: C_24  and  C_25 
REMARK    8  A    between atoms: C_26  and  O_27 
ROOT
HETATM    1  C   UNL     1      41.121 -16.257   2.729  1.00  0.00     0.159 A 
HETATM    2  N   UNL     1      40.595 -15.774   1.420  1.00  0.00    -0.329 N 
HETATM    3  C   UNL     1      41.420 -16.067   0.328  1.00  0.00     0.273 A 
HETATM    4  O   UNL     1      41.250 -15.799  -0.847  1.00  0.00    -0.266 OA
HETATM    5  C   UNL     1      42.477 -16.802   0.908  1.00  0.00     0.129 A 
HETATM    6  C   UNL     1      42.332 -16.969   2.254  1.00  0.00     0.034 A 
HETATM    7  N   UNL     1      43.594 -17.438   0.527  1.00  0.00    -0.272 N 
HETATM    8  H   UNL     1      44.003 -17.519  -0.399  1.00  0.00     0.189 HD
HETATM    9  N   UNL     1      44.198 -18.049   1.578  1.00  0.00    -0.173 NA
HETATM   10  C   UNL     1      43.381 -17.820   2.641  1.00  0.00     0.101 A 
ENDROOT
BRANCH   1  11
HETATM   11  C   UNL     1      41.601 -15.145   3.640  1.00  0.00    -0.028 A 
HETATM   12  C   UNL     1      40.770 -14.561   4.622  1.00  0.00     0.046 A 
HETATM   13  C   UNL     1      41.228 -13.521   5.433  1.00  0.00     0.069 A 
HETATM   14  C   UNL     1      42.528 -13.047   5.263  1.00  0.00     0.037 A 
HETATM   15  C   UNL     1      43.366 -13.607   4.301  1.00  0.00     0.003 A 
HETATM   16  C   UNL     1      42.908 -14.652   3.499  1.00  0.00     0.010 A 
BRANCH  13  17
HETATM   17  O   UNL     1      40.512 -12.887   6.412  1.00  0.00    -0.348 OA
BRANCH  17  18
HETATM   18  C   UNL     1      39.128 -12.651   6.160  1.00  0.00     0.202 C 
BRANCH  18  19
HETATM   19  C   UNL     1      39.035 -11.681   5.020  1.00  0.00    -0.011 C 
HETATM   20  C   UNL     1      39.326 -10.376   5.104  1.00  0.00     0.009 C 
ENDBRANCH  18  19
ENDBRANCH  17  18
ENDBRANCH  13  17
ENDBRANCH   1  11
BRANCH   2  21
HETATM   21  C   UNL     1      39.276 -15.192   1.281  1.00  0.00     0.167 C 
BRANCH  21  22
HETATM   22  C   UNL     1      39.265 -13.687   1.274  1.00  0.00    -0.023 A 
HETATM   23  C   UNL     1      38.051 -13.009   1.364  1.00  0.00     0.125 A 
HETATM   24  N   UNL     1      37.927 -11.662   1.407  1.00  0.00    -0.273 NA
HETATM   25  C   UNL     1      39.069 -10.946   1.381  1.00  0.00     0.116 A 
HETATM   26  C   UNL     1      40.328 -11.515   1.312  1.00  0.00     0.020 A 
HETATM   27  C   UNL     1      40.424 -12.903   1.269  1.00  0.00     0.012 A 
ENDBRANCH  21  22
ENDBRANCH   2  21
BRANCH  10  28
HETATM   28  C   UNL     1      43.668 -18.428   3.942  1.00  0.00     0.028 A 
HETATM   29  C   UNL     1      44.234 -19.710   4.042  1.00  0.00     0.078 A 
HETATM   30  C   UNL     1      44.518 -20.281   5.282  1.00  0.00     0.037 A 
HETATM   31  C   UNL     1      44.213 -19.587   6.451  1.00  0.00     0.003 A 
HETATM   32  C   UNL     1      43.622 -18.327   6.376  1.00  0.00     0.001 A 
HETATM   33  C   UNL     1      43.348 -17.752   5.130  1.00  0.00     0.017 A 
BRANCH  29  34
HETATM   34  O   UNL     1      44.523 -20.474   2.940  1.00  0.00    -0.360 OA
HETATM   35  H   UNL     1      45.024 -19.889   2.329  1.00  0.00     0.217 HD
ENDBRANCH  29  34
ENDBRANCH  10  28
TORSDOF 8
ENDMDL
