MODEL 1
REMARK VINA RESULT:      -8.8      0.000      0.000
REMARK  3 active torsions:
REMARK  status: ('A' for Active; 'I' for Inactive)
REMARK    1  A    between atoms: C_3  and  N_4 
REMARK       I    between atoms: N_4  and  C_5 
REMARK    2  A    between atoms: C_5  and  C_6 
REMARK    3  A    between atoms: C_7  and  C_8 
ROOT
HETATM    1  C   UNL     1      41.915 -15.750   3.397  1.00  0.00     0.062 A 
HETATM    2  C   UNL     1      42.223 -14.861   4.597  1.00  0.00     0.199 A 
HETATM    3  N   UNL     1      41.086 -14.001   4.919  1.00  0.00    -0.092 N 
HETATM    4  C   UNL     1      39.914 -13.968   4.217  1.00  0.00     0.735 A 
HETATM    5  N   UNL     1      39.743 -14.810   3.179  1.00  0.00    -0.191 N 
HETATM    6  N   UNL     1      41.111 -13.011   5.825  1.00  0.00     0.012 NA
HETATM    7  N   UNL     1      39.913 -12.444   5.731  1.00  0.00     0.033 NA
HETATM    8  N   UNL     1      39.159 -13.026   4.728  1.00  0.00     0.030 NA
HETATM    9  C   UNL     1      40.720 -15.706   2.756  1.00  0.00     0.037 A 
HETATM   10  C   UNL     1      40.354 -16.567   1.573  1.00  0.00     0.070 C 
HETATM   11  H   UNL     1      38.863 -14.797   2.670  1.00  0.00     0.184 HD
ENDROOT
BRANCH   1  12
HETATM   12  C   UNL     1      42.937 -16.762   3.026  1.00  0.00     0.256 C 
HETATM   13  N   UNL     1      42.573 -18.042   3.379  1.00  0.00    -0.323 N 
HETATM   14  H   UNL     1      41.732 -18.152   3.926  1.00  0.00     0.169 HD
HETATM   15  O   UNL     1      43.963 -16.390   2.473  1.00  0.00    -0.267 OA
BRANCH  13  16
HETATM   16  C   UNL     1      43.269 -19.243   3.087  1.00  0.00     0.041 A 
HETATM   17  C   UNL     1      44.277 -19.680   3.977  1.00  0.00    -0.035 A 
HETATM   18  C   UNL     1      44.640 -18.923   5.227  1.00  0.00     0.050 C 
HETATM   19  C   UNL     1      44.968 -20.876   3.705  1.00  0.00     0.009 A 
HETATM   20  C   UNL     1      44.672 -21.632   2.574  1.00  0.00     0.001 A 
HETATM   21  C   UNL     1      43.680 -21.205   1.702  1.00  0.00     0.002 A 
HETATM   22  C   UNL     1      42.984 -20.020   1.958  1.00  0.00     0.030 A 
ENDBRANCH  13  16
ENDBRANCH   1  12
BRANCH   2  23
HETATM   23  C   UNL     1      42.680 -15.612   5.831  1.00  0.00    -0.011 A 
HETATM   24  C   UNL     1      43.904 -15.301   6.423  1.00  0.00     0.125 A 
HETATM   25  N   UNL     1      44.406 -15.927   7.509  1.00  0.00    -0.272 NA
HETATM   26  C   UNL     1      43.651 -16.906   8.050  1.00  0.00     0.116 A 
HETATM   27  C   UNL     1      42.414 -17.281   7.557  1.00  0.00     0.020 A 
HETATM   28  C   UNL     1      41.921 -16.622   6.434  1.00  0.00     0.012 A 
ENDBRANCH   2  23
TORSDOF 3
ENDMDL
MODEL 2
REMARK VINA RESULT:      -8.5      1.651      3.960
REMARK  3 active torsions:
REMARK  status: ('A' for Active; 'I' for Inactive)
REMARK    1  A    between atoms: C_3  and  N_4 
REMARK       I    between atoms: N_4  and  C_5 
REMARK    2  A    between atoms: C_5  and  C_6 
REMARK    3  A    between atoms: C_7  and  C_8 
ROOT
HETATM    1  C   UNL     1      42.052 -15.528   5.382  1.00  0.00     0.062 A 
HETATM    2  C   UNL     1      40.970 -14.644   4.771  1.00  0.00     0.199 A 
HETATM    3  N   UNL     1      41.117 -13.257   5.206  1.00  0.00    -0.092 N 
HETATM    4  C   UNL     1      42.074 -12.812   6.076  1.00  0.00     0.735 A 
HETATM    5  N   UNL     1      42.991 -13.681   6.545  1.00  0.00    -0.191 N 
HETATM    6  N   UNL     1      40.231 -12.281   4.955  1.00  0.00     0.012 NA
HETATM    7  N   UNL     1      40.711 -11.222   5.600  1.00  0.00     0.033 NA
HETATM    8  N   UNL     1      41.856 -11.541   6.308  1.00  0.00     0.030 NA
HETATM    9  C   UNL     1      43.003 -15.031   6.212  1.00  0.00     0.037 A 
HETATM   10  C   UNL     1      44.103 -15.853   6.837  1.00  0.00     0.070 C 
HETATM   11  H   UNL     1      43.714 -13.344   7.177  1.00  0.00     0.184 HD
ENDROOT
BRANCH   1  12
HETATM   12  C   UNL     1      42.099 -16.944   4.936  1.00  0.00     0.256 C 
HETATM   13  N   UNL     1      43.208 -17.226   4.170  1.00  0.00    -0.323 N 
HETATM   14  H   UNL     1      43.801 -16.453   3.909  1.00  0.00     0.169 HD
HETATM   15  O   UNL     1      41.193 -17.697   5.266  1.00  0.00    -0.267 OA
BRANCH  13  16
HETATM   16  C   UNL     1      43.605 -18.492   3.669  1.00  0.00     0.041 A 
HETATM   17  C   UNL     1      43.113 -18.913   2.412  1.00  0.00    -0.035 A 
HETATM   18  C   UNL     1      42.186 -18.067   1.580  1.00  0.00     0.050 C 
HETATM   19  C   UNL     1      43.508 -20.161   1.898  1.00  0.00     0.009 A 
HETATM   20  C   UNL     1      44.375 -20.987   2.610  1.00  0.00     0.001 A 
HETATM   21  C   UNL     1      44.860 -20.573   3.843  1.00  0.00     0.002 A 
HETATM   22  C   UNL     1      44.478 -19.334   4.367  1.00  0.00     0.030 A 
ENDBRANCH  13  16
ENDBRANCH   1  12
BRANCH   2  23
HETATM   23  C   UNL     1      40.885 -14.714   3.259  1.00  0.00    -0.011 A 
HETATM   24  C   UNL     1      41.961 -14.286   2.481  1.00  0.00     0.125 A 
HETATM   25  N   UNL     1      41.973 -14.290   1.131  1.00  0.00    -0.272 NA
HETATM   26  C   UNL     1      40.867 -14.754   0.514  1.00  0.00     0.116 A 
HETATM   27  C   UNL     1      39.753 -15.222   1.187  1.00  0.00     0.020 A 
HETATM   28  C   UNL     1      39.765 -15.205   2.580  1.00  0.00     0.012 A 
ENDBRANCH   2  23
TORSDOF 3
ENDMDL
MODEL 3
REMARK VINA RESULT:      -8.3      1.777      3.896
REMARK  3 active torsions:
REMARK  status: ('A' for Active; 'I' for Inactive)
REMARK    1  A    between atoms: C_3  and  N_4 
REMARK       I    between atoms: N_4  and  C_5 
REMARK    2  A    between atoms: C_5  and  C_6 
REMARK    3  A    between atoms: C_7  and  C_8 
ROOT
HETATM    1  C   UNL     1      42.230 -14.910   4.517  1.00  0.00     0.062 A 
HETATM    2  C   UNL     1      41.006 -14.365   3.789  1.00  0.00     0.199 A 
HETATM    3  N   UNL     1      40.367 -13.301   4.560  1.00  0.00    -0.092 N 
HETATM    4  C   UNL     1      40.786 -12.872   5.789  1.00  0.00     0.735 A 
HETATM    5  N   UNL     1      41.892 -13.416   6.334  1.00  0.00    -0.191 N 
HETATM    6  N   UNL     1      39.191 -12.735   4.249  1.00  0.00     0.012 NA
HETATM    7  N   UNL     1      38.951 -11.894   5.251  1.00  0.00     0.033 NA
HETATM    8  N   UNL     1      39.935 -11.974   6.220  1.00  0.00     0.030 NA
HETATM    9  C   UNL     1      42.627 -14.425   5.720  1.00  0.00     0.037 A 
HETATM   10  C   UNL     1      43.834 -14.915   6.481  1.00  0.00     0.070 C 
HETATM   11  H   UNL     1      42.213 -13.083   7.240  1.00  0.00     0.184 HD
ENDROOT
BRANCH   1  12
HETATM   12  C   UNL     1      43.050 -15.918   3.798  1.00  0.00     0.256 C 
HETATM   13  N   UNL     1      42.749 -17.211   4.166  1.00  0.00    -0.323 N 
HETATM   14  H   UNL     1      42.104 -17.338   4.931  1.00  0.00     0.169 HD
HETATM   15  O   UNL     1      43.881 -15.534   2.986  1.00  0.00    -0.267 OA
BRANCH  13  16
HETATM   16  C   UNL     1      43.272 -18.405   3.607  1.00  0.00     0.041 A 
HETATM   17  C   UNL     1      44.256 -19.121   4.328  1.00  0.00    -0.035 A 
HETATM   18  C   UNL     1      44.768 -18.668   5.669  1.00  0.00     0.050 C 
HETATM   19  C   UNL     1      44.774 -20.314   3.790  1.00  0.00     0.009 A 
HETATM   20  C   UNL     1      44.334 -20.796   2.561  1.00  0.00     0.001 A 
HETATM   21  C   UNL     1      43.366 -20.095   1.854  1.00  0.00     0.002 A 
HETATM   22  C   UNL     1      42.839 -18.909   2.375  1.00  0.00     0.030 A 
ENDBRANCH  13  16
ENDBRANCH   1  12
BRANCH   2  23
HETATM   23  C   UNL     1      41.277 -13.898   2.373  1.00  0.00    -0.011 A 
HETATM   24  C   UNL     1      42.068 -12.771   2.151  1.00  0.00     0.125 A 
HETATM   25  N   UNL     1      42.348 -12.266   0.931  1.00  0.00    -0.272 NA
HETATM   26  C   UNL     1      41.830 -12.917  -0.131  1.00  0.00     0.116 A 
HETATM   27  C   UNL     1      41.050 -14.055  -0.026  1.00  0.00     0.020 A 
HETATM   28  C   UNL     1      40.774 -14.554   1.244  1.00  0.00     0.012 A 
ENDBRANCH   2  23
TORSDOF 3
ENDMDL
MODEL 4
REMARK VINA RESULT:      -7.9      2.490      5.404
REMARK  3 active torsions:
REMARK  status: ('A' for Active; 'I' for Inactive)
REMARK    1  A    between atoms: C_3  and  N_4 
REMARK       I    between atoms: N_4  and  C_5 
REMARK    2  A    between atoms: C_5  and  C_6 
REMARK    3  A    between atoms: C_7  and  C_8 
ROOT
HETATM    1  C   UNL     1      42.109 -17.593   3.551  1.00  0.00     0.062 A 
HETATM    2  C   UNL     1      41.824 -17.151   4.983  1.00  0.00     0.199 A 
HETATM    3  N   UNL     1      42.726 -17.810   5.925  1.00  0.00    -0.092 N 
HETATM    4  C   UNL     1      43.676 -18.730   5.577  1.00  0.00     0.735 A 
HETATM    5  N   UNL     1      43.851 -19.036   4.277  1.00  0.00    -0.191 N 
HETATM    6  N   UNL     1      42.620 -17.737   7.260  1.00  0.00     0.012 NA
HETATM    7  N   UNL     1      43.573 -18.544   7.715  1.00  0.00     0.033 NA
HETATM    8  N   UNL     1      44.235 -19.174   6.676  1.00  0.00     0.030 NA
HETATM    9  C   UNL     1      43.089 -18.482   3.253  1.00  0.00     0.037 A 
HETATM   10  C   UNL     1      43.424 -18.947   1.858  1.00  0.00     0.070 C 
HETATM   11  H   UNL     1      44.571 -19.707   4.018  1.00  0.00     0.184 HD
ENDROOT
BRANCH   1  12
HETATM   12  C   UNL     1      41.345 -16.915   2.471  1.00  0.00     0.256 C 
HETATM   13  N   UNL     1      42.119 -16.045   1.736  1.00  0.00    -0.323 N 
HETATM   14  H   UNL     1      43.062 -15.879   2.054  1.00  0.00     0.169 HD
HETATM   15  O   UNL     1      40.157 -17.172   2.338  1.00  0.00    -0.267 OA
BRANCH  13  16
HETATM   16  C   UNL     1      41.730 -15.317   0.583  1.00  0.00     0.041 A 
HETATM   17  C   UNL     1      41.739 -13.904   0.634  1.00  0.00    -0.035 A 
HETATM   18  C   UNL     1      42.150 -13.139   1.865  1.00  0.00     0.050 C 
HETATM   19  C   UNL     1      41.367 -13.169  -0.507  1.00  0.00     0.009 A 
HETATM   20  C   UNL     1      40.990 -13.814  -1.682  1.00  0.00     0.001 A 
HETATM   21  C   UNL     1      40.985 -15.202  -1.734  1.00  0.00     0.002 A 
HETATM   22  C   UNL     1      41.353 -15.946  -0.609  1.00  0.00     0.030 A 
ENDBRANCH  13  16
ENDBRANCH   1  12
BRANCH   2  23
HETATM   23  C   UNL     1      41.851 -15.651   5.192  1.00  0.00    -0.011 A 
HETATM   24  C   UNL     1      43.060 -14.958   5.111  1.00  0.00     0.125 A 
HETATM   25  N   UNL     1      43.190 -13.628   5.302  1.00  0.00    -0.272 NA
HETATM   26  C   UNL     1      42.062 -12.940   5.575  1.00  0.00     0.116 A 
HETATM   27  C   UNL     1      40.809 -13.522   5.657  1.00  0.00     0.020 A 
HETATM   28  C   UNL     1      40.703 -14.896   5.459  1.00  0.00     0.012 A 
ENDBRANCH   2  23
TORSDOF 3
ENDMDL
MODEL 5
REMARK VINA RESULT:      -7.6      2.525      4.516
REMARK  3 active torsions:
REMARK  status: ('A' for Active; 'I' for Inactive)
REMARK    1  A    between atoms: C_3  and  N_4 
REMARK       I    between atoms: N_4  and  C_5 
REMARK    2  A    between atoms: C_5  and  C_6 
REMARK    3  A    between atoms: C_7  and  C_8 
ROOT
HETATM    1  C   UNL     1      41.840 -15.446   2.406  1.00  0.00     0.062 A 
HETATM    2  C   UNL     1      42.196 -13.964   2.462  1.00  0.00     0.199 A 
HETATM    3  N   UNL     1      42.094 -13.349   1.140  1.00  0.00    -0.092 N 
HETATM    4  C   UNL     1      41.762 -14.018  -0.005  1.00  0.00     0.735 A 
HETATM    5  N   UNL     1      41.452 -15.328   0.065  1.00  0.00    -0.191 N 
HETATM    6  N   UNL     1      42.487 -12.100   0.848  1.00  0.00     0.012 NA
HETATM    7  N   UNL     1      42.299 -11.990  -0.464  1.00  0.00     0.033 NA
HETATM    8  N   UNL     1      41.853 -13.181  -1.008  1.00  0.00     0.030 NA
HETATM    9  C   UNL     1      41.480 -16.056   1.250  1.00  0.00     0.037 A 
HETATM   10  C   UNL     1      41.107 -17.514   1.135  1.00  0.00     0.070 C 
HETATM   11  H   UNL     1      41.187 -15.820  -0.785  1.00  0.00     0.184 HD
ENDROOT
BRANCH   1  12
HETATM   12  C   UNL     1      41.785 -16.176   3.699  1.00  0.00     0.256 C 
HETATM   13  N   UNL     1      43.034 -16.429   4.221  1.00  0.00    -0.323 N 
HETATM   14  H   UNL     1      43.833 -16.198   3.650  1.00  0.00     0.169 HD
HETATM   15  O   UNL     1      40.694 -16.478   4.161  1.00  0.00    -0.267 OA
BRANCH  13  16
HETATM   16  C   UNL     1      43.335 -17.016   5.477  1.00  0.00     0.041 A 
HETATM   17  C   UNL     1      43.883 -18.319   5.507  1.00  0.00    -0.035 A 
HETATM   18  C   UNL     1      44.164 -19.109   4.256  1.00  0.00     0.050 C 
HETATM   19  C   UNL     1      44.197 -18.908   6.745  1.00  0.00     0.009 A 
HETATM   20  C   UNL     1      43.976 -18.226   7.939  1.00  0.00     0.001 A 
HETATM   21  C   UNL     1      43.441 -16.945   7.910  1.00  0.00     0.002 A 
HETATM   22  C   UNL     1      43.125 -16.346   6.688  1.00  0.00     0.030 A 
ENDBRANCH  13  16
ENDBRANCH   1  12
BRANCH   2  23
HETATM   23  C   UNL     1      41.397 -13.167   3.474  1.00  0.00    -0.011 A 
HETATM   24  C   UNL     1      42.043 -12.572   4.558  1.00  0.00     0.125 A 
HETATM   25  N   UNL     1      41.418 -11.862   5.521  1.00  0.00    -0.272 NA
HETATM   26  C   UNL     1      40.081 -11.720   5.401  1.00  0.00     0.116 A 
HETATM   27  C   UNL     1      39.345 -12.250   4.357  1.00  0.00     0.020 A 
HETATM   28  C   UNL     1      40.014 -12.981   3.379  1.00  0.00     0.012 A 
ENDBRANCH   2  23
TORSDOF 3
ENDMDL
MODEL 6
REMARK VINA RESULT:      -7.5      2.024      3.962
REMARK  3 active torsions:
REMARK  status: ('A' for Active; 'I' for Inactive)
REMARK    1  A    between atoms: C_3  and  N_4 
REMARK       I    between atoms: N_4  and  C_5 
REMARK    2  A    between atoms: C_5  and  C_6 
REMARK    3  A    between atoms: C_7  and  C_8 
ROOT
HETATM    1  C   UNL     1      41.017 -14.879   2.458  1.00  0.00     0.062 A 
HETATM    2  C   UNL     1      40.536 -13.439   2.600  1.00  0.00     0.199 A 
HETATM    3  N   UNL     1      39.219 -13.263   1.992  1.00  0.00    -0.092 N 
HETATM    4  C   UNL     1      38.524 -14.247   1.346  1.00  0.00     0.735 A 
HETATM    5  N   UNL     1      39.039 -15.491   1.292  1.00  0.00    -0.191 N 
HETATM    6  N   UNL     1      38.606 -12.081   1.828  1.00  0.00     0.012 NA
HETATM    7  N   UNL     1      37.492 -12.373   1.165  1.00  0.00     0.033 NA
HETATM    8  N   UNL     1      37.431 -13.719   0.852  1.00  0.00     0.030 NA
HETATM    9  C   UNL     1      40.273 -15.829   1.840  1.00  0.00     0.037 A 
HETATM   10  C   UNL     1      40.691 -17.270   1.680  1.00  0.00     0.070 C 
HETATM   11  H   UNL     1      38.512 -16.227   0.828  1.00  0.00     0.184 HD
ENDROOT
BRANCH   1  12
HETATM   12  C   UNL     1      42.292 -15.234   3.134  1.00  0.00     0.256 C 
HETATM   13  N   UNL     1      42.114 -16.106   4.185  1.00  0.00    -0.323 N 
HETATM   14  H   UNL     1      41.166 -16.327   4.449  1.00  0.00     0.169 HD
HETATM   15  O   UNL     1      43.335 -14.744   2.723  1.00  0.00    -0.267 OA
BRANCH  13  16
HETATM   16  C   UNL     1      43.122 -16.716   4.973  1.00  0.00     0.041 A 
HETATM   17  C   UNL     1      43.637 -17.970   4.570  1.00  0.00    -0.035 A 
HETATM   18  C   UNL     1      43.159 -18.683   3.333  1.00  0.00     0.050 C 
HETATM   19  C   UNL     1      44.647 -18.580   5.337  1.00  0.00     0.009 A 
HETATM   20  C   UNL     1      45.144 -17.968   6.485  1.00  0.00     0.001 A 
HETATM   21  C   UNL     1      44.641 -16.736   6.879  1.00  0.00     0.002 A 
HETATM   22  C   UNL     1      43.639 -16.115   6.127  1.00  0.00     0.030 A 
ENDBRANCH  13  16
ENDBRANCH   1  12
BRANCH   2  23
HETATM   23  C   UNL     1      40.530 -12.919   4.024  1.00  0.00    -0.011 A 
HETATM   24  C   UNL     1      41.365 -11.861   4.382  1.00  0.00     0.125 A 
HETATM   25  N   UNL     1      41.447 -11.342   5.626  1.00  0.00    -0.272 NA
HETATM   26  C   UNL     1      40.650 -11.890   6.567  1.00  0.00     0.116 A 
HETATM   27  C   UNL     1      39.770 -12.928   6.316  1.00  0.00     0.020 A 
HETATM   28  C   UNL     1      39.707 -13.446   5.025  1.00  0.00     0.012 A 
ENDBRANCH   2  23
TORSDOF 3
ENDMDL
MODEL 7
REMARK VINA RESULT:      -7.4      2.272      6.021
REMARK  3 active torsions:
REMARK  status: ('A' for Active; 'I' for Inactive)
REMARK    1  A    between atoms: C_3  and  N_4 
REMARK       I    between atoms: N_4  and  C_5 
REMARK    2  A    between atoms: C_5  and  C_6 
REMARK    3  A    between atoms: C_7  and  C_8 
ROOT
HETATM    1  C   UNL     1      41.880 -15.031   4.443  1.00  0.00     0.062 A 
HETATM    2  C   UNL     1      43.128 -15.907   4.461  1.00  0.00     0.199 A 
HETATM    3  N   UNL     1      43.242 -16.631   5.726  1.00  0.00    -0.092 N 
HETATM    4  C   UNL     1      42.369 -16.512   6.771  1.00  0.00     0.735 A 
HETATM    5  N   UNL     1      41.289 -15.717   6.640  1.00  0.00    -0.191 N 
HETATM    6  N   UNL     1      44.307 -17.360   6.093  1.00  0.00     0.012 NA
HETATM    7  N   UNL     1      44.026 -17.758   7.330  1.00  0.00     0.033 NA
HETATM    8  N   UNL     1      42.824 -17.232   7.767  1.00  0.00     0.030 NA
HETATM    9  C   UNL     1      41.023 -14.975   5.493  1.00  0.00     0.037 A 
HETATM   10  C   UNL     1      39.769 -14.137   5.528  1.00  0.00     0.070 C 
HETATM   11  H   UNL     1      40.631 -15.644   7.412  1.00  0.00     0.184 HD
ENDROOT
BRANCH   1  12
HETATM   12  C   UNL     1      41.570 -14.324   3.173  1.00  0.00     0.256 C 
HETATM   13  N   UNL     1      40.405 -14.768   2.586  1.00  0.00    -0.323 N 
HETATM   14  H   UNL     1      39.951 -15.567   3.002  1.00  0.00     0.169 HD
HETATM   15  O   UNL     1      42.337 -13.458   2.776  1.00  0.00    -0.267 OA
BRANCH  13  16
HETATM   16  C   UNL     1      39.776 -14.245   1.428  1.00  0.00     0.041 A 
HETATM   17  C   UNL     1      40.214 -14.683   0.157  1.00  0.00    -0.035 A 
HETATM   18  C   UNL     1      41.321 -15.689  -0.016  1.00  0.00     0.050 C 
HETATM   19  C   UNL     1      39.589 -14.182  -1.000  1.00  0.00     0.009 A 
HETATM   20  C   UNL     1      38.549 -13.260  -0.909  1.00  0.00     0.001 A 
HETATM   21  C   UNL     1      38.117 -12.832   0.338  1.00  0.00     0.002 A 
HETATM   22  C   UNL     1      38.725 -13.322   1.497  1.00  0.00     0.030 A 
ENDBRANCH  13  16
ENDBRANCH   1  12
BRANCH   2  23
HETATM   23  C   UNL     1      43.234 -16.868   3.294  1.00  0.00    -0.011 A 
HETATM   24  C   UNL     1      42.460 -18.028   3.275  1.00  0.00     0.125 A 
HETATM   25  N   UNL     1      42.499 -18.954   2.293  1.00  0.00    -0.272 NA
HETATM   26  C   UNL     1      43.340 -18.715   1.265  1.00  0.00     0.116 A 
HETATM   27  C   UNL     1      44.137 -17.588   1.173  1.00  0.00     0.020 A 
HETATM   28  C   UNL     1      44.079 -16.650   2.201  1.00  0.00     0.012 A 
ENDBRANCH   2  23
TORSDOF 3
ENDMDL
MODEL 8
REMARK VINA RESULT:      -7.0      2.111      3.825
REMARK  3 active torsions:
REMARK  status: ('A' for Active; 'I' for Inactive)
REMARK    1  A    between atoms: C_3  and  N_4 
REMARK       I    between atoms: N_4  and  C_5 
REMARK    2  A    between atoms: C_5  and  C_6 
REMARK    3  A    between atoms: C_7  and  C_8 
ROOT
HETATM    1  C   UNL     1      41.695 -15.177   1.920  1.00  0.00     0.062 A 
HETATM    2  C   UNL     1      41.403 -13.700   2.164  1.00  0.00     0.199 A 
HETATM    3  N   UNL     1      40.331 -13.226   1.292  1.00  0.00    -0.092 N 
HETATM    4  C   UNL     1      39.696 -13.992   0.354  1.00  0.00     0.735 A 
HETATM    5  N   UNL     1      40.025 -15.293   0.233  1.00  0.00    -0.191 N 
HETATM    6  N   UNL     1      39.957 -11.943   1.172  1.00  0.00     0.012 NA
HETATM    7  N   UNL     1      39.026 -11.955   0.223  1.00  0.00     0.033 NA
HETATM    8  N   UNL     1      38.858 -13.225  -0.300  1.00  0.00     0.030 NA
HETATM    9  C   UNL     1      41.011 -15.904   1.002  1.00  0.00     0.037 A 
HETATM   10  C   UNL     1      41.247 -17.368   0.725  1.00  0.00     0.070 C 
HETATM   11  H   UNL     1      39.539 -15.865  -0.453  1.00  0.00     0.184 HD
ENDROOT
BRANCH   1  12
HETATM   12  C   UNL     1      42.684 -15.827   2.819  1.00  0.00     0.256 C 
HETATM   13  N   UNL     1      42.117 -16.780   3.636  1.00  0.00    -0.323 N 
HETATM   14  H   UNL     1      41.111 -16.866   3.621  1.00  0.00     0.169 HD
HETATM   15  O   UNL     1      43.854 -15.476   2.762  1.00  0.00    -0.267 OA
BRANCH  13  16
HETATM   16  C   UNL     1      42.787 -17.647   4.535  1.00  0.00     0.041 A 
HETATM   17  C   UNL     1      42.668 -17.413   5.925  1.00  0.00    -0.035 A 
HETATM   18  C   UNL     1      41.853 -16.280   6.489  1.00  0.00     0.050 C 
HETATM   19  C   UNL     1      43.319 -18.273   6.828  1.00  0.00     0.009 A 
HETATM   20  C   UNL     1      44.078 -19.349   6.373  1.00  0.00     0.001 A 
HETATM   21  C   UNL     1      44.192 -19.580   5.009  1.00  0.00     0.002 A 
HETATM   22  C   UNL     1      43.551 -18.736   4.099  1.00  0.00     0.030 A 
ENDBRANCH  13  16
ENDBRANCH   1  12
BRANCH   2  23
HETATM   23  C   UNL     1      41.099 -13.353   3.607  1.00  0.00    -0.011 A 
HETATM   24  C   UNL     1      39.938 -13.838   4.210  1.00  0.00     0.125 A 
HETATM   25  N   UNL     1      39.569 -13.568   5.481  1.00  0.00    -0.272 NA
HETATM   26  C   UNL     1      40.400 -12.786   6.202  1.00  0.00     0.116 A 
HETATM   27  C   UNL     1      41.585 -12.269   5.710  1.00  0.00     0.020 A 
HETATM   28  C   UNL     1      41.940 -12.561   4.396  1.00  0.00     0.012 A 
ENDBRANCH   2  23
TORSDOF 3
ENDMDL
MODEL 9
REMARK VINA RESULT:      -7.0      2.444      5.833
REMARK  3 active torsions:
REMARK  status: ('A' for Active; 'I' for Inactive)
REMARK    1  A    between atoms: C_3  and  N_4 
REMARK       I    between atoms: N_4  and  C_5 
REMARK    2  A    between atoms: C_5  and  C_6 
REMARK    3  A    between atoms: C_7  and  C_8 
ROOT
HETATM    1  C   UNL     1      41.924 -17.008   3.223  1.00  0.00     0.062 A 
HETATM    2  C   UNL     1      41.793 -16.799   4.728  1.00  0.00     0.199 A 
HETATM    3  N   UNL     1      42.965 -17.313   5.433  1.00  0.00    -0.092 N 
HETATM    4  C   UNL     1      44.023 -17.934   4.832  1.00  0.00     0.735 A 
HETATM    5  N   UNL     1      44.041 -18.053   3.490  1.00  0.00    -0.191 N 
HETATM    6  N   UNL     1      43.071 -17.406   6.768  1.00  0.00     0.012 NA
HETATM    7  N   UNL     1      44.243 -18.000   6.968  1.00  0.00     0.033 NA
HETATM    8  N   UNL     1      44.844 -18.340   5.769  1.00  0.00     0.030 NA
HETATM    9  C   UNL     1      43.014 -17.597   2.670  1.00  0.00     0.037 A 
HETATM   10  C   UNL     1      43.204 -17.821   1.191  1.00  0.00     0.070 C 
HETATM   11  H   UNL     1      44.839 -18.499   3.043  1.00  0.00     0.184 HD
ENDROOT
BRANCH   1  12
HETATM   12  C   UNL     1      40.858 -16.428   2.365  1.00  0.00     0.256 C 
HETATM   13  N   UNL     1      41.149 -15.150   1.943  1.00  0.00    -0.323 N 
HETATM   14  H   UNL     1      41.973 -14.710   2.326  1.00  0.00     0.169 HD
HETATM   15  O   UNL     1      39.864 -17.099   2.124  1.00  0.00    -0.267 OA
BRANCH  13  16
HETATM   16  C   UNL     1      40.399 -14.352   1.043  1.00  0.00     0.041 A 
HETATM   17  C   UNL     1      40.485 -14.624  -0.342  1.00  0.00    -0.035 A 
HETATM   18  C   UNL     1      41.340 -15.731  -0.900  1.00  0.00     0.050 C 
HETATM   19  C   UNL     1      39.736 -13.848  -1.246  1.00  0.00     0.009 A 
HETATM   20  C   UNL     1      38.914 -12.818  -0.796  1.00  0.00     0.001 A 
HETATM   21  C   UNL     1      38.827 -12.553   0.564  1.00  0.00     0.002 A 
HETATM   22  C   UNL     1      39.563 -13.316   1.475  1.00  0.00     0.030 A 
ENDBRANCH  13  16
ENDBRANCH   1  12
BRANCH   2  23
HETATM   23  C   UNL     1      41.519 -15.366   5.138  1.00  0.00    -0.011 A 
HETATM   24  C   UNL     1      42.546 -14.422   5.099  1.00  0.00     0.125 A 
HETATM   25  N   UNL     1      42.407 -13.130   5.464  1.00  0.00    -0.272 NA
HETATM   26  C   UNL     1      41.183 -12.743   5.879  1.00  0.00     0.116 A 
HETATM   27  C   UNL     1      40.090 -13.590   5.937  1.00  0.00     0.020 A 
HETATM   28  C   UNL     1      40.261 -14.919   5.557  1.00  0.00     0.012 A 
ENDBRANCH   2  23
TORSDOF 3
ENDMDL
MODEL 10
REMARK VINA RESULT:      -7.0      2.664      4.979
REMARK  3 active torsions:
REMARK  status: ('A' for Active; 'I' for Inactive)
REMARK    1  A    between atoms: C_3  and  N_4 
REMARK       I    between atoms: N_4  and  C_5 
REMARK    2  A    between atoms: C_5  and  C_6 
REMARK    3  A    between atoms: C_7  and  C_8 
ROOT
HETATM    1  C   UNL     1      41.668 -15.378   2.247  1.00  0.00     0.062 A 
HETATM    2  C   UNL     1      41.994 -13.893   2.125  1.00  0.00     0.199 A 
HETATM    3  N   UNL     1      41.922 -13.453   0.733  1.00  0.00    -0.092 N 
HETATM    4  C   UNL     1      41.640 -14.269  -0.327  1.00  0.00     0.735 A 
HETATM    5  N   UNL     1      41.353 -15.567  -0.101  1.00  0.00    -0.191 N 
HETATM    6  N   UNL     1      42.300 -12.242   0.296  1.00  0.00     0.012 NA
HETATM    7  N   UNL     1      42.153 -12.304  -1.024  1.00  0.00     0.033 NA
HETATM    8  N   UNL     1      41.747 -13.564  -1.426  1.00  0.00     0.030 NA
HETATM    9  C   UNL     1      41.357 -16.139   1.168  1.00  0.00     0.037 A 
HETATM   10  C   UNL     1      41.017 -17.607   1.228  1.00  0.00     0.070 C 
HETATM   11  H   UNL     1      41.125 -16.168  -0.889  1.00  0.00     0.184 HD
ENDROOT
BRANCH   1  12
HETATM   12  C   UNL     1      41.587 -15.940   3.620  1.00  0.00     0.256 C 
HETATM   13  N   UNL     1      42.795 -16.423   4.071  1.00  0.00    -0.323 N 
HETATM   14  H   UNL     1      43.561 -16.444   3.415  1.00  0.00     0.169 HD
HETATM   15  O   UNL     1      40.509 -15.931   4.199  1.00  0.00    -0.267 OA
BRANCH  13  16
HETATM   16  C   UNL     1      43.086 -16.933   5.362  1.00  0.00     0.041 A 
HETATM   17  C   UNL     1      43.454 -16.028   6.385  1.00  0.00    -0.035 A 
HETATM   18  C   UNL     1      43.545 -14.542   6.159  1.00  0.00     0.050 C 
HETATM   19  C   UNL     1      43.734 -16.519   7.673  1.00  0.00     0.009 A 
HETATM   20  C   UNL     1      43.655 -17.881   7.954  1.00  0.00     0.001 A 
HETATM   21  C   UNL     1      43.291 -18.769   6.951  1.00  0.00     0.002 A 
HETATM   22  C   UNL     1      43.008 -18.297   5.666  1.00  0.00     0.030 A 
ENDBRANCH  13  16
ENDBRANCH   1  12
BRANCH   2  23
HETATM   23  C   UNL     1      41.148 -12.994   3.003  1.00  0.00    -0.011 A 
HETATM   24  C   UNL     1      39.769 -12.926   2.808  1.00  0.00     0.125 A 
HETATM   25  N   UNL     1      38.935 -12.141   3.524  1.00  0.00    -0.272 NA
HETATM   26  C   UNL     1      39.493 -11.390   4.496  1.00  0.00     0.116 A 
HETATM   27  C   UNL     1      40.845 -11.396   4.789  1.00  0.00     0.020 A 
HETATM   28  C   UNL     1      41.683 -12.212   4.034  1.00  0.00     0.012 A 
ENDBRANCH   2  23
TORSDOF 3
ENDMDL
