MODEL 1
REMARK VINA RESULT:      -8.9      0.000      0.000
REMARK  6 active torsions:
REMARK  status: ('A' for Active; 'I' for Inactive)
REMARK    1  A    between atoms: C_2  and  C_3 
REMARK    2  A    between atoms: C_7  and  N_8 
REMARK       I    between atoms: N_8  and  C_9 
REMARK    3  A    between atoms: C_9  and  C_10 
REMARK    4  A    between atoms: C_11  and  C_12 
REMARK    5  A    between atoms: C_14  and  O_15 
REMARK    6  A    between atoms: C_17  and  O_18 
ROOT
HETATM    1  N   UNL     1      42.818 -16.917   2.884  1.00  0.00    -0.322 N 
HETATM    2  C   UNL     1      41.451 -16.698   2.851  1.00  0.00     0.245 C 
HETATM    3  O   UNL     1      40.604 -17.246   3.543  1.00  0.00    -0.268 OA
HETATM    4  H   UNL     1      43.308 -16.651   2.043  1.00  0.00     0.169 HD
ENDROOT
BRANCH   1   5
HETATM    5  C   UNL     1      43.442 -17.910   3.700  1.00  0.00     0.055 C 
HETATM    6  C   UNL     1      43.710 -19.228   3.229  1.00  0.00     0.020 A 
HETATM    7  C   UNL     1      44.474 -20.056   4.069  1.00  0.00     0.069 A 
HETATM    8  C   UNL     1      43.223 -19.796   2.019  1.00  0.00     0.016 A 
HETATM    9  N   UNL     1      44.916 -19.665   5.270  1.00  0.00    -0.252 NA
HETATM   10  C   UNL     1      44.785 -21.349   3.667  1.00  0.00     0.032 A 
HETATM   11  C   UNL     1      44.598 -18.439   5.741  1.00  0.00     0.043 C 
HETATM   12  C   UNL     1      43.799 -17.542   5.019  1.00  0.00    -0.010 C 
HETATM   13  C   UNL     1      43.426 -16.203   5.596  1.00  0.00     0.052 C 
HETATM   14  C   UNL     1      44.334 -21.877   2.457  1.00  0.00     0.002 A 
HETATM   15  C   UNL     1      43.538 -21.099   1.634  1.00  0.00     0.001 A 
BRANCH  11  16
HETATM   16  C   UNL     1      45.151 -18.095   7.109  1.00  0.00     0.055 C 
HETATM   17  C   UNL     1      44.306 -18.589   8.280  1.00  0.00     0.011 C 
ENDBRANCH  11  16
ENDBRANCH   1   5
BRANCH   2  18
HETATM   18  C   UNL     1      41.059 -15.749   1.768  1.00  0.00     0.075 C 
HETATM   19  C   UNL     1      41.698 -15.820   0.589  1.00  0.00     0.017 C 
BRANCH  19  20
HETATM   20  C   UNL     1      41.464 -14.952  -0.574  1.00  0.00    -0.033 A 
HETATM   21  C   UNL     1      40.980 -15.541  -1.755  1.00  0.00     0.051 A 
HETATM   22  C   UNL     1      40.810 -14.789  -2.924  1.00  0.00     0.102 A 
HETATM   23  C   UNL     1      41.140 -13.424  -2.909  1.00  0.00     0.101 A 
HETATM   24  C   UNL     1      41.604 -12.825  -1.735  1.00  0.00     0.040 A 
HETATM   25  C   UNL     1      41.778 -13.589  -0.578  1.00  0.00     0.014 A 
BRANCH  22  26
HETATM   26  O   UNL     1      40.352 -15.288  -4.116  1.00  0.00    -0.353 OA
HETATM   27  C   UNL     1      39.106 -15.970  -4.107  1.00  0.00     0.210 C 
ENDBRANCH  22  26
BRANCH  23  28
HETATM   28  O   UNL     1      40.942 -12.703  -4.060  1.00  0.00    -0.353 OA
HETATM   29  C   UNL     1      41.913 -11.679  -4.261  1.00  0.00     0.210 C 
ENDBRANCH  23  28
ENDBRANCH  19  20
ENDBRANCH   2  18
TORSDOF 6
ENDMDL
MODEL 2
REMARK VINA RESULT:      -8.6      1.768      2.387
REMARK  6 active torsions:
REMARK  status: ('A' for Active; 'I' for Inactive)
REMARK    1  A    between atoms: C_2  and  C_3 
REMARK    2  A    between atoms: C_7  and  N_8 
REMARK       I    between atoms: N_8  and  C_9 
REMARK    3  A    between atoms: C_9  and  C_10 
REMARK    4  A    between atoms: C_11  and  C_12 
REMARK    5  A    between atoms: C_14  and  O_15 
REMARK    6  A    between atoms: C_17  and  O_18 
ROOT
HETATM    1  N   UNL     1      42.591 -17.563   2.499  1.00  0.00    -0.322 N 
HETATM    2  C   UNL     1      43.227 -16.812   1.525  1.00  0.00     0.245 C 
HETATM    3  O   UNL     1      44.425 -16.797   1.277  1.00  0.00    -0.268 OA
HETATM    4  H   UNL     1      41.692 -17.207   2.786  1.00  0.00     0.169 HD
ENDROOT
BRANCH   1   5
HETATM    5  C   UNL     1      43.280 -18.390   3.438  1.00  0.00     0.055 C 
HETATM    6  C   UNL     1      43.689 -19.720   3.130  1.00  0.00     0.020 A 
HETATM    7  C   UNL     1      44.501 -20.367   4.077  1.00  0.00     0.069 A 
HETATM    8  C   UNL     1      43.298 -20.468   1.984  1.00  0.00     0.016 A 
HETATM    9  N   UNL     1      44.865 -19.800   5.233  1.00  0.00    -0.252 NA
HETATM   10  C   UNL     1      44.947 -21.661   3.835  1.00  0.00     0.032 A 
HETATM   11  C   UNL     1      44.416 -18.565   5.551  1.00  0.00     0.043 C 
HETATM   12  C   UNL     1      43.557 -17.841   4.712  1.00  0.00    -0.010 C 
HETATM   13  C   UNL     1      43.039 -16.488   5.121  1.00  0.00     0.052 C 
HETATM   14  C   UNL     1      44.589 -22.365   2.686  1.00  0.00     0.002 A 
HETATM   15  C   UNL     1      43.749 -21.769   1.761  1.00  0.00     0.001 A 
BRANCH  11  16
HETATM   16  C   UNL     1      44.888 -18.015   6.881  1.00  0.00     0.055 C 
HETATM   17  C   UNL     1      44.153 -18.569   8.098  1.00  0.00     0.011 C 
ENDBRANCH  11  16
ENDBRANCH   1   5
BRANCH   2  18
HETATM   18  C   UNL     1      42.286 -15.891   0.821  1.00  0.00     0.075 C 
HETATM   19  C   UNL     1      41.835 -16.240  -0.395  1.00  0.00     0.017 C 
BRANCH  19  20
HETATM   20  C   UNL     1      40.931 -15.447  -1.241  1.00  0.00    -0.033 A 
HETATM   21  C   UNL     1      40.146 -14.455  -0.626  1.00  0.00     0.051 A 
HETATM   22  C   UNL     1      39.207 -13.718  -1.357  1.00  0.00     0.102 A 
HETATM   23  C   UNL     1      39.047 -13.987  -2.725  1.00  0.00     0.101 A 
HETATM   24  C   UNL     1      39.835 -14.957  -3.350  1.00  0.00     0.040 A 
HETATM   25  C   UNL     1      40.762 -15.692  -2.607  1.00  0.00     0.014 A 
BRANCH  22  26
HETATM   26  O   UNL     1      38.398 -12.743  -0.832  1.00  0.00    -0.353 OA
HETATM   27  C   UNL     1      39.023 -11.558  -0.358  1.00  0.00     0.210 C 
ENDBRANCH  22  26
BRANCH  23  28
HETATM   28  O   UNL     1      38.136 -13.235  -3.426  1.00  0.00    -0.353 OA
HETATM   29  C   UNL     1      37.035 -13.992  -3.920  1.00  0.00     0.210 C 
ENDBRANCH  23  28
ENDBRANCH  19  20
ENDBRANCH   2  18
TORSDOF 6
ENDMDL
MODEL 3
REMARK VINA RESULT:      -8.5      2.299      2.712
REMARK  6 active torsions:
REMARK  status: ('A' for Active; 'I' for Inactive)
REMARK    1  A    between atoms: C_2  and  C_3 
REMARK    2  A    between atoms: C_7  and  N_8 
REMARK       I    between atoms: N_8  and  C_9 
REMARK    3  A    between atoms: C_9  and  C_10 
REMARK    4  A    between atoms: C_11  and  C_12 
REMARK    5  A    between atoms: C_14  and  O_15 
REMARK    6  A    between atoms: C_17  and  O_18 
ROOT
HETATM    1  N   UNL     1      42.421 -17.579   2.382  1.00  0.00    -0.322 N 
HETATM    2  C   UNL     1      43.021 -16.827   1.386  1.00  0.00     0.245 C 
HETATM    3  O   UNL     1      44.216 -16.770   1.130  1.00  0.00    -0.268 OA
HETATM    4  H   UNL     1      41.511 -17.252   2.668  1.00  0.00     0.169 HD
ENDROOT
BRANCH   1   5
HETATM    5  C   UNL     1      43.149 -18.354   3.336  1.00  0.00     0.055 C 
HETATM    6  C   UNL     1      43.609 -19.674   3.058  1.00  0.00     0.020 A 
HETATM    7  C   UNL     1      44.452 -20.265   4.015  1.00  0.00     0.069 A 
HETATM    8  C   UNL     1      43.241 -20.465   1.934  1.00  0.00     0.016 A 
HETATM    9  N   UNL     1      44.800 -19.655   5.154  1.00  0.00    -0.252 NA
HETATM   10  C   UNL     1      44.948 -21.545   3.801  1.00  0.00     0.032 A 
HETATM   11  C   UNL     1      44.304 -18.432   5.445  1.00  0.00     0.043 C 
HETATM   12  C   UNL     1      43.412 -17.763   4.595  1.00  0.00    -0.010 C 
HETATM   13  C   UNL     1      42.843 -16.422   4.974  1.00  0.00     0.052 C 
HETATM   14  C   UNL     1      44.611 -22.291   2.672  1.00  0.00     0.002 A 
HETATM   15  C   UNL     1      43.742 -21.752   1.739  1.00  0.00     0.001 A 
BRANCH  11  16
HETATM   16  C   UNL     1      44.762 -17.830   6.758  1.00  0.00     0.055 C 
HETATM   17  C   UNL     1      44.209 -18.519   8.002  1.00  0.00     0.011 C 
ENDBRANCH  11  16
ENDBRANCH   1   5
BRANCH   2  18
HETATM   18  C   UNL     1      42.040 -15.962   0.667  1.00  0.00     0.075 C 
HETATM   19  C   UNL     1      40.930 -15.572   1.316  1.00  0.00     0.017 C 
BRANCH  19  20
HETATM   20  C   UNL     1      39.849 -14.747   0.758  1.00  0.00    -0.033 A 
HETATM   21  C   UNL     1      40.098 -14.042  -0.432  1.00  0.00     0.051 A 
HETATM   22  C   UNL     1      39.141 -13.176  -0.975  1.00  0.00     0.102 A 
HETATM   23  C   UNL     1      37.917 -13.010  -0.308  1.00  0.00     0.101 A 
HETATM   24  C   UNL     1      37.652 -13.720   0.865  1.00  0.00     0.040 A 
HETATM   25  C   UNL     1      38.619 -14.574   1.402  1.00  0.00     0.014 A 
BRANCH  22  26
HETATM   26  O   UNL     1      39.309 -12.446  -2.124  1.00  0.00    -0.353 OA
HETATM   27  C   UNL     1      40.010 -13.062  -3.196  1.00  0.00     0.210 C 
ENDBRANCH  22  26
BRANCH  23  28
HETATM   28  O   UNL     1      36.986 -12.173  -0.873  1.00  0.00    -0.353 OA
HETATM   29  C   UNL     1      36.240 -11.426   0.084  1.00  0.00     0.210 C 
ENDBRANCH  23  28
ENDBRANCH  19  20
ENDBRANCH   2  18
TORSDOF 6
ENDMDL
MODEL 4
REMARK VINA RESULT:      -8.5      1.254      2.206
REMARK  6 active torsions:
REMARK  status: ('A' for Active; 'I' for Inactive)
REMARK    1  A    between atoms: C_2  and  C_3 
REMARK    2  A    between atoms: C_7  and  N_8 
REMARK       I    between atoms: N_8  and  C_9 
REMARK    3  A    between atoms: C_9  and  C_10 
REMARK    4  A    between atoms: C_11  and  C_12 
REMARK    5  A    between atoms: C_14  and  O_15 
REMARK    6  A    between atoms: C_17  and  O_18 
ROOT
HETATM    1  N   UNL     1      43.035 -17.236   1.877  1.00  0.00    -0.322 N 
HETATM    2  C   UNL     1      41.705 -17.067   1.529  1.00  0.00     0.245 C 
HETATM    3  O   UNL     1      40.729 -17.464   2.149  1.00  0.00    -0.268 OA
HETATM    4  H   UNL     1      43.685 -17.157   1.110  1.00  0.00     0.169 HD
ENDROOT
BRANCH   1   5
HETATM    5  C   UNL     1      43.468 -17.999   3.005  1.00  0.00     0.055 C 
HETATM    6  C   UNL     1      43.778 -19.387   2.915  1.00  0.00     0.020 A 
HETATM    7  C   UNL     1      44.348 -19.981   4.054  1.00  0.00     0.069 A 
HETATM    8  C   UNL     1      43.504 -20.232   1.804  1.00  0.00     0.016 A 
HETATM    9  N   UNL     1      44.575 -19.311   5.190  1.00  0.00    -0.252 NA
HETATM   10  C   UNL     1      44.689 -21.329   4.032  1.00  0.00     0.032 A 
HETATM   11  C   UNL     1      44.213 -18.013   5.291  1.00  0.00     0.043 C 
HETATM   12  C   UNL     1      43.588 -17.324   4.243  1.00  0.00    -0.010 C 
HETATM   13  C   UNL     1      43.156 -15.891   4.409  1.00  0.00     0.052 C 
HETATM   14  C   UNL     1      44.452 -22.134   2.918  1.00  0.00     0.002 A 
HETATM   15  C   UNL     1      43.845 -21.584   1.802  1.00  0.00     0.001 A 
BRANCH  11  16
HETATM   16  C   UNL     1      44.515 -17.347   6.618  1.00  0.00     0.055 C 
HETATM   17  C   UNL     1      43.506 -17.643   7.724  1.00  0.00     0.011 C 
ENDBRANCH  11  16
ENDBRANCH   1   5
BRANCH   2  18
HETATM   18  C   UNL     1      41.552 -16.402   0.202  1.00  0.00     0.075 C 
HETATM   19  C   UNL     1      41.693 -15.068   0.131  1.00  0.00     0.017 C 
BRANCH  19  20
HETATM   20  C   UNL     1      41.549 -14.247  -1.080  1.00  0.00    -0.033 A 
HETATM   21  C   UNL     1      42.047 -12.933  -1.054  1.00  0.00     0.051 A 
HETATM   22  C   UNL     1      41.873 -12.070  -2.143  1.00  0.00     0.102 A 
HETATM   23  C   UNL     1      41.182 -12.533  -3.274  1.00  0.00     0.101 A 
HETATM   24  C   UNL     1      40.701 -13.844  -3.318  1.00  0.00     0.040 A 
HETATM   25  C   UNL     1      40.872 -14.691  -2.221  1.00  0.00     0.014 A 
BRANCH  22  26
HETATM   26  O   UNL     1      42.318 -10.774  -2.194  1.00  0.00    -0.353 OA
HETATM   27  C   UNL     1      43.364 -10.405  -1.305  1.00  0.00     0.210 C 
ENDBRANCH  22  26
BRANCH  23  28
HETATM   28  O   UNL     1      41.045 -11.676  -4.339  1.00  0.00    -0.353 OA
HETATM   29  C   UNL     1      39.747 -11.097  -4.438  1.00  0.00     0.210 C 
ENDBRANCH  23  28
ENDBRANCH  19  20
ENDBRANCH   2  18
TORSDOF 6
ENDMDL
MODEL 5
REMARK VINA RESULT:      -8.2      1.924      3.840
REMARK  6 active torsions:
REMARK  status: ('A' for Active; 'I' for Inactive)
REMARK    1  A    between atoms: C_2  and  C_3 
REMARK    2  A    between atoms: C_7  and  N_8 
REMARK       I    between atoms: N_8  and  C_9 
REMARK    3  A    between atoms: C_9  and  C_10 
REMARK    4  A    between atoms: C_11  and  C_12 
REMARK    5  A    between atoms: C_14  and  O_15 
REMARK    6  A    between atoms: C_17  and  O_18 
ROOT
HETATM    1  N   UNL     1      42.288 -17.879   2.364  1.00  0.00    -0.322 N 
HETATM    2  C   UNL     1      42.683 -17.225   1.209  1.00  0.00     0.245 C 
HETATM    3  O   UNL     1      43.830 -16.981   0.861  1.00  0.00    -0.268 OA
HETATM    4  H   UNL     1      41.339 -17.691   2.652  1.00  0.00     0.169 HD
ENDROOT
BRANCH   1   5
HETATM    5  C   UNL     1      43.194 -18.299   3.386  1.00  0.00     0.055 C 
HETATM    6  C   UNL     1      43.502 -17.487   4.516  1.00  0.00     0.020 A 
HETATM    7  C   UNL     1      44.276 -18.081   5.528  1.00  0.00     0.069 A 
HETATM    8  C   UNL     1      43.150 -16.118   4.679  1.00  0.00     0.016 A 
HETATM    9  N   UNL     1      44.739 -19.333   5.451  1.00  0.00    -0.252 NA
HETATM   10  C   UNL     1      44.602 -17.351   6.665  1.00  0.00     0.032 A 
HETATM   11  C   UNL     1      44.503 -20.074   4.345  1.00  0.00     0.043 C 
HETATM   12  C   UNL     1      43.789 -19.575   3.247  1.00  0.00    -0.010 C 
HETATM   13  C   UNL     1      43.587 -20.413   2.012  1.00  0.00     0.052 C 
HETATM   14  C   UNL     1      44.213 -16.021   6.828  1.00  0.00     0.002 A 
HETATM   15  C   UNL     1      43.493 -15.398   5.823  1.00  0.00     0.001 A 
BRANCH  11  16
HETATM   16  C   UNL     1      45.070 -21.479   4.360  1.00  0.00     0.055 C 
HETATM   17  C   UNL     1      44.671 -22.315   5.572  1.00  0.00     0.011 C 
ENDBRANCH  11  16
ENDBRANCH   1   5
BRANCH   2  18
HETATM   18  C   UNL     1      41.519 -16.724   0.421  1.00  0.00     0.075 C 
HETATM   19  C   UNL     1      41.751 -15.897  -0.613  1.00  0.00     0.017 C 
BRANCH  19  20
HETATM   20  C   UNL     1      40.730 -15.288  -1.478  1.00  0.00    -0.033 A 
HETATM   21  C   UNL     1      39.831 -14.375  -0.901  1.00  0.00     0.051 A 
HETATM   22  C   UNL     1      38.785 -13.818  -1.647  1.00  0.00     0.102 A 
HETATM   23  C   UNL     1      38.635 -14.191  -2.992  1.00  0.00     0.101 A 
HETATM   24  C   UNL     1      39.535 -15.083  -3.580  1.00  0.00     0.040 A 
HETATM   25  C   UNL     1      40.569 -15.639  -2.822  1.00  0.00     0.014 A 
BRANCH  22  26
HETATM   26  O   UNL     1      37.862 -12.930  -1.158  1.00  0.00    -0.353 OA
HETATM   27  C   UNL     1      38.231 -12.159  -0.022  1.00  0.00     0.210 C 
ENDBRANCH  22  26
BRANCH  23  28
HETATM   28  O   UNL     1      37.616 -13.613  -3.709  1.00  0.00    -0.353 OA
HETATM   29  C   UNL     1      36.719 -14.560  -4.283  1.00  0.00     0.210 C 
ENDBRANCH  23  28
ENDBRANCH  19  20
ENDBRANCH   2  18
TORSDOF 6
ENDMDL
MODEL 6
REMARK VINA RESULT:      -7.9      3.154      9.061
REMARK  6 active torsions:
REMARK  status: ('A' for Active; 'I' for Inactive)
REMARK    1  A    between atoms: C_2  and  C_3 
REMARK    2  A    between atoms: C_7  and  N_8 
REMARK       I    between atoms: N_8  and  C_9 
REMARK    3  A    between atoms: C_9  and  C_10 
REMARK    4  A    between atoms: C_11  and  C_12 
REMARK    5  A    between atoms: C_14  and  O_15 
REMARK    6  A    between atoms: C_17  and  O_18 
ROOT
HETATM    1  N   UNL     1      40.932 -15.124   1.478  1.00  0.00    -0.322 N 
HETATM    2  C   UNL     1      42.177 -14.681   1.895  1.00  0.00     0.245 C 
HETATM    3  O   UNL     1      42.687 -13.596   1.653  1.00  0.00    -0.268 OA
HETATM    4  H   UNL     1      40.823 -16.127   1.471  1.00  0.00     0.169 HD
ENDROOT
BRANCH   1   5
HETATM    5  C   UNL     1      40.078 -14.382   0.607  1.00  0.00     0.055 C 
HETATM    6  C   UNL     1      40.088 -14.559  -0.808  1.00  0.00     0.020 A 
HETATM    7  C   UNL     1      39.088 -13.891  -1.535  1.00  0.00     0.069 A 
HETATM    8  C   UNL     1      41.053 -15.297  -1.548  1.00  0.00     0.016 A 
HETATM    9  N   UNL     1      38.176 -13.099  -0.961  1.00  0.00    -0.252 NA
HETATM   10  C   UNL     1      39.031 -14.030  -2.917  1.00  0.00     0.032 A 
HETATM   11  C   UNL     1      38.215 -12.879   0.372  1.00  0.00     0.043 C 
HETATM   12  C   UNL     1      39.196 -13.446   1.197  1.00  0.00    -0.010 C 
HETATM   13  C   UNL     1      39.236 -13.140   2.671  1.00  0.00     0.052 C 
HETATM   14  C   UNL     1      39.961 -14.793  -3.624  1.00  0.00     0.002 A 
HETATM   15  C   UNL     1      40.985 -15.419  -2.935  1.00  0.00     0.001 A 
BRANCH  11  16
HETATM   16  C   UNL     1      37.136 -11.968   0.921  1.00  0.00     0.055 C 
HETATM   17  C   UNL     1      36.232 -11.341  -0.136  1.00  0.00     0.011 C 
ENDBRANCH  11  16
ENDBRANCH   1   5
BRANCH   2  18
HETATM   18  C   UNL     1      42.934 -15.737   2.628  1.00  0.00     0.075 C 
HETATM   19  C   UNL     1      42.753 -17.020   2.274  1.00  0.00     0.017 C 
BRANCH  19  20
HETATM   20  C   UNL     1      43.390 -18.187   2.901  1.00  0.00    -0.033 A 
HETATM   21  C   UNL     1      43.755 -18.096   4.256  1.00  0.00     0.051 A 
HETATM   22  C   UNL     1      44.436 -19.139   4.895  1.00  0.00     0.102 A 
HETATM   23  C   UNL     1      44.764 -20.289   4.159  1.00  0.00     0.101 A 
HETATM   24  C   UNL     1      44.390 -20.398   2.818  1.00  0.00     0.040 A 
HETATM   25  C   UNL     1      43.718 -19.345   2.189  1.00  0.00     0.014 A 
BRANCH  22  26
HETATM   26  O   UNL     1      44.835 -19.126   6.207  1.00  0.00    -0.353 OA
HETATM   27  C   UNL     1      43.827 -19.257   7.200  1.00  0.00     0.210 C 
ENDBRANCH  22  26
BRANCH  23  28
HETATM   28  O   UNL     1      45.412 -21.308   4.814  1.00  0.00    -0.353 OA
HETATM   29  C   UNL     1      44.743 -22.562   4.715  1.00  0.00     0.210 C 
ENDBRANCH  23  28
ENDBRANCH  19  20
ENDBRANCH   2  18
TORSDOF 6
ENDMDL
MODEL 7
REMARK VINA RESULT:      -7.9      6.369     10.059
REMARK  6 active torsions:
REMARK  status: ('A' for Active; 'I' for Inactive)
REMARK    1  A    between atoms: C_2  and  C_3 
REMARK    2  A    between atoms: C_7  and  N_8 
REMARK       I    between atoms: N_8  and  C_9 
REMARK    3  A    between atoms: C_9  and  C_10 
REMARK    4  A    between atoms: C_11  and  C_12 
REMARK    5  A    between atoms: C_14  and  O_15 
REMARK    6  A    between atoms: C_17  and  O_18 
ROOT
HETATM    1  N   UNL     1      43.596 -12.491   8.870  1.00  0.00    -0.322 N 
HETATM    2  C   UNL     1      44.866 -12.516   8.319  1.00  0.00     0.245 C 
HETATM    3  O   UNL     1      45.754 -11.692   8.488  1.00  0.00    -0.268 OA
HETATM    4  H   UNL     1      42.909 -13.034   8.370  1.00  0.00     0.169 HD
ENDROOT
BRANCH   1   5
HETATM    5  C   UNL     1      43.101 -11.417   9.672  1.00  0.00     0.055 C 
HETATM    6  C   UNL     1      42.312 -10.361   9.132  1.00  0.00     0.020 A 
HETATM    7  C   UNL     1      41.751  -9.458  10.052  1.00  0.00     0.069 A 
HETATM    8  C   UNL     1      42.096 -10.105   7.749  1.00  0.00     0.016 A 
HETATM    9  N   UNL     1      41.953  -9.542  11.372  1.00  0.00    -0.252 NA
HETATM   10  C   UNL     1      40.959  -8.411   9.595  1.00  0.00     0.032 A 
HETATM   11  C   UNL     1      42.760 -10.505  11.871  1.00  0.00     0.043 C 
HETATM   12  C   UNL     1      43.419 -11.431  11.051  1.00  0.00    -0.010 C 
HETATM   13  C   UNL     1      44.348 -12.460  11.640  1.00  0.00     0.052 C 
HETATM   14  C   UNL     1      40.722  -8.199   8.237  1.00  0.00     0.002 A 
HETATM   15  C   UNL     1      41.304  -9.045   7.308  1.00  0.00     0.001 A 
BRANCH  11  16
HETATM   16  C   UNL     1      42.920 -10.513  13.378  1.00  0.00     0.055 C 
HETATM   17  C   UNL     1      43.219  -9.150  13.995  1.00  0.00     0.011 C 
ENDBRANCH  11  16
ENDBRANCH   1   5
BRANCH   2  18
HETATM   18  C   UNL     1      45.044 -13.651   7.366  1.00  0.00     0.075 C 
HETATM   19  C   UNL     1      44.071 -14.573   7.276  1.00  0.00     0.017 C 
BRANCH  19  20
HETATM   20  C   UNL     1      44.088 -15.765   6.417  1.00  0.00    -0.033 A 
HETATM   21  C   UNL     1      43.349 -15.732   5.221  1.00  0.00     0.051 A 
HETATM   22  C   UNL     1      43.257 -16.859   4.395  1.00  0.00     0.102 A 
HETATM   23  C   UNL     1      43.910 -18.040   4.780  1.00  0.00     0.101 A 
HETATM   24  C   UNL     1      44.662 -18.078   5.957  1.00  0.00     0.040 A 
HETATM   25  C   UNL     1      44.739 -16.950   6.777  1.00  0.00     0.014 A 
BRANCH  22  26
HETATM   26  O   UNL     1      42.550 -16.912   3.221  1.00  0.00    -0.353 OA
HETATM   27  C   UNL     1      41.155 -16.652   3.283  1.00  0.00     0.210 C 
ENDBRANCH  22  26
BRANCH  23  28
HETATM   28  O   UNL     1      43.823 -19.125   3.942  1.00  0.00    -0.353 OA
HETATM   29  C   UNL     1      44.720 -20.178   4.282  1.00  0.00     0.210 C 
ENDBRANCH  23  28
ENDBRANCH  19  20
ENDBRANCH   2  18
TORSDOF 6
ENDMDL
MODEL 8
REMARK VINA RESULT:      -7.8      3.160      9.693
REMARK  6 active torsions:
REMARK  status: ('A' for Active; 'I' for Inactive)
REMARK    1  A    between atoms: C_2  and  C_3 
REMARK    2  A    between atoms: C_7  and  N_8 
REMARK       I    between atoms: N_8  and  C_9 
REMARK    3  A    between atoms: C_9  and  C_10 
REMARK    4  A    between atoms: C_11  and  C_12 
REMARK    5  A    between atoms: C_14  and  O_15 
REMARK    6  A    between atoms: C_17  and  O_18 
ROOT
HETATM    1  N   UNL     1      40.655 -15.491  -0.491  1.00  0.00    -0.322 N 
HETATM    2  C   UNL     1      41.610 -15.404   0.509  1.00  0.00     0.245 C 
HETATM    3  O   UNL     1      42.077 -14.381   0.989  1.00  0.00    -0.268 OA
HETATM    4  H   UNL     1      40.644 -16.369  -0.988  1.00  0.00     0.169 HD
ENDROOT
BRANCH   1   5
HETATM    5  C   UNL     1      40.128 -14.358  -1.184  1.00  0.00     0.055 C 
HETATM    6  C   UNL     1      39.032 -13.598  -0.682  1.00  0.00     0.020 A 
HETATM    7  C   UNL     1      38.716 -12.415  -1.371  1.00  0.00     0.069 A 
HETATM    8  C   UNL     1      38.196 -13.962   0.410  1.00  0.00     0.016 A 
HETATM    9  N   UNL     1      39.374 -12.010  -2.463  1.00  0.00    -0.252 NA
HETATM   10  C   UNL     1      37.668 -11.617  -0.928  1.00  0.00     0.032 A 
HETATM   11  C   UNL     1      40.366 -12.772  -2.975  1.00  0.00     0.043 C 
HETATM   12  C   UNL     1      40.738 -13.999  -2.409  1.00  0.00    -0.010 C 
HETATM   13  C   UNL     1      41.816 -14.843  -3.034  1.00  0.00     0.052 C 
HETATM   14  C   UNL     1      36.884 -11.967   0.171  1.00  0.00     0.002 A 
HETATM   15  C   UNL     1      37.142 -13.154   0.836  1.00  0.00     0.001 A 
BRANCH  11  16
HETATM   16  C   UNL     1      41.047 -12.222  -4.212  1.00  0.00     0.055 C 
HETATM   17  C   UNL     1      42.206 -11.269  -3.932  1.00  0.00     0.011 C 
ENDBRANCH  11  16
ENDBRANCH   1   5
BRANCH   2  18
HETATM   18  C   UNL     1      42.126 -16.745   0.911  1.00  0.00     0.075 C 
HETATM   19  C   UNL     1      42.710 -16.875   2.114  1.00  0.00     0.017 C 
BRANCH  19  20
HETATM   20  C   UNL     1      43.297 -18.106   2.662  1.00  0.00    -0.033 A 
HETATM   21  C   UNL     1      43.807 -18.073   3.971  1.00  0.00     0.051 A 
HETATM   22  C   UNL     1      44.450 -19.186   4.527  1.00  0.00     0.102 A 
HETATM   23  C   UNL     1      44.591 -20.348   3.752  1.00  0.00     0.101 A 
HETATM   24  C   UNL     1      44.071 -20.397   2.456  1.00  0.00     0.040 A 
HETATM   25  C   UNL     1      43.439 -19.277   1.910  1.00  0.00     0.014 A 
BRANCH  22  26
HETATM   26  O   UNL     1      44.982 -19.232   5.790  1.00  0.00    -0.353 OA
HETATM   27  C   UNL     1      44.983 -18.029   6.545  1.00  0.00     0.210 C 
ENDBRANCH  22  26
BRANCH  23  28
HETATM   28  O   UNL     1      45.205 -21.433   4.327  1.00  0.00    -0.353 OA
HETATM   29  C   UNL     1      44.591 -22.675   3.993  1.00  0.00     0.210 C 
ENDBRANCH  23  28
ENDBRANCH  19  20
ENDBRANCH   2  18
TORSDOF 6
ENDMDL
MODEL 9
REMARK VINA RESULT:      -7.8      1.118      3.148
REMARK  6 active torsions:
REMARK  status: ('A' for Active; 'I' for Inactive)
REMARK    1  A    between atoms: C_2  and  C_3 
REMARK    2  A    between atoms: C_7  and  N_8 
REMARK       I    between atoms: N_8  and  C_9 
REMARK    3  A    between atoms: C_9  and  C_10 
REMARK    4  A    between atoms: C_11  and  C_12 
REMARK    5  A    between atoms: C_14  and  O_15 
REMARK    6  A    between atoms: C_17  and  O_18 
ROOT
HETATM    1  N   UNL     1      42.713 -17.153   2.445  1.00  0.00    -0.322 N 
HETATM    2  C   UNL     1      41.358 -16.864   2.479  1.00  0.00     0.245 C 
HETATM    3  O   UNL     1      40.586 -17.080   3.403  1.00  0.00    -0.268 OA
HETATM    4  H   UNL     1      43.104 -17.228   1.518  1.00  0.00     0.169 HD
ENDROOT
BRANCH   1   5
HETATM    5  C   UNL     1      43.401 -17.846   3.487  1.00  0.00     0.055 C 
HETATM    6  C   UNL     1      43.607 -17.276   4.778  1.00  0.00     0.020 A 
HETATM    7  C   UNL     1      44.150 -18.120   5.761  1.00  0.00     0.069 A 
HETATM    8  C   UNL     1      43.370 -15.920   5.137  1.00  0.00     0.016 A 
HETATM    9  N   UNL     1      44.495 -19.390   5.522  1.00  0.00    -0.252 NA
HETATM   10  C   UNL     1      44.364 -17.634   7.045  1.00  0.00     0.032 A 
HETATM   11  C   UNL     1      44.364 -19.903   4.278  1.00  0.00     0.043 C 
HETATM   12  C   UNL     1      43.884 -19.145   3.201  1.00  0.00    -0.010 C 
HETATM   13  C   UNL     1      43.796 -19.736   1.819  1.00  0.00     0.052 C 
HETATM   14  C   UNL     1      44.086 -16.312   7.393  1.00  0.00     0.002 A 
HETATM   15  C   UNL     1      43.597 -15.447   6.429  1.00  0.00     0.001 A 
BRANCH  11  16
HETATM   16  C   UNL     1      44.782 -21.350   4.115  1.00  0.00     0.055 C 
HETATM   17  C   UNL     1      44.685 -22.189   5.386  1.00  0.00     0.011 C 
ENDBRANCH  11  16
ENDBRANCH   1   5
BRANCH   2  18
HETATM   18  C   UNL     1      40.866 -16.321   1.179  1.00  0.00     0.075 C 
HETATM   19  C   UNL     1      41.098 -15.029   0.893  1.00  0.00     0.017 C 
BRANCH  19  20
HETATM   20  C   UNL     1      40.664 -14.322  -0.321  1.00  0.00    -0.033 A 
HETATM   21  C   UNL     1      40.571 -15.054  -1.518  1.00  0.00     0.051 A 
HETATM   22  C   UNL     1      40.241 -14.428  -2.726  1.00  0.00     0.102 A 
HETATM   23  C   UNL     1      40.010 -13.043  -2.734  1.00  0.00     0.101 A 
HETATM   24  C   UNL     1      40.082 -12.310  -1.547  1.00  0.00     0.040 A 
HETATM   25  C   UNL     1      40.421 -12.945  -0.350  1.00  0.00     0.014 A 
BRANCH  22  26
HETATM   26  O   UNL     1      40.139 -15.066  -3.935  1.00  0.00    -0.353 OA
HETATM   27  C   UNL     1      39.018 -15.916  -4.135  1.00  0.00     0.210 C 
ENDBRANCH  22  26
BRANCH  23  28
HETATM   28  O   UNL     1      39.666 -12.456  -3.927  1.00  0.00    -0.353 OA
HETATM   29  C   UNL     1      38.355 -11.898  -3.928  1.00  0.00     0.210 C 
ENDBRANCH  23  28
ENDBRANCH  19  20
ENDBRANCH   2  18
TORSDOF 6
ENDMDL
MODEL 10
REMARK VINA RESULT:      -7.7      2.638      8.988
REMARK  6 active torsions:
REMARK  status: ('A' for Active; 'I' for Inactive)
REMARK    1  A    between atoms: C_2  and  C_3 
REMARK    2  A    between atoms: C_7  and  N_8 
REMARK       I    between atoms: N_8  and  C_9 
REMARK    3  A    between atoms: C_9  and  C_10 
REMARK    4  A    between atoms: C_11  and  C_12 
REMARK    5  A    between atoms: C_14  and  O_15 
REMARK    6  A    between atoms: C_17  and  O_18 
ROOT
HETATM    1  N   UNL     1      41.679 -15.349   0.899  1.00  0.00    -0.322 N 
HETATM    2  C   UNL     1      40.793 -16.003   1.740  1.00  0.00     0.245 C 
HETATM    3  O   UNL     1      39.595 -15.786   1.855  1.00  0.00    -0.268 OA
HETATM    4  H   UNL     1      42.647 -15.411   1.176  1.00  0.00     0.169 HD
ENDROOT
BRANCH   1   5
HETATM    5  C   UNL     1      41.318 -14.234   0.082  1.00  0.00     0.055 C 
HETATM    6  C   UNL     1      40.802 -14.389  -1.238  1.00  0.00     0.020 A 
HETATM    7  C   UNL     1      40.332 -13.226  -1.872  1.00  0.00     0.069 A 
HETATM    8  C   UNL     1      40.778 -15.598  -1.987  1.00  0.00     0.016 A 
HETATM    9  N   UNL     1      40.381 -12.016  -1.304  1.00  0.00    -0.252 NA
HETATM   10  C   UNL     1      39.803 -13.307  -3.155  1.00  0.00     0.032 A 
HETATM   11  C   UNL     1      40.936 -11.866  -0.082  1.00  0.00     0.043 C 
HETATM   12  C   UNL     1      41.487 -12.940   0.630  1.00  0.00    -0.010 C 
HETATM   13  C   UNL     1      42.140 -12.726   1.969  1.00  0.00     0.052 C 
HETATM   14  C   UNL     1      39.748 -14.509  -3.860  1.00  0.00     0.002 A 
HETATM   15  C   UNL     1      40.251 -15.659  -3.276  1.00  0.00     0.001 A 
BRANCH  11  16
HETATM   16  C   UNL     1      40.939 -10.455   0.471  1.00  0.00     0.055 C 
HETATM   17  C   UNL     1      42.106  -9.589   0.004  1.00  0.00     0.011 C 
ENDBRANCH  11  16
ENDBRANCH   1   5
BRANCH   2  18
HETATM   18  C   UNL     1      41.481 -16.991   2.622  1.00  0.00     0.075 C 
HETATM   19  C   UNL     1      42.453 -17.755   2.096  1.00  0.00     0.017 C 
BRANCH  19  20
HETATM   20  C   UNL     1      43.214 -18.794   2.804  1.00  0.00    -0.033 A 
HETATM   21  C   UNL     1      43.567 -18.560   4.145  1.00  0.00     0.051 A 
HETATM   22  C   UNL     1      44.359 -19.470   4.855  1.00  0.00     0.102 A 
HETATM   23  C   UNL     1      44.811 -20.630   4.207  1.00  0.00     0.101 A 
HETATM   24  C   UNL     1      44.450 -20.881   2.881  1.00  0.00     0.040 A 
HETATM   25  C   UNL     1      43.667 -19.960   2.180  1.00  0.00     0.014 A 
BRANCH  22  26
HETATM   26  O   UNL     1      44.755 -19.312   6.159  1.00  0.00    -0.353 OA
HETATM   27  C   UNL     1      43.763 -19.453   7.167  1.00  0.00     0.210 C 
ENDBRANCH  22  26
BRANCH  23  28
HETATM   28  O   UNL     1      45.567 -21.518   4.931  1.00  0.00    -0.353 OA
HETATM   29  C   UNL     1      44.917 -22.766   5.156  1.00  0.00     0.210 C 
ENDBRANCH  23  28
ENDBRANCH  19  20
ENDBRANCH   2  18
TORSDOF 6
ENDMDL
