MODEL 1
REMARK VINA RESULT:      -7.4      0.000      0.000
REMARK  8 active torsions:
REMARK  status: ('A' for Active; 'I' for Inactive)
REMARK    1  A    between atoms: CG_8  and  CB_9 
REMARK    2  A    between atoms: CB_9  and  CA_10 
REMARK    3  A    between atoms: CA_10  and  N_11 
REMARK    4  A    between atoms: CA_10  and  C_14 
REMARK    5  A    between atoms: N_11  and  C_19 
REMARK    6  A    between atoms: C_14  and  O_15 
REMARK    7  A    between atoms: C_19  and  C_20 
REMARK    8  A    between atoms: C_22  and  C_23 
ROOT
ATOM      1  CA  TRP A   1      43.246 -14.121   6.411  1.00  0.00     0.214 C 
ENDROOT
BRANCH   1   2
ATOM      2  CB  TRP A   1      43.142 -13.728   4.925  1.00  0.00     0.076 C 
BRANCH   2   3
ATOM      3  CG  TRP A   1      42.163 -14.514   4.104  1.00  0.00    -0.028 A 
ATOM      4  CD2 TRP A   1      42.406 -15.456   3.046  1.00  0.00    -0.002 A 
ATOM      5  CE3 TRP A   1      43.558 -15.988   2.426  1.00  0.00     0.014 A 
ATOM      6  CE2 TRP A   1      41.159 -15.878   2.577  1.00  0.00     0.042 A 
ATOM      7  CZ3 TRP A   1      43.421 -16.877   1.351  1.00  0.00     0.001 A 
ATOM      8  CH2 TRP A   1      42.163 -17.259   0.900  1.00  0.00     0.002 A 
ATOM      9  CZ2 TRP A   1      41.006 -16.774   1.513  1.00  0.00     0.030 A 
ATOM     10  NE1 TRP A   1      40.199 -15.281   3.357  1.00  0.00    -0.365 N 
ATOM     11  HE1 TRP A   1      39.204 -15.445   3.270  1.00  0.00     0.165 HD
ATOM     12  CD1 TRP A   1      40.790 -14.444   4.263  1.00  0.00     0.096 A 
ENDBRANCH   2   3
ENDBRANCH   1   2
BRANCH   1  13
ATOM     13  N   TRP A   1      42.511 -15.421   6.673  1.00  0.00    -0.064 N 
ATOM     14  H1  TRP A   1      41.817 -15.309   7.425  1.00  0.00     0.278 HD
ATOM     15  H2  TRP A   1      41.975 -15.624   5.810  1.00  0.00     0.278 HD
BRANCH  13  16
HETATM   16  C   UNK A   0      43.382 -16.582   6.990  1.00  0.00     0.280 C 
BRANCH  16  17
HETATM   17  C   UNK A   0      43.355 -17.627   5.941  1.00  0.00     0.027 A 
HETATM   18  S   UNK A   0      44.796 -18.401   5.416  1.00  0.00    -0.076 SA
HETATM   19  C   UNK A   0      43.899 -19.227   4.209  1.00  0.00     0.079 A 
HETATM   20  N   UNK A   0      42.602 -19.009   4.224  1.00  0.00    -0.257 NA
HETATM   21  C   UNK A   0      42.286 -18.099   5.207  1.00  0.00     0.133 A 
BRANCH  19  22
HETATM   22  C   UNK A   0      44.571 -20.118   3.165  1.00  0.00     0.045 C 
HETATM   23  C   UNK A   0      44.543 -21.645   3.475  1.00  0.00     0.011 C 
HETATM   24  C   UNK A   0      44.256 -21.876   1.979  1.00  0.00     0.002 C 
HETATM   25  C   UNK A   0      43.625 -20.472   1.973  1.00  0.00     0.011 C 
ENDBRANCH  19  22
ENDBRANCH  16  17
ENDBRANCH  13  16
ENDBRANCH   1  13
BRANCH   1  26
ATOM     26  C   TRP A   1      44.723 -14.339   6.805  1.00  0.00     0.197 C 
BRANCH  26  27
ATOM     27  O   TRP A   1      44.938 -13.710   8.074  1.00  0.00    -0.399 OA
ATOM     28  H   TRP A   1      44.757 -12.755   7.959  1.00  0.00     0.209 HD
ENDBRANCH  26  27
ENDBRANCH   1  26
TORSDOF 8
ENDMDL
MODEL 2
REMARK VINA RESULT:      -7.2      2.453      6.428
REMARK  8 active torsions:
REMARK  status: ('A' for Active; 'I' for Inactive)
REMARK    1  A    between atoms: CG_8  and  CB_9 
REMARK    2  A    between atoms: CB_9  and  CA_10 
REMARK    3  A    between atoms: CA_10  and  N_11 
REMARK    4  A    between atoms: CA_10  and  C_14 
REMARK    5  A    between atoms: N_11  and  C_19 
REMARK    6  A    between atoms: C_14  and  O_15 
REMARK    7  A    between atoms: C_19  and  C_20 
REMARK    8  A    between atoms: C_22  and  C_23 
ROOT
ATOM      1  CA  TRP A   1      41.755 -17.225   2.524  1.00  0.00     0.214 C 
ENDROOT
BRANCH   1   2
ATOM      2  CB  TRP A   1      43.292 -17.251   2.631  1.00  0.00     0.076 C 
BRANCH   2   3
ATOM      3  CG  TRP A   1      43.877 -18.392   3.410  1.00  0.00    -0.028 A 
ATOM      4  CD2 TRP A   1      44.022 -19.772   3.038  1.00  0.00    -0.002 A 
ATOM      5  CE3 TRP A   1      43.721 -20.536   1.888  1.00  0.00     0.014 A 
ATOM      6  CE2 TRP A   1      44.587 -20.435   4.131  1.00  0.00     0.042 A 
ATOM      7  CZ3 TRP A   1      43.954 -21.917   1.890  1.00  0.00     0.001 A 
ATOM      8  CH2 TRP A   1      44.501 -22.544   3.004  1.00  0.00     0.002 A 
ATOM      9  CZ2 TRP A   1      44.838 -21.812   4.143  1.00  0.00     0.030 A 
ATOM     10  NE1 TRP A   1      44.845 -19.495   5.098  1.00  0.00    -0.365 N 
ATOM     11  HE1 TRP A   1      45.299 -19.688   5.982  1.00  0.00     0.165 HD
ATOM     12  CD1 TRP A   1      44.403 -18.268   4.684  1.00  0.00     0.096 A 
ENDBRANCH   2   3
ENDBRANCH   1   2
BRANCH   1  13
ATOM     13  N   TRP A   1      41.202 -15.925   3.074  1.00  0.00    -0.064 N 
ATOM     14  H1  TRP A   1      41.731 -15.116   2.716  1.00  0.00     0.278 HD
ATOM     15  H2  TRP A   1      40.244 -15.839   2.691  1.00  0.00     0.278 HD
BRANCH  13  16
HETATM   16  C   UNK A   0      41.145 -15.844   4.556  1.00  0.00     0.280 C 
BRANCH  16  17
HETATM   17  C   UNK A   0      42.277 -15.084   5.136  1.00  0.00     0.027 A 
HETATM   18  S   UNK A   0      42.983 -15.542   6.633  1.00  0.00    -0.076 SA
HETATM   19  C   UNK A   0      43.975 -14.143   6.579  1.00  0.00     0.079 A 
HETATM   20  N   UNK A   0      43.854 -13.409   5.495  1.00  0.00    -0.257 NA
HETATM   21  C   UNK A   0      42.888 -13.938   4.670  1.00  0.00     0.133 A 
BRANCH  19  22
HETATM   22  C   UNK A   0      44.901 -13.758   7.733  1.00  0.00     0.045 C 
HETATM   23  C   UNK A   0      46.158 -12.930   7.331  1.00  0.00     0.011 C 
HETATM   24  C   UNK A   0      45.928 -12.089   8.601  1.00  0.00     0.002 C 
HETATM   25  C   UNK A   0      44.440 -12.462   8.472  1.00  0.00     0.011 C 
ENDBRANCH  19  22
ENDBRANCH  16  17
ENDBRANCH  13  16
ENDBRANCH   1  13
BRANCH   1  26
ATOM     26  C   TRP A   1      41.320 -17.321   1.045  1.00  0.00     0.197 C 
BRANCH  26  27
ATOM     27  O   TRP A   1      40.335 -16.308   0.808  1.00  0.00    -0.399 OA
ATOM     28  H   TRP A   1      39.540 -16.549   1.327  1.00  0.00     0.209 HD
ENDBRANCH  26  27
ENDBRANCH   1  26
TORSDOF 8
ENDMDL
MODEL 3
REMARK VINA RESULT:      -7.1      2.028      2.520
REMARK  8 active torsions:
REMARK  status: ('A' for Active; 'I' for Inactive)
REMARK    1  A    between atoms: CG_8  and  CB_9 
REMARK    2  A    between atoms: CB_9  and  CA_10 
REMARK    3  A    between atoms: CA_10  and  N_11 
REMARK    4  A    between atoms: CA_10  and  C_14 
REMARK    5  A    between atoms: N_11  and  C_19 
REMARK    6  A    between atoms: C_14  and  O_15 
REMARK    7  A    between atoms: C_19  and  C_20 
REMARK    8  A    between atoms: C_22  and  C_23 
ROOT
ATOM      1  CA  TRP A   1      40.151 -13.954   5.443  1.00  0.00     0.214 C 
ENDROOT
BRANCH   1   2
ATOM      2  CB  TRP A   1      40.577 -13.564   4.015  1.00  0.00     0.076 C 
BRANCH   2   3
ATOM      3  CG  TRP A   1      40.588 -14.675   3.006  1.00  0.00    -0.028 A 
ATOM      4  CD2 TRP A   1      41.687 -15.474   2.539  1.00  0.00    -0.002 A 
ATOM      5  CE3 TRP A   1      43.067 -15.544   2.831  1.00  0.00     0.014 A 
ATOM      6  CE2 TRP A   1      41.180 -16.342   1.569  1.00  0.00     0.042 A 
ATOM      7  CZ3 TRP A   1      43.883 -16.437   2.123  1.00  0.00     0.001 A 
ATOM      8  CH2 TRP A   1      43.345 -17.272   1.150  1.00  0.00     0.002 A 
ATOM      9  CZ2 TRP A   1      41.980 -17.248   0.862  1.00  0.00     0.030 A 
ATOM     10  NE1 TRP A   1      39.825 -16.137   1.496  1.00  0.00    -0.365 N 
ATOM     11  HE1 TRP A   1      39.194 -16.666   0.906  1.00  0.00     0.165 HD
ATOM     12  CD1 TRP A   1      39.461 -15.124   2.340  1.00  0.00     0.096 A 
ENDBRANCH   2   3
ENDBRANCH   1   2
BRANCH   1  13
ATOM     13  N   TRP A   1      41.282 -14.662   6.164  1.00  0.00    -0.064 N 
ATOM     14  H1  TRP A   1      42.191 -14.442   5.733  1.00  0.00     0.278 HD
ATOM     15  H2  TRP A   1      41.307 -14.258   7.118  1.00  0.00     0.278 HD
BRANCH  13  16
HETATM   16  C   UNK A   0      41.138 -16.137   6.261  1.00  0.00     0.280 C 
BRANCH  16  17
HETATM   17  C   UNK A   0      42.415 -16.855   6.041  1.00  0.00     0.027 A 
HETATM   18  S   UNK A   0      42.474 -18.307   5.125  1.00  0.00    -0.076 SA
HETATM   19  C   UNK A   0      44.136 -18.475   5.520  1.00  0.00     0.079 A 
HETATM   20  N   UNK A   0      44.648 -17.491   6.227  1.00  0.00    -0.257 NA
HETATM   21  C   UNK A   0      43.674 -16.567   6.527  1.00  0.00     0.133 A 
BRANCH  19  22
HETATM   22  C   UNK A   0      44.947 -19.705   5.114  1.00  0.00     0.045 C 
HETATM   23  C   UNK A   0      44.408 -21.065   5.648  1.00  0.00     0.011 C 
HETATM   24  C   UNK A   0      44.749 -21.665   4.272  1.00  0.00     0.002 C 
HETATM   25  C   UNK A   0      44.555 -20.248   3.704  1.00  0.00     0.011 C 
ENDBRANCH  19  22
ENDBRANCH  16  17
ENDBRANCH  13  16
ENDBRANCH   1  13
BRANCH   1  26
ATOM     26  C   TRP A   1      39.802 -12.691   6.261  1.00  0.00     0.197 C 
BRANCH  26  27
ATOM     27  O   TRP A   1      39.174 -13.113   7.478  1.00  0.00    -0.399 OA
ATOM     28  H   TRP A   1      38.516 -13.799   7.242  1.00  0.00     0.209 HD
ENDBRANCH  26  27
ENDBRANCH   1  26
TORSDOF 8
ENDMDL
MODEL 4
REMARK VINA RESULT:      -7.1      2.142      4.266
REMARK  8 active torsions:
REMARK  status: ('A' for Active; 'I' for Inactive)
REMARK    1  A    between atoms: CG_8  and  CB_9 
REMARK    2  A    between atoms: CB_9  and  CA_10 
REMARK    3  A    between atoms: CA_10  and  N_11 
REMARK    4  A    between atoms: CA_10  and  C_14 
REMARK    5  A    between atoms: N_11  and  C_19 
REMARK    6  A    between atoms: C_14  and  O_15 
REMARK    7  A    between atoms: C_19  and  C_20 
REMARK    8  A    between atoms: C_22  and  C_23 
ROOT
ATOM      1  CA  TRP A   1      40.437 -14.260   4.999  1.00  0.00     0.214 C 
ENDROOT
BRANCH   1   2
ATOM      2  CB  TRP A   1      40.733 -15.415   5.975  1.00  0.00     0.076 C 
BRANCH   2   3
ATOM      3  CG  TRP A   1      42.182 -15.749   6.178  1.00  0.00    -0.028 A 
ATOM      4  CD2 TRP A   1      42.851 -17.015   6.070  1.00  0.00    -0.002 A 
ATOM      5  CE3 TRP A   1      42.456 -18.331   5.737  1.00  0.00     0.014 A 
ATOM      6  CE2 TRP A   1      44.192 -16.801   6.399  1.00  0.00     0.042 A 
ATOM      7  CZ3 TRP A   1      43.393 -19.371   5.785  1.00  0.00     0.001 A 
ATOM      8  CH2 TRP A   1      44.715 -19.121   6.136  1.00  0.00     0.002 A 
ATOM      9  CZ2 TRP A   1      45.142 -17.828   6.440  1.00  0.00     0.030 A 
ATOM     10  NE1 TRP A   1      44.353 -15.457   6.626  1.00  0.00    -0.365 N 
ATOM     11  HE1 TRP A   1      45.237 -15.011   6.838  1.00  0.00     0.165 HD
ATOM     12  CD1 TRP A   1      43.148 -14.819   6.517  1.00  0.00     0.096 A 
ENDBRANCH   2   3
ENDBRANCH   1   2
BRANCH   1  13
ATOM     13  N   TRP A   1      39.762 -14.779   3.744  1.00  0.00    -0.064 N 
ATOM     14  H1  TRP A   1      39.585 -15.792   3.811  1.00  0.00     0.278 HD
ATOM     15  H2  TRP A   1      38.833 -14.322   3.712  1.00  0.00     0.278 HD
BRANCH  13  16
HETATM   16  C   UNK A   0      40.489 -14.500   2.480  1.00  0.00     0.280 C 
BRANCH  16  17
HETATM   17  C   UNK A   0      41.638 -15.410   2.262  1.00  0.00     0.027 A 
HETATM   18  S   UNK A   0      41.434 -16.934   1.497  1.00  0.00    -0.076 SA
HETATM   19  C   UNK A   0      43.081 -17.299   1.812  1.00  0.00     0.079 A 
HETATM   20  N   UNK A   0      43.770 -16.337   2.384  1.00  0.00    -0.257 NA
HETATM   21  C   UNK A   0      42.955 -15.260   2.643  1.00  0.00     0.133 A 
BRANCH  19  22
HETATM   22  C   UNK A   0      43.687 -18.664   1.487  1.00  0.00     0.045 C 
HETATM   23  C   UNK A   0      44.725 -19.195   2.520  1.00  0.00     0.011 C 
HETATM   24  C   UNK A   0      44.092 -20.588   2.342  1.00  0.00     0.002 C 
HETATM   25  C   UNK A   0      42.793 -19.852   1.967  1.00  0.00     0.011 C 
ENDBRANCH  19  22
ENDBRANCH  16  17
ENDBRANCH  13  16
ENDBRANCH   1  13
BRANCH   1  26
ATOM     26  C   TRP A   1      39.477 -13.241   5.650  1.00  0.00     0.197 C 
BRANCH  26  27
ATOM     27  O   TRP A   1      39.557 -13.404   7.071  1.00  0.00    -0.399 OA
ATOM     28  H   TRP A   1      40.016 -14.252   7.241  1.00  0.00     0.209 HD
ENDBRANCH  26  27
ENDBRANCH   1  26
TORSDOF 8
ENDMDL
MODEL 5
REMARK VINA RESULT:      -7.0      2.339      4.829
REMARK  8 active torsions:
REMARK  status: ('A' for Active; 'I' for Inactive)
REMARK    1  A    between atoms: CG_8  and  CB_9 
REMARK    2  A    between atoms: CB_9  and  CA_10 
REMARK    3  A    between atoms: CA_10  and  N_11 
REMARK    4  A    between atoms: CA_10  and  C_14 
REMARK    5  A    between atoms: N_11  and  C_19 
REMARK    6  A    between atoms: C_14  and  O_15 
REMARK    7  A    between atoms: C_19  and  C_20 
REMARK    8  A    between atoms: C_22  and  C_23 
ROOT
ATOM      1  CA  TRP A   1      44.047 -17.651   6.915  1.00  0.00     0.214 C 
ENDROOT
BRANCH   1   2
ATOM      2  CB  TRP A   1      43.379 -18.669   5.970  1.00  0.00     0.076 C 
BRANCH   2   3
ATOM      3  CG  TRP A   1      42.510 -18.093   4.892  1.00  0.00    -0.028 A 
ATOM      4  CD2 TRP A   1      42.820 -17.823   3.516  1.00  0.00    -0.002 A 
ATOM      5  CE3 TRP A   1      43.956 -17.995   2.693  1.00  0.00     0.014 A 
ATOM      6  CE2 TRP A   1      41.682 -17.248   2.944  1.00  0.00     0.042 A 
ATOM      7  CZ3 TRP A   1      43.925 -17.556   1.363  1.00  0.00     0.001 A 
ATOM      8  CH2 TRP A   1      42.779 -16.970   0.835  1.00  0.00     0.002 A 
ATOM      9  CZ2 TRP A   1      41.632 -16.815   1.613  1.00  0.00     0.030 A 
ATOM     10  NE1 TRP A   1      40.699 -17.233   3.901  1.00  0.00    -0.365 N 
ATOM     11  HE1 TRP A   1      39.751 -16.913   3.748  1.00  0.00     0.165 HD
ATOM     12  CD1 TRP A   1      41.191 -17.719   5.081  1.00  0.00     0.096 A 
ENDBRANCH   2   3
ENDBRANCH   1   2
BRANCH   1  13
ATOM     13  N   TRP A   1      44.468 -16.410   6.152  1.00  0.00    -0.064 N 
ATOM     14  H1  TRP A   1      45.473 -16.222   6.275  1.00  0.00     0.278 HD
ATOM     15  H2  TRP A   1      44.334 -16.634   5.149  1.00  0.00     0.278 HD
BRANCH  13  16
HETATM   16  C   UNK A   0      43.704 -15.181   6.484  1.00  0.00     0.280 C 
BRANCH  16  17
HETATM   17  C   UNK A   0      43.154 -14.503   5.287  1.00  0.00     0.027 A 
HETATM   18  S   UNK A   0      41.531 -13.944   5.247  1.00  0.00    -0.076 SA
HETATM   19  C   UNK A   0      41.733 -13.511   3.599  1.00  0.00     0.079 A 
HETATM   20  N   UNK A   0      42.940 -13.697   3.112  1.00  0.00    -0.257 NA
HETATM   21  C   UNK A   0      43.753 -14.262   4.068  1.00  0.00     0.133 A 
BRANCH  19  22
HETATM   22  C   UNK A   0      40.575 -12.988   2.748  1.00  0.00     0.045 C 
HETATM   23  C   UNK A   0      40.756 -13.143   1.209  1.00  0.00     0.011 C 
HETATM   24  C   UNK A   0      39.268 -13.535   1.141  1.00  0.00     0.002 C 
HETATM   25  C   UNK A   0      39.422 -14.029   2.590  1.00  0.00     0.011 C 
ENDBRANCH  19  22
ENDBRANCH  16  17
ENDBRANCH  13  16
ENDBRANCH   1  13
BRANCH   1  26
ATOM     26  C   TRP A   1      43.055 -17.205   8.010  1.00  0.00     0.197 C 
BRANCH  26  27
ATOM     27  O   TRP A   1      43.637 -17.509   9.284  1.00  0.00    -0.399 OA
ATOM     28  H   TRP A   1      43.342 -18.409   9.530  1.00  0.00     0.209 HD
ENDBRANCH  26  27
ENDBRANCH   1  26
TORSDOF 8
ENDMDL
MODEL 6
REMARK VINA RESULT:      -7.0      4.892      7.540
REMARK  8 active torsions:
REMARK  status: ('A' for Active; 'I' for Inactive)
REMARK    1  A    between atoms: CG_8  and  CB_9 
REMARK    2  A    between atoms: CB_9  and  CA_10 
REMARK    3  A    between atoms: CA_10  and  N_11 
REMARK    4  A    between atoms: CA_10  and  C_14 
REMARK    5  A    between atoms: N_11  and  C_19 
REMARK    6  A    between atoms: C_14  and  O_15 
REMARK    7  A    between atoms: C_19  and  C_20 
REMARK    8  A    between atoms: C_22  and  C_23 
ROOT
ATOM      1  CA  TRP A   1      44.230 -12.074   9.151  1.00  0.00     0.214 C 
ENDROOT
BRANCH   1   2
ATOM      2  CB  TRP A   1      43.488 -10.726   9.239  1.00  0.00     0.076 C 
BRANCH   2   3
ATOM      3  CG  TRP A   1      42.431 -10.625  10.299  1.00  0.00    -0.028 A 
ATOM      4  CD2 TRP A   1      42.542 -10.178  11.659  1.00  0.00    -0.002 A 
ATOM      5  CE3 TRP A   1      43.589  -9.677  12.466  1.00  0.00     0.014 A 
ATOM      6  CE2 TRP A   1      41.280 -10.317  12.242  1.00  0.00     0.042 A 
ATOM      7  CZ3 TRP A   1      43.347  -9.378  13.813  1.00  0.00     0.001 A 
ATOM      8  CH2 TRP A   1      42.081  -9.549  14.363  1.00  0.00     0.002 A 
ATOM      9  CZ2 TRP A   1      41.020 -10.012  13.583  1.00  0.00     0.030 A 
ATOM     10  NE1 TRP A   1      40.420 -10.759  11.268  1.00  0.00    -0.365 N 
ATOM     11  HE1 TRP A   1      39.426 -10.902  11.399  1.00  0.00     0.165 HD
ATOM     12  CD1 TRP A   1      41.105 -10.967  10.102  1.00  0.00     0.096 A 
ENDBRANCH   2   3
ENDBRANCH   1   2
BRANCH   1  13
ATOM     13  N   TRP A   1      43.799 -12.842   7.917  1.00  0.00    -0.064 N 
ATOM     14  H1  TRP A   1      42.855 -13.237   8.037  1.00  0.00     0.278 HD
ATOM     15  H2  TRP A   1      43.728 -12.142   7.157  1.00  0.00     0.278 HD
BRANCH  13  16
HETATM   16  C   UNK A   0      44.724 -13.926   7.498  1.00  0.00     0.280 C 
BRANCH  16  17
HETATM   17  C   UNK A   0      44.130 -14.833   6.488  1.00  0.00     0.027 A 
HETATM   18  S   UNK A   0      44.149 -16.537   6.701  1.00  0.00    -0.076 SA
HETATM   19  C   UNK A   0      43.475 -16.728   5.134  1.00  0.00     0.079 A 
HETATM   20  N   UNK A   0      43.183 -15.610   4.508  1.00  0.00    -0.257 NA
HETATM   21  C   UNK A   0      43.554 -14.527   5.273  1.00  0.00     0.133 A 
BRANCH  19  22
HETATM   22  C   UNK A   0      43.272 -18.103   4.499  1.00  0.00     0.045 C 
HETATM   23  C   UNK A   0      43.586 -18.187   2.975  1.00  0.00     0.011 C 
HETATM   24  C   UNK A   0      44.235 -19.556   3.252  1.00  0.00     0.002 C 
HETATM   25  C   UNK A   0      44.509 -19.040   4.676  1.00  0.00     0.011 C 
ENDBRANCH  19  22
ENDBRANCH  16  17
ENDBRANCH  13  16
ENDBRANCH   1  13
BRANCH   1  26
ATOM     26  C   TRP A   1      45.752 -11.841   9.041  1.00  0.00     0.197 C 
BRANCH  26  27
ATOM     27  O   TRP A   1      46.016 -10.473   9.376  1.00  0.00    -0.399 OA
ATOM     28  H   TRP A   1      46.477 -10.071   8.612  1.00  0.00     0.209 HD
ENDBRANCH  26  27
ENDBRANCH   1  26
TORSDOF 8
ENDMDL
MODEL 7
REMARK VINA RESULT:      -7.0      4.960      8.190
REMARK  8 active torsions:
REMARK  status: ('A' for Active; 'I' for Inactive)
REMARK    1  A    between atoms: CG_8  and  CB_9 
REMARK    2  A    between atoms: CB_9  and  CA_10 
REMARK    3  A    between atoms: CA_10  and  N_11 
REMARK    4  A    between atoms: CA_10  and  C_14 
REMARK    5  A    between atoms: N_11  and  C_19 
REMARK    6  A    between atoms: C_14  and  O_15 
REMARK    7  A    between atoms: C_19  and  C_20 
REMARK    8  A    between atoms: C_22  and  C_23 
ROOT
ATOM      1  CA  TRP A   1      41.629 -16.082   1.140  1.00  0.00     0.214 C 
ENDROOT
BRANCH   1   2
ATOM      2  CB  TRP A   1      41.632 -17.599   1.408  1.00  0.00     0.076 C 
BRANCH   2   3
ATOM      3  CG  TRP A   1      42.649 -18.091   2.396  1.00  0.00    -0.028 A 
ATOM      4  CD2 TRP A   1      43.274 -19.380   2.497  1.00  0.00    -0.002 A 
ATOM      5  CE3 TRP A   1      43.207 -20.585   1.763  1.00  0.00     0.014 A 
ATOM      6  CE2 TRP A   1      44.114 -19.342   3.613  1.00  0.00     0.042 A 
ATOM      7  CZ3 TRP A   1      43.940 -21.701   2.190  1.00  0.00     0.001 A 
ATOM      8  CH2 TRP A   1      44.750 -21.630   3.318  1.00  0.00     0.002 A 
ATOM      9  CZ2 TRP A   1      44.861 -20.444   4.045  1.00  0.00     0.030 A 
ATOM     10  NE1 TRP A   1      44.062 -18.071   4.128  1.00  0.00    -0.365 N 
ATOM     11  HE1 TRP A   1      44.610 -17.746   4.915  1.00  0.00     0.165 HD
ATOM     12  CD1 TRP A   1      43.169 -17.317   3.417  1.00  0.00     0.096 A 
ENDBRANCH   2   3
ENDBRANCH   1   2
BRANCH   1  13
ATOM     13  N   TRP A   1      41.940 -15.795  -0.316  1.00  0.00    -0.064 N 
ATOM     14  H1  TRP A   1      42.867 -15.358  -0.417  1.00  0.00     0.278 HD
ATOM     15  H2  TRP A   1      42.001 -16.719  -0.780  1.00  0.00     0.278 HD
BRANCH  13  16
HETATM   16  C   UNK A   0      40.934 -14.959  -1.020  1.00  0.00     0.280 C 
BRANCH  16  17
HETATM   17  C   UNK A   0      41.539 -13.814  -1.740  1.00  0.00     0.027 A 
HETATM   18  S   UNK A   0      42.098 -12.427  -0.896  1.00  0.00    -0.076 SA
HETATM   19  C   UNK A   0      42.428 -11.662  -2.397  1.00  0.00     0.079 A 
HETATM   20  N   UNK A   0      42.210 -12.400  -3.463  1.00  0.00    -0.257 NA
HETATM   21  C   UNK A   0      41.703 -13.625  -3.096  1.00  0.00     0.133 A 
BRANCH  19  22
HETATM   22  C   UNK A   0      42.901 -10.212  -2.483  1.00  0.00     0.045 C 
HETATM   23  C   UNK A   0      41.965  -9.165  -1.809  1.00  0.00     0.011 C 
HETATM   24  C   UNK A   0      43.234  -8.462  -1.290  1.00  0.00     0.002 C 
HETATM   25  C   UNK A   0      43.917  -9.839  -1.357  1.00  0.00     0.011 C 
ENDBRANCH  19  22
ENDBRANCH  16  17
ENDBRANCH  13  16
ENDBRANCH   1  13
BRANCH   1  26
ATOM     26  C   TRP A   1      40.236 -15.487   1.440  1.00  0.00     0.197 C 
BRANCH  26  27
ATOM     27  O   TRP A   1      39.424 -16.525   2.004  1.00  0.00    -0.399 OA
ATOM     28  H   TRP A   1      38.639 -16.625   1.428  1.00  0.00     0.209 HD
ENDBRANCH  26  27
ENDBRANCH   1  26
TORSDOF 8
ENDMDL
MODEL 8
REMARK VINA RESULT:      -7.0      4.886      8.178
REMARK  8 active torsions:
REMARK  status: ('A' for Active; 'I' for Inactive)
REMARK    1  A    between atoms: CG_8  and  CB_9 
REMARK    2  A    between atoms: CB_9  and  CA_10 
REMARK    3  A    between atoms: CA_10  and  N_11 
REMARK    4  A    between atoms: CA_10  and  C_14 
REMARK    5  A    between atoms: N_11  and  C_19 
REMARK    6  A    between atoms: C_14  and  O_15 
REMARK    7  A    between atoms: C_19  and  C_20 
REMARK    8  A    between atoms: C_22  and  C_23 
ROOT
ATOM      1  CA  TRP A   1      42.083 -16.704   1.502  1.00  0.00     0.214 C 
ENDROOT
BRANCH   1   2
ATOM      2  CB  TRP A   1      43.221 -17.722   1.294  1.00  0.00     0.076 C 
BRANCH   2   3
ATOM      3  CG  TRP A   1      43.714 -18.417   2.529  1.00  0.00    -0.028 A 
ATOM      4  CD2 TRP A   1      44.024 -19.805   2.733  1.00  0.00    -0.002 A 
ATOM      5  CE3 TRP A   1      44.011 -20.963   1.923  1.00  0.00     0.014 A 
ATOM      6  CE2 TRP A   1      44.402 -19.949   4.070  1.00  0.00     0.042 A 
ATOM      7  CZ3 TRP A   1      44.333 -22.207   2.483  1.00  0.00     0.001 A 
ATOM      8  CH2 TRP A   1      44.686 -22.313   3.824  1.00  0.00     0.002 A 
ATOM      9  CZ2 TRP A   1      44.738 -21.183   4.641  1.00  0.00     0.030 A 
ATOM     10  NE1 TRP A   1      44.396 -18.700   4.639  1.00  0.00    -0.365 N 
ATOM     11  HE1 TRP A   1      44.676 -18.500   5.592  1.00  0.00     0.165 HD
ATOM     12  CD1 TRP A   1      43.964 -17.776   3.729  1.00  0.00     0.096 A 
ENDBRANCH   2   3
ENDBRANCH   1   2
BRANCH   1  13
ATOM     13  N   TRP A   1      42.123 -15.631   0.431  1.00  0.00    -0.064 N 
ATOM     14  H1  TRP A   1      42.187 -14.692   0.850  1.00  0.00     0.278 HD
ATOM     15  H2  TRP A   1      43.007 -15.780  -0.087  1.00  0.00     0.278 HD
BRANCH  13  16
HETATM   16  C   UNK A   0      40.986 -15.655  -0.524  1.00  0.00     0.280 C 
BRANCH  16  17
HETATM   17  C   UNK A   0      41.231 -14.832  -1.732  1.00  0.00     0.027 A 
HETATM   18  S   UNK A   0      42.011 -13.306  -1.626  1.00  0.00    -0.076 SA
HETATM   19  C   UNK A   0      41.724 -13.056  -3.299  1.00  0.00     0.079 A 
HETATM   20  N   UNK A   0      41.150 -14.059  -3.927  1.00  0.00    -0.257 NA
HETATM   21  C   UNK A   0      40.867 -15.073  -3.040  1.00  0.00     0.133 A 
BRANCH  19  22
HETATM   22  C   UNK A   0      42.073 -11.742  -3.996  1.00  0.00     0.045 C 
HETATM   23  C   UNK A   0      40.876 -10.772  -4.228  1.00  0.00     0.011 C 
HETATM   24  C   UNK A   0      41.820  -9.619  -3.840  1.00  0.00     0.002 C 
HETATM   25  C   UNK A   0      42.598 -10.653  -3.007  1.00  0.00     0.011 C 
ENDBRANCH  19  22
ENDBRANCH  16  17
ENDBRANCH  13  16
ENDBRANCH   1  13
BRANCH   1  26
ATOM     26  C   TRP A   1      40.711 -17.406   1.400  1.00  0.00     0.197 C 
BRANCH  26  27
ATOM     27  O   TRP A   1      39.887 -16.922   2.468  1.00  0.00    -0.399 OA
ATOM     28  H   TRP A   1      39.690 -15.982   2.279  1.00  0.00     0.209 HD
ENDBRANCH  26  27
ENDBRANCH   1  26
TORSDOF 8
ENDMDL
MODEL 9
REMARK VINA RESULT:      -6.9      2.111      4.837
REMARK  8 active torsions:
REMARK  status: ('A' for Active; 'I' for Inactive)
REMARK    1  A    between atoms: CG_8  and  CB_9 
REMARK    2  A    between atoms: CB_9  and  CA_10 
REMARK    3  A    between atoms: CA_10  and  N_11 
REMARK    4  A    between atoms: CA_10  and  C_14 
REMARK    5  A    between atoms: N_11  and  C_19 
REMARK    6  A    between atoms: C_14  and  O_15 
REMARK    7  A    between atoms: C_19  and  C_20 
REMARK    8  A    between atoms: C_22  and  C_23 
ROOT
ATOM      1  CA  TRP A   1      43.174 -14.866   6.020  1.00  0.00     0.214 C 
ENDROOT
BRANCH   1   2
ATOM      2  CB  TRP A   1      42.965 -16.286   6.581  1.00  0.00     0.076 C 
BRANCH   2   3
ATOM      3  CG  TRP A   1      43.632 -17.397   5.825  1.00  0.00    -0.028 A 
ATOM      4  CD2 TRP A   1      43.382 -17.873   4.493  1.00  0.00    -0.002 A 
ATOM      5  CE3 TRP A   1      42.505 -17.507   3.447  1.00  0.00     0.014 A 
ATOM      6  CE2 TRP A   1      44.240 -18.954   4.275  1.00  0.00     0.042 A 
ATOM      7  CZ3 TRP A   1      42.492 -18.249   2.258  1.00  0.00     0.001 A 
ATOM      8  CH2 TRP A   1      43.349 -19.331   2.086  1.00  0.00     0.002 A 
ATOM      9  CZ2 TRP A   1      44.248 -19.697   3.089  1.00  0.00     0.030 A 
ATOM     10  NE1 TRP A   1      45.029 -19.088   5.390  1.00  0.00    -0.365 N 
ATOM     11  HE1 TRP A   1      45.776 -19.765   5.489  1.00  0.00     0.165 HD
ATOM     12  CD1 TRP A   1      44.658 -18.172   6.336  1.00  0.00     0.096 A 
ENDBRANCH   2   3
ENDBRANCH   1   2
BRANCH   1  13
ATOM     13  N   TRP A   1      41.939 -14.015   6.245  1.00  0.00    -0.064 N 
ATOM     14  H1  TRP A   1      41.112 -14.603   6.421  1.00  0.00     0.278 HD
ATOM     15  H2  TRP A   1      42.113 -13.487   7.119  1.00  0.00     0.278 HD
BRANCH  13  16
HETATM   16  C   UNK A   0      41.627 -13.061   5.151  1.00  0.00     0.280 C 
BRANCH  16  17
HETATM   17  C   UNK A   0      41.395 -13.731   3.850  1.00  0.00     0.027 A 
HETATM   18  S   UNK A   0      42.526 -13.596   2.564  1.00  0.00    -0.076 SA
HETATM   19  C   UNK A   0      41.447 -14.453   1.541  1.00  0.00     0.079 A 
HETATM   20  N   UNK A   0      40.346 -14.880   2.118  1.00  0.00    -0.257 NA
HETATM   21  C   UNK A   0      40.310 -14.472   3.431  1.00  0.00     0.133 A 
BRANCH  19  22
HETATM   22  C   UNK A   0      41.733 -14.664   0.054  1.00  0.00     0.045 C 
HETATM   23  C   UNK A   0      41.350 -16.067  -0.505  1.00  0.00     0.011 C 
HETATM   24  C   UNK A   0      40.832 -15.350  -1.766  1.00  0.00     0.002 C 
HETATM   25  C   UNK A   0      40.588 -14.127  -0.863  1.00  0.00     0.011 C 
ENDBRANCH  19  22
ENDBRANCH  16  17
ENDBRANCH  13  16
ENDBRANCH   1  13
BRANCH   1  26
ATOM     26  C   TRP A   1      44.349 -14.172   6.742  1.00  0.00     0.197 C 
BRANCH  26  27
ATOM     27  O   TRP A   1      44.216 -14.425   8.146  1.00  0.00    -0.399 OA
ATOM     28  H   TRP A   1      43.727 -15.267   8.245  1.00  0.00     0.209 HD
ENDBRANCH  26  27
ENDBRANCH   1  26
TORSDOF 8
ENDMDL
MODEL 10
REMARK VINA RESULT:      -6.9      2.157      5.077
REMARK  8 active torsions:
REMARK  status: ('A' for Active; 'I' for Inactive)
REMARK    1  A    between atoms: CG_8  and  CB_9 
REMARK    2  A    between atoms: CB_9  and  CA_10 
REMARK    3  A    between atoms: CA_10  and  N_11 
REMARK    4  A    between atoms: CA_10  and  C_14 
REMARK    5  A    between atoms: N_11  and  C_19 
REMARK    6  A    between atoms: C_14  and  O_15 
REMARK    7  A    between atoms: C_19  and  C_20 
REMARK    8  A    between atoms: C_22  and  C_23 
ROOT
ATOM      1  CA  TRP A   1      43.527 -16.874   6.909  1.00  0.00     0.214 C 
ENDROOT
BRANCH   1   2
ATOM      2  CB  TRP A   1      42.180 -17.149   6.214  1.00  0.00     0.076 C 
BRANCH   2   3
ATOM      3  CG  TRP A   1      42.257 -17.587   4.782  1.00  0.00    -0.028 A 
ATOM      4  CD2 TRP A   1      43.075 -18.603   4.180  1.00  0.00    -0.002 A 
ATOM      5  CE3 TRP A   1      44.033 -19.527   4.654  1.00  0.00     0.014 A 
ATOM      6  CE2 TRP A   1      42.803 -18.591   2.809  1.00  0.00     0.042 A 
ATOM      7  CZ3 TRP A   1      44.700 -20.363   3.749  1.00  0.00     0.001 A 
ATOM      8  CH2 TRP A   1      44.415 -20.309   2.389  1.00  0.00     0.002 A 
ATOM      9  CZ2 TRP A   1      43.452 -19.428   1.894  1.00  0.00     0.030 A 
ATOM     10  NE1 TRP A   1      41.813 -17.666   2.591  1.00  0.00    -0.365 N 
ATOM     11  HE1 TRP A   1      41.386 -17.481   1.692  1.00  0.00     0.165 HD
ATOM     12  CD1 TRP A   1      41.492 -17.042   3.765  1.00  0.00     0.096 A 
ENDBRANCH   2   3
ENDBRANCH   1   2
BRANCH   1  13
ATOM     13  N   TRP A   1      43.546 -15.480   7.507  1.00  0.00    -0.064 N 
ATOM     14  H1  TRP A   1      42.595 -15.167   7.747  1.00  0.00     0.278 HD
ATOM     15  H2  TRP A   1      44.061 -15.562   8.402  1.00  0.00     0.278 HD
BRANCH  13  16
HETATM   16  C   UNK A   0      44.194 -14.444   6.662  1.00  0.00     0.280 C 
BRANCH  16  17
HETATM   17  C   UNK A   0      43.314 -13.951   5.578  1.00  0.00     0.027 A 
HETATM   18  S   UNK A   0      43.787 -14.055   3.930  1.00  0.00    -0.076 SA
HETATM   19  C   UNK A   0      42.378 -13.183   3.483  1.00  0.00     0.079 A 
HETATM   20  N   UNK A   0      41.563 -12.886   4.471  1.00  0.00    -0.257 NA
HETATM   21  C   UNK A   0      42.090 -13.320   5.666  1.00  0.00     0.133 A 
BRANCH  19  22
HETATM   22  C   UNK A   0      42.116 -12.745   2.042  1.00  0.00     0.045 C 
HETATM   23  C   UNK A   0      41.741 -13.891   1.056  1.00  0.00     0.011 C 
HETATM   24  C   UNK A   0      40.703 -12.933   0.442  1.00  0.00     0.002 C 
HETATM   25  C   UNK A   0      40.654 -12.246   1.818  1.00  0.00     0.011 C 
ENDBRANCH  19  22
ENDBRANCH  16  17
ENDBRANCH  13  16
ENDBRANCH   1  13
BRANCH   1  26
ATOM     26  C   TRP A   1      43.748 -17.873   8.065  1.00  0.00     0.197 C 
BRANCH  26  27
ATOM     27  O   TRP A   1      43.533 -17.177   9.299  1.00  0.00    -0.399 OA
ATOM     28  H   TRP A   1      43.134 -16.311   9.077  1.00  0.00     0.209 HD
ENDBRANCH  26  27
ENDBRANCH   1  26
TORSDOF 8
ENDMDL
