MODEL 1
REMARK VINA RESULT:      -7.5      0.000      0.000
REMARK  4 active torsions:
REMARK  status: ('A' for Active; 'I' for Inactive)
REMARK    1  A    between atoms: C_6  and  N_7 
REMARK       I    between atoms: N_7  and  C_8 
REMARK    2  A    between atoms: C_8  and  C_9 
REMARK    3  A    between atoms: C_9  and  O_10 
REMARK    4  A    between atoms: O_10  and  C_11 
ROOT
HETATM    1  N   UNL     1      44.006 -18.201   4.750  1.00  0.00    -0.323 N 
HETATM    2  C   UNL     1      42.803 -17.577   5.037  1.00  0.00     0.256 C 
HETATM    3  O   UNL     1      41.713 -18.140   5.104  1.00  0.00    -0.270 OA
HETATM    4  H   UNL     1      44.843 -17.626   4.792  1.00  0.00     0.169 HD
ENDROOT
BRANCH   2   5
HETATM    5  C   UNL     1      42.953 -16.054   5.317  1.00  0.00     0.141 C 
HETATM    6  C   UNL     1      41.612 -15.394   5.677  1.00  0.00     0.057 C 
HETATM    7  C   UNL     1      43.864 -15.905   6.556  1.00  0.00     0.057 C 
BRANCH   5   8
HETATM    8  O   UNL     1      43.639 -15.341   4.279  1.00  0.00    -0.331 OA
BRANCH   8   9
HETATM    9  C   UNL     1      43.004 -14.919   3.148  1.00  0.00     0.072 A 
HETATM   10  C   UNL     1      42.556 -15.710   2.092  1.00  0.00     0.060 A 
HETATM   11  C   UNL     1      41.913 -15.117   1.001  1.00  0.00     0.036 A 
HETATM   12 CL   UNL     1      41.347 -16.103  -0.292  1.00  0.00    -0.084 Cl
HETATM   13  C   UNL     1      41.721 -13.738   0.945  1.00  0.00     0.024 A 
HETATM   14  C   UNL     1      42.184 -12.941   1.988  1.00  0.00     0.004 A 
HETATM   15  C   UNL     1      42.825 -13.532   3.080  1.00  0.00     0.037 A 
ENDBRANCH   8   9
ENDBRANCH   5   8
ENDBRANCH   2   5
BRANCH   1  16
HETATM   16  C   UNL     1      44.230 -19.575   4.484  1.00  0.00     0.060 A 
HETATM   17  C   UNL     1      44.563 -20.490   5.480  1.00  0.00     0.050 A 
HETATM   18  C   UNL     1      44.768 -21.811   5.124  1.00  0.00     0.119 A 
HETATM   19  N   UNL     1      44.680 -22.272   3.859  1.00  0.00    -0.264 NA
HETATM   20  C   UNL     1      44.357 -21.383   2.886  1.00  0.00     0.054 A 
HETATM   21  C   UNL     1      44.313 -21.935   1.490  1.00  0.00     0.072 C 
HETATM   22  C   UNL     1      44.110 -20.034   3.160  1.00  0.00     0.085 A 
HETATM   23 CL   UNL     1      43.704 -18.923   1.890  1.00  0.00    -0.080 Cl
ENDBRANCH   1  16
TORSDOF 4
ENDMDL
MODEL 2
REMARK VINA RESULT:      -7.4      2.180      5.990
REMARK  4 active torsions:
REMARK  status: ('A' for Active; 'I' for Inactive)
REMARK    1  A    between atoms: C_6  and  N_7 
REMARK       I    between atoms: N_7  and  C_8 
REMARK    2  A    between atoms: C_8  and  C_9 
REMARK    3  A    between atoms: C_9  and  O_10 
REMARK    4  A    between atoms: O_10  and  C_11 
ROOT
HETATM    1  N   UNL     1      42.821 -16.676   4.088  1.00  0.00    -0.323 N 
HETATM    2  C   UNL     1      42.674 -17.768   4.928  1.00  0.00     0.256 C 
HETATM    3  O   UNL     1      41.671 -18.475   4.999  1.00  0.00    -0.270 OA
HETATM    4  H   UNL     1      43.730 -16.219   4.084  1.00  0.00     0.169 HD
ENDROOT
BRANCH   2   5
HETATM    5  C   UNL     1      43.943 -18.063   5.779  1.00  0.00     0.141 C 
HETATM    6  C   UNL     1      44.456 -16.810   6.508  1.00  0.00     0.057 C 
HETATM    7  C   UNL     1      43.532 -19.073   6.874  1.00  0.00     0.057 C 
BRANCH   5   8
HETATM    8  O   UNL     1      44.985 -18.725   5.052  1.00  0.00    -0.331 OA
BRANCH   8   9
HETATM    9  C   UNL     1      44.809 -19.958   4.493  1.00  0.00     0.072 A 
HETATM   10  C   UNL     1      44.480 -20.239   3.169  1.00  0.00     0.060 A 
HETATM   11  C   UNL     1      44.341 -21.567   2.752  1.00  0.00     0.036 A 
HETATM   12 CL   UNL     1      43.952 -21.907   1.110  1.00  0.00    -0.084 Cl
HETATM   13  C   UNL     1      44.517 -22.620   3.647  1.00  0.00     0.024 A 
HETATM   14  C   UNL     1      44.826 -22.344   4.976  1.00  0.00     0.004 A 
HETATM   15  C   UNL     1      44.967 -21.018   5.393  1.00  0.00     0.037 A 
ENDBRANCH   8   9
ENDBRANCH   5   8
ENDBRANCH   2   5
BRANCH   1  16
HETATM   16  C   UNL     1      41.882 -16.159   3.161  1.00  0.00     0.060 A 
HETATM   17  C   UNL     1      40.756 -15.438   3.554  1.00  0.00     0.050 A 
HETATM   18  C   UNL     1      39.892 -14.977   2.577  1.00  0.00     0.119 A 
HETATM   19  N   UNL     1      40.063 -15.194   1.256  1.00  0.00    -0.264 NA
HETATM   20  C   UNL     1      41.158 -15.896   0.870  1.00  0.00     0.054 A 
HETATM   21  C   UNL     1      41.282 -16.148  -0.604  1.00  0.00     0.072 C 
HETATM   22  C   UNL     1      42.096 -16.380   1.789  1.00  0.00     0.085 A 
HETATM   23 CL   UNL     1      43.483 -17.280   1.261  1.00  0.00    -0.080 Cl
ENDBRANCH   1  16
TORSDOF 4
ENDMDL
MODEL 3
REMARK VINA RESULT:      -7.4      3.507      7.383
REMARK  4 active torsions:
REMARK  status: ('A' for Active; 'I' for Inactive)
REMARK    1  A    between atoms: C_6  and  N_7 
REMARK       I    between atoms: N_7  and  C_8 
REMARK    2  A    between atoms: C_8  and  C_9 
REMARK    3  A    between atoms: C_9  and  O_10 
REMARK    4  A    between atoms: O_10  and  C_11 
ROOT
HETATM    1  N   UNL     1      41.839 -15.573   0.097  1.00  0.00    -0.323 N 
HETATM    2  C   UNL     1      41.707 -16.640   0.972  1.00  0.00     0.256 C 
HETATM    3  O   UNL     1      40.793 -17.459   0.954  1.00  0.00    -0.270 OA
HETATM    4  H   UNL     1      42.682 -15.010   0.184  1.00  0.00     0.169 HD
ENDROOT
BRANCH   2   5
HETATM    5  C   UNL     1      42.876 -16.742   1.995  1.00  0.00     0.141 C 
HETATM    6  C   UNL     1      44.215 -17.071   1.314  1.00  0.00     0.057 C 
HETATM    7  C   UNL     1      43.039 -15.349   2.641  1.00  0.00     0.057 C 
BRANCH   5   8
HETATM    8  O   UNL     1      42.604 -17.620   3.095  1.00  0.00    -0.331 OA
BRANCH   8   9
HETATM    9  C   UNL     1      43.367 -18.723   3.347  1.00  0.00     0.072 A 
HETATM   10  C   UNL     1      43.543 -19.829   2.518  1.00  0.00     0.060 A 
HETATM   11  C   UNL     1      44.368 -20.881   2.926  1.00  0.00     0.036 A 
HETATM   12 CL   UNL     1      44.594 -22.236   1.888  1.00  0.00    -0.084 Cl
HETATM   13  C   UNL     1      45.015 -20.848   4.160  1.00  0.00     0.024 A 
HETATM   14  C   UNL     1      44.827 -19.755   5.000  1.00  0.00     0.004 A 
HETATM   15  C   UNL     1      44.003 -18.702   4.594  1.00  0.00     0.037 A 
ENDBRANCH   8   9
ENDBRANCH   5   8
ENDBRANCH   2   5
BRANCH   1  16
HETATM   16  C   UNL     1      40.980 -15.213  -0.970  1.00  0.00     0.060 A 
HETATM   17  C   UNL     1      41.106 -15.747  -2.251  1.00  0.00     0.050 A 
HETATM   18  C   UNL     1      40.222 -15.331  -3.231  1.00  0.00     0.119 A 
HETATM   19  N   UNL     1      39.245 -14.422  -3.028  1.00  0.00    -0.264 NA
HETATM   20  C   UNL     1      39.121 -13.899  -1.782  1.00  0.00     0.054 A 
HETATM   21  C   UNL     1      38.049 -12.861  -1.617  1.00  0.00     0.072 C 
HETATM   22  C   UNL     1      39.956 -14.279  -0.727  1.00  0.00     0.085 A 
HETATM   23 CL   UNL     1      39.772 -13.587   0.854  1.00  0.00    -0.080 Cl
ENDBRANCH   1  16
TORSDOF 4
ENDMDL
MODEL 4
REMARK VINA RESULT:      -7.2      3.208      7.154
REMARK  4 active torsions:
REMARK  status: ('A' for Active; 'I' for Inactive)
REMARK    1  A    between atoms: C_6  and  N_7 
REMARK       I    between atoms: N_7  and  C_8 
REMARK    2  A    between atoms: C_8  and  C_9 
REMARK    3  A    between atoms: C_9  and  O_10 
REMARK    4  A    between atoms: O_10  and  C_11 
ROOT
HETATM    1  N   UNL     1      41.167 -15.152   1.480  1.00  0.00    -0.323 N 
HETATM    2  C   UNL     1      41.446 -16.443   1.902  1.00  0.00     0.256 C 
HETATM    3  O   UNL     1      40.687 -17.402   1.790  1.00  0.00    -0.270 OA
HETATM    4  H   UNL     1      41.913 -14.467   1.575  1.00  0.00     0.169 HD
ENDROOT
BRANCH   2   5
HETATM    5  C   UNL     1      42.867 -16.593   2.518  1.00  0.00     0.141 C 
HETATM    6  C   UNL     1      43.922 -16.960   1.460  1.00  0.00     0.057 C 
HETATM    7  C   UNL     1      43.269 -15.212   3.080  1.00  0.00     0.057 C 
BRANCH   5   8
HETATM    8  O   UNL     1      42.915 -17.470   3.650  1.00  0.00    -0.331 OA
BRANCH   8   9
HETATM    9  C   UNL     1      43.524 -18.691   3.596  1.00  0.00     0.072 A 
HETATM   10  C   UNL     1      43.436 -19.627   2.568  1.00  0.00     0.060 A 
HETATM   11  C   UNL     1      44.132 -20.836   2.665  1.00  0.00     0.036 A 
HETATM   12 CL   UNL     1      44.032 -21.981   1.383  1.00  0.00    -0.084 Cl
HETATM   13  C   UNL     1      44.908 -21.128   3.785  1.00  0.00     0.024 A 
HETATM   14  C   UNL     1      44.983 -20.205   4.824  1.00  0.00     0.004 A 
HETATM   15  C   UNL     1      44.290 -18.996   4.727  1.00  0.00     0.037 A 
ENDBRANCH   8   9
ENDBRANCH   5   8
ENDBRANCH   2   5
BRANCH   1  16
HETATM   16  C   UNL     1      39.990 -14.679   0.849  1.00  0.00     0.060 A 
HETATM   17  C   UNL     1      38.762 -14.609   1.503  1.00  0.00     0.050 A 
HETATM   18  C   UNL     1      37.666 -14.138   0.803  1.00  0.00     0.119 A 
HETATM   19  N   UNL     1      37.706 -13.751  -0.489  1.00  0.00    -0.264 NA
HETATM   20  C   UNL     1      38.901 -13.819  -1.129  1.00  0.00     0.054 A 
HETATM   21  C   UNL     1      38.886 -13.418  -2.576  1.00  0.00     0.072 C 
HETATM   22  C   UNL     1      40.065 -14.261  -0.492  1.00  0.00     0.085 A 
HETATM   23 CL   UNL     1      41.575 -14.340  -1.342  1.00  0.00    -0.080 Cl
ENDBRANCH   1  16
TORSDOF 4
ENDMDL
MODEL 5
REMARK VINA RESULT:      -7.0      3.262      7.100
REMARK  4 active torsions:
REMARK  status: ('A' for Active; 'I' for Inactive)
REMARK    1  A    between atoms: C_6  and  N_7 
REMARK       I    between atoms: N_7  and  C_8 
REMARK    2  A    between atoms: C_8  and  C_9 
REMARK    3  A    between atoms: C_9  and  O_10 
REMARK    4  A    between atoms: O_10  and  C_11 
ROOT
HETATM    1  N   UNL     1      40.621 -15.618   3.904  1.00  0.00    -0.323 N 
HETATM    2  C   UNL     1      41.995 -15.791   3.849  1.00  0.00     0.256 C 
HETATM    3  O   UNL     1      42.748 -15.227   3.059  1.00  0.00    -0.270 OA
HETATM    4  H   UNL     1      40.128 -16.098   4.652  1.00  0.00     0.169 HD
ENDROOT
BRANCH   2   5
HETATM    5  C   UNL     1      42.534 -16.766   4.935  1.00  0.00     0.141 C 
HETATM    6  C   UNL     1      42.422 -16.177   6.351  1.00  0.00     0.057 C 
HETATM    7  C   UNL     1      41.635 -18.022   4.907  1.00  0.00     0.057 C 
BRANCH   5   8
HETATM    8  O   UNL     1      43.852 -17.261   4.664  1.00  0.00    -0.331 OA
BRANCH   8   9
HETATM    9  C   UNL     1      44.069 -18.522   4.189  1.00  0.00     0.072 A 
HETATM   10  C   UNL     1      44.499 -19.629   4.917  1.00  0.00     0.060 A 
HETATM   11  C   UNL     1      44.668 -20.861   4.277  1.00  0.00     0.036 A 
HETATM   12 CL   UNL     1      45.184 -22.229   5.186  1.00  0.00    -0.084 Cl
HETATM   13  C   UNL     1      44.421 -20.999   2.913  1.00  0.00     0.024 A 
HETATM   14  C   UNL     1      44.009 -19.892   2.177  1.00  0.00     0.004 A 
HETATM   15  C   UNL     1      43.839 -18.661   2.815  1.00  0.00     0.037 A 
ENDBRANCH   8   9
ENDBRANCH   5   8
ENDBRANCH   2   5
BRANCH   1  16
HETATM   16  C   UNL     1      39.818 -14.781   3.090  1.00  0.00     0.060 A 
HETATM   17  C   UNL     1      39.167 -15.241   1.949  1.00  0.00     0.050 A 
HETATM   18  C   UNL     1      38.407 -14.348   1.214  1.00  0.00     0.119 A 
HETATM   19  N   UNL     1      38.266 -13.043   1.528  1.00  0.00    -0.264 NA
HETATM   20  C   UNL     1      38.900 -12.591   2.640  1.00  0.00     0.054 A 
HETATM   21  C   UNL     1      38.748 -11.124   2.923  1.00  0.00     0.072 C 
HETATM   22  C   UNL     1      39.670 -13.429   3.453  1.00  0.00     0.085 A 
HETATM   23 CL   UNL     1      40.471 -12.817   4.865  1.00  0.00    -0.080 Cl
ENDBRANCH   1  16
TORSDOF 4
ENDMDL
MODEL 6
REMARK VINA RESULT:      -6.9      1.361      1.913
REMARK  4 active torsions:
REMARK  status: ('A' for Active; 'I' for Inactive)
REMARK    1  A    between atoms: C_6  and  N_7 
REMARK       I    between atoms: N_7  and  C_8 
REMARK    2  A    between atoms: C_8  and  C_9 
REMARK    3  A    between atoms: C_9  and  O_10 
REMARK    4  A    between atoms: O_10  and  C_11 
ROOT
HETATM    1  N   UNL     1      43.492 -17.699   4.215  1.00  0.00    -0.323 N 
HETATM    2  C   UNL     1      42.227 -17.208   4.493  1.00  0.00     0.256 C 
HETATM    3  O   UNL     1      41.255 -17.892   4.804  1.00  0.00    -0.270 OA
HETATM    4  H   UNL     1      44.221 -17.014   4.034  1.00  0.00     0.169 HD
ENDROOT
BRANCH   2   5
HETATM    5  C   UNL     1      42.140 -15.656   4.412  1.00  0.00     0.141 C 
HETATM    6  C   UNL     1      42.104 -15.004   5.804  1.00  0.00     0.057 C 
HETATM    7  C   UNL     1      43.433 -15.162   3.726  1.00  0.00     0.057 C 
BRANCH   5   8
HETATM    8  O   UNL     1      41.082 -15.180   3.570  1.00  0.00    -0.331 OA
BRANCH   8   9
HETATM    9  C   UNL     1      41.216 -15.098   2.214  1.00  0.00     0.072 A 
HETATM   10  C   UNL     1      41.487 -13.954   1.466  1.00  0.00     0.060 A 
HETATM   11  C   UNL     1      41.600 -14.042   0.075  1.00  0.00     0.036 A 
HETATM   12 CL   UNL     1      41.953 -12.628  -0.841  1.00  0.00    -0.084 Cl
HETATM   13  C   UNL     1      41.435 -15.260  -0.582  1.00  0.00     0.024 A 
HETATM   14  C   UNL     1      41.145 -16.402   0.159  1.00  0.00     0.004 A 
HETATM   15  C   UNL     1      41.033 -16.316   1.549  1.00  0.00     0.037 A 
ENDBRANCH   8   9
ENDBRANCH   5   8
ENDBRANCH   2   5
BRANCH   1  16
HETATM   16  C   UNL     1      43.924 -19.049   4.233  1.00  0.00     0.060 A 
HETATM   17  C   UNL     1      44.320 -19.696   5.401  1.00  0.00     0.050 A 
HETATM   18  C   UNL     1      44.731 -21.015   5.319  1.00  0.00     0.119 A 
HETATM   19  N   UNL     1      44.786 -21.717   4.168  1.00  0.00    -0.264 NA
HETATM   20  C   UNL     1      44.401 -21.089   3.029  1.00  0.00     0.054 A 
HETATM   21  C   UNL     1      44.520 -21.897   1.769  1.00  0.00     0.072 C 
HETATM   22  C   UNL     1      43.951 -19.765   3.022  1.00  0.00     0.085 A 
HETATM   23 CL   UNL     1      43.470 -18.990   1.546  1.00  0.00    -0.080 Cl
ENDBRANCH   1  16
TORSDOF 4
ENDMDL
MODEL 7
REMARK VINA RESULT:      -6.8      3.055      7.126
REMARK  4 active torsions:
REMARK  status: ('A' for Active; 'I' for Inactive)
REMARK    1  A    between atoms: C_6  and  N_7 
REMARK       I    between atoms: N_7  and  C_8 
REMARK    2  A    between atoms: C_8  and  C_9 
REMARK    3  A    between atoms: C_9  and  O_10 
REMARK    4  A    between atoms: O_10  and  C_11 
ROOT
HETATM    1  N   UNL     1      40.930 -15.319   5.320  1.00  0.00    -0.323 N 
HETATM    2  C   UNL     1      42.291 -15.533   5.166  1.00  0.00     0.256 C 
HETATM    3  O   UNL     1      43.116 -14.666   4.891  1.00  0.00    -0.270 OA
HETATM    4  H   UNL     1      40.370 -16.115   5.613  1.00  0.00     0.169 HD
ENDROOT
BRANCH   2   5
HETATM    5  C   UNL     1      42.711 -17.010   5.417  1.00  0.00     0.141 C 
HETATM    6  C   UNL     1      42.739 -17.359   6.914  1.00  0.00     0.057 C 
HETATM    7  C   UNL     1      41.629 -17.907   4.775  1.00  0.00     0.057 C 
BRANCH   5   8
HETATM    8  O   UNL     1      43.926 -17.385   4.756  1.00  0.00    -0.331 OA
BRANCH   8   9
HETATM    9  C   UNL     1      44.131 -18.645   4.274  1.00  0.00     0.072 A 
HETATM   10  C   UNL     1      44.571 -19.756   4.991  1.00  0.00     0.060 A 
HETATM   11  C   UNL     1      44.724 -20.986   4.344  1.00  0.00     0.036 A 
HETATM   12 CL   UNL     1      45.252 -22.359   5.240  1.00  0.00    -0.084 Cl
HETATM   13  C   UNL     1      44.452 -21.119   2.984  1.00  0.00     0.024 A 
HETATM   14  C   UNL     1      44.030 -20.008   2.259  1.00  0.00     0.004 A 
HETATM   15  C   UNL     1      43.876 -18.779   2.904  1.00  0.00     0.037 A 
ENDBRANCH   8   9
ENDBRANCH   5   8
ENDBRANCH   2   5
BRANCH   1  16
HETATM   16  C   UNL     1      40.224 -14.096   5.200  1.00  0.00     0.060 A 
HETATM   17  C   UNL     1      39.889 -13.309   6.299  1.00  0.00     0.050 A 
HETATM   18  C   UNL     1      39.194 -12.132   6.084  1.00  0.00     0.119 A 
HETATM   19  N   UNL     1      38.803 -11.700   4.866  1.00  0.00    -0.264 NA
HETATM   20  C   UNL     1      39.127 -12.465   3.793  1.00  0.00     0.054 A 
HETATM   21  C   UNL     1      38.633 -11.965   2.467  1.00  0.00     0.072 C 
HETATM   22  C   UNL     1      39.848 -13.658   3.917  1.00  0.00     0.085 A 
HETATM   23 CL   UNL     1      40.241 -14.614   2.523  1.00  0.00    -0.080 Cl
ENDBRANCH   1  16
TORSDOF 4
ENDMDL
MODEL 8
REMARK VINA RESULT:      -6.7      3.083      6.774
REMARK  4 active torsions:
REMARK  status: ('A' for Active; 'I' for Inactive)
REMARK    1  A    between atoms: C_6  and  N_7 
REMARK       I    between atoms: N_7  and  C_8 
REMARK    2  A    between atoms: C_8  and  C_9 
REMARK    3  A    between atoms: C_9  and  O_10 
REMARK    4  A    between atoms: O_10  and  C_11 
ROOT
HETATM    1  N   UNL     1      41.882 -14.403   1.816  1.00  0.00    -0.323 N 
HETATM    2  C   UNL     1      40.886 -14.789   2.699  1.00  0.00     0.256 C 
HETATM    3  O   UNL     1      39.687 -14.562   2.554  1.00  0.00    -0.270 OA
HETATM    4  H   UNL     1      42.827 -14.715   2.026  1.00  0.00     0.169 HD
ENDROOT
BRANCH   2   5
HETATM    5  C   UNL     1      41.423 -15.597   3.915  1.00  0.00     0.141 C 
HETATM    6  C   UNL     1      42.892 -15.265   4.229  1.00  0.00     0.057 C 
HETATM    7  C   UNL     1      40.600 -15.164   5.149  1.00  0.00     0.057 C 
BRANCH   5   8
HETATM    8  O   UNL     1      41.203 -17.009   3.814  1.00  0.00    -0.331 OA
BRANCH   8   9
HETATM    9  C   UNL     1      42.217 -17.884   3.553  1.00  0.00     0.072 A 
HETATM   10  C   UNL     1      42.953 -18.615   4.483  1.00  0.00     0.060 A 
HETATM   11  C   UNL     1      43.963 -19.479   4.048  1.00  0.00     0.036 A 
HETATM   12 CL   UNL     1      44.857 -20.393   5.202  1.00  0.00    -0.084 Cl
HETATM   13  C   UNL     1      44.255 -19.615   2.693  1.00  0.00     0.024 A 
HETATM   14  C   UNL     1      43.536 -18.873   1.761  1.00  0.00     0.004 A 
HETATM   15  C   UNL     1      42.526 -18.010   2.193  1.00  0.00     0.037 A 
ENDBRANCH   8   9
ENDBRANCH   5   8
ENDBRANCH   2   5
BRANCH   1  16
HETATM   16  C   UNL     1      41.737 -13.692   0.599  1.00  0.00     0.060 A 
HETATM   17  C   UNL     1      41.838 -12.305   0.521  1.00  0.00     0.050 A 
HETATM   18  C   UNL     1      41.678 -11.698  -0.711  1.00  0.00     0.119 A 
HETATM   19  N   UNL     1      41.412 -12.368  -1.853  1.00  0.00    -0.264 NA
HETATM   20  C   UNL     1      41.312 -13.719  -1.780  1.00  0.00     0.054 A 
HETATM   21  C   UNL     1      40.974 -14.415  -3.067  1.00  0.00     0.072 C 
HETATM   22  C   UNL     1      41.483 -14.417  -0.580  1.00  0.00     0.085 A 
HETATM   23 CL   UNL     1      41.343 -16.146  -0.522  1.00  0.00    -0.080 Cl
ENDBRANCH   1  16
TORSDOF 4
ENDMDL
MODEL 9
REMARK VINA RESULT:      -6.7      2.588      7.019
REMARK  4 active torsions:
REMARK  status: ('A' for Active; 'I' for Inactive)
REMARK    1  A    between atoms: C_6  and  N_7 
REMARK       I    between atoms: N_7  and  C_8 
REMARK    2  A    between atoms: C_8  and  C_9 
REMARK    3  A    between atoms: C_9  and  O_10 
REMARK    4  A    between atoms: O_10  and  C_11 
ROOT
HETATM    1  N   UNL     1      43.354 -15.933   3.476  1.00  0.00    -0.323 N 
HETATM    2  C   UNL     1      42.700 -17.150   3.373  1.00  0.00     0.256 C 
HETATM    3  O   UNL     1      41.624 -17.421   3.899  1.00  0.00    -0.270 OA
HETATM    4  H   UNL     1      44.207 -15.823   2.934  1.00  0.00     0.169 HD
ENDROOT
BRANCH   2   5
HETATM    5  C   UNL     1      43.448 -18.174   2.470  1.00  0.00     0.141 C 
HETATM    6  C   UNL     1      42.503 -19.247   1.903  1.00  0.00     0.057 C 
HETATM    7  C   UNL     1      44.004 -17.392   1.259  1.00  0.00     0.057 C 
BRANCH   5   8
HETATM    8  O   UNL     1      44.605 -18.751   3.088  1.00  0.00    -0.331 OA
BRANCH   8   9
HETATM    9  C   UNL     1      44.512 -19.767   3.994  1.00  0.00     0.072 A 
HETATM   10  C   UNL     1      44.150 -19.664   5.336  1.00  0.00     0.060 A 
HETATM   11  C   UNL     1      44.097 -20.811   6.133  1.00  0.00     0.036 A 
HETATM   12 CL   UNL     1      43.633 -20.678   7.786  1.00  0.00    -0.084 Cl
HETATM   13  C   UNL     1      44.412 -22.063   5.609  1.00  0.00     0.024 A 
HETATM   14  C   UNL     1      44.793 -22.170   4.274  1.00  0.00     0.004 A 
HETATM   15  C   UNL     1      44.845 -21.024   3.476  1.00  0.00     0.037 A 
ENDBRANCH   8   9
ENDBRANCH   5   8
ENDBRANCH   2   5
BRANCH   1  16
HETATM   16  C   UNL     1      42.935 -14.779   4.184  1.00  0.00     0.060 A 
HETATM   17  C   UNL     1      43.324 -14.519   5.495  1.00  0.00     0.050 A 
HETATM   18  C   UNL     1      42.862 -13.367   6.107  1.00  0.00     0.119 A 
HETATM   19  N   UNL     1      42.038 -12.478   5.514  1.00  0.00    -0.264 NA
HETATM   20  C   UNL     1      41.656 -12.729   4.236  1.00  0.00     0.054 A 
HETATM   21  C   UNL     1      40.706 -11.734   3.635  1.00  0.00     0.072 C 
HETATM   22  C   UNL     1      42.095 -13.857   3.534  1.00  0.00     0.085 A 
HETATM   23 CL   UNL     1      41.583 -14.149   1.902  1.00  0.00    -0.080 Cl
ENDBRANCH   1  16
TORSDOF 4
ENDMDL
MODEL 10
REMARK VINA RESULT:      -6.7      2.901      6.418
REMARK  4 active torsions:
REMARK  status: ('A' for Active; 'I' for Inactive)
REMARK    1  A    between atoms: C_6  and  N_7 
REMARK       I    between atoms: N_7  and  C_8 
REMARK    2  A    between atoms: C_8  and  C_9 
REMARK    3  A    between atoms: C_9  and  O_10 
REMARK    4  A    between atoms: O_10  and  C_11 
ROOT
HETATM    1  N   UNL     1      41.691 -14.319   1.912  1.00  0.00    -0.323 N 
HETATM    2  C   UNL     1      40.902 -14.751   2.967  1.00  0.00     0.256 C 
HETATM    3  O   UNL     1      39.690 -14.941   2.911  1.00  0.00    -0.270 OA
HETATM    4  H   UNL     1      42.692 -14.266   2.080  1.00  0.00     0.169 HD
ENDROOT
BRANCH   2   5
HETATM    5  C   UNL     1      41.712 -15.023   4.267  1.00  0.00     0.141 C 
HETATM    6  C   UNL     1      43.199 -14.663   4.111  1.00  0.00     0.057 C 
HETATM    7  C   UNL     1      41.145 -14.090   5.361  1.00  0.00     0.057 C 
BRANCH   5   8
HETATM    8  O   UNL     1      41.533 -16.343   4.794  1.00  0.00    -0.331 OA
BRANCH   8   9
HETATM    9  C   UNL     1      42.405 -17.357   4.520  1.00  0.00     0.072 A 
HETATM   10  C   UNL     1      42.484 -18.101   3.345  1.00  0.00     0.060 A 
HETATM   11  C   UNL     1      43.445 -19.109   3.222  1.00  0.00     0.036 A 
HETATM   12 CL   UNL     1      43.548 -20.013   1.759  1.00  0.00    -0.084 Cl
HETATM   13  C   UNL     1      44.325 -19.392   4.265  1.00  0.00     0.024 A 
HETATM   14  C   UNL     1      44.237 -18.665   5.448  1.00  0.00     0.004 A 
HETATM   15  C   UNL     1      43.278 -17.656   5.573  1.00  0.00     0.037 A 
ENDBRANCH   8   9
ENDBRANCH   5   8
ENDBRANCH   2   5
BRANCH   1  16
HETATM   16  C   UNL     1      41.283 -14.017   0.589  1.00  0.00     0.060 A 
HETATM   17  C   UNL     1      40.880 -12.743   0.198  1.00  0.00     0.050 A 
HETATM   18  C   UNL     1      40.494 -12.544  -1.116  1.00  0.00     0.119 A 
HETATM   19  N   UNL     1      40.470 -13.519  -2.049  1.00  0.00    -0.264 NA
HETATM   20  C   UNL     1      40.862 -14.762  -1.671  1.00  0.00     0.054 A 
HETATM   21  C   UNL     1      40.778 -15.820  -2.733  1.00  0.00     0.072 C 
HETATM   22  C   UNL     1      41.289 -15.047  -0.370  1.00  0.00     0.085 A 
HETATM   23 CL   UNL     1      41.779 -16.649   0.081  1.00  0.00    -0.080 Cl
ENDBRANCH   1  16
TORSDOF 4
ENDMDL
