MODEL 1
REMARK VINA RESULT:      -9.2      0.000      0.000
REMARK  5 active torsions:
REMARK  status: ('A' for Active; 'I' for Inactive)
REMARK    1  A    between atoms: C_6  and  N_7 
REMARK       I    between atoms: N_7  and  C_8 
REMARK       I    between atoms: C_8  and  N_9 
REMARK    2  A    between atoms: N_9  and  C_10 
REMARK    3  A    between atoms: C_10  and  C_11 
REMARK    4  A    between atoms: C_13  and  N_14 
REMARK       I    between atoms: N_14  and  C_15 
REMARK    5  A    between atoms: C_15  and  C_16 
ROOT
HETATM    1  C   UNL     1      43.985 -15.712   6.764  1.00  0.00    -0.038 A 
HETATM    2  C   UNL     1      44.062 -16.669   5.735  1.00  0.00     0.038 A 
HETATM    3  C   UNL     1      43.821 -18.022   5.989  1.00  0.00     0.035 A 
HETATM    4  C   UNL     1      43.470 -18.416   7.285  1.00  0.00     0.029 A 
HETATM    5  C   UNL     1      43.383 -17.477   8.314  1.00  0.00     0.003 A 
HETATM    6  C   UNL     1      43.643 -16.132   8.056  1.00  0.00     0.009 A 
ENDROOT
BRANCH   1   7
HETATM    7  C   UNL     1      44.203 -14.249   6.475  1.00  0.00     0.163 C 
BRANCH   7   8
HETATM    8  N   UNL     1      44.203 -13.434   7.670  1.00  0.00    -0.339 N 
HETATM    9  C   UNL     1      45.359 -12.828   8.053  1.00  0.00     0.320 C 
HETATM   10  N   UNL     1      45.380 -12.207   9.263  1.00  0.00    -0.309 N 
HETATM   11  O   UNL     1      46.391 -12.875   7.386  1.00  0.00    -0.247 OA
HETATM   12  H   UNL     1      46.332 -11.992   9.535  1.00  0.00     0.170 HD
HETATM   13  H   UNL     1      43.655 -13.782   8.444  1.00  0.00     0.164 HD
BRANCH  10  14
HETATM   14  C   UNL     1      44.369 -11.786  10.144  1.00  0.00     0.037 A 
HETATM   15  C   UNL     1      43.478 -10.745   9.887  1.00  0.00     0.049 A 
HETATM   16  C   UNL     1      42.515 -10.382  10.840  1.00  0.00     0.019 A 
HETATM   17  C   UNL     1      42.429 -11.050  12.071  1.00  0.00    -0.044 A 
HETATM   18 BR   UNL     1      41.356  -8.939  10.405  1.00  0.00    -0.051 Br
HETATM   19  C   UNL     1      41.422 -10.684  13.125  1.00  0.00     0.049 C 
HETATM   20  C   UNL     1      43.347 -12.074  12.334  1.00  0.00     0.010 A 
HETATM   21  C   UNL     1      44.308 -12.432  11.384  1.00  0.00     0.030 A 
ENDBRANCH  10  14
ENDBRANCH   7   8
ENDBRANCH   1   7
BRANCH   3  22
HETATM   22  N   UNL     1      43.900 -19.030   5.012  1.00  0.00    -0.321 N 
HETATM   23  C   UNL     1      43.969 -18.891   3.636  1.00  0.00     0.279 C 
HETATM   24  O   UNL     1      43.981 -17.826   3.027  1.00  0.00    -0.265 OA
HETATM   25  H   UNL     1      43.947 -19.988   5.340  1.00  0.00     0.169 HD
BRANCH  23  26
HETATM   26  C   UNL     1      44.045 -20.171   2.953  1.00  0.00     0.142 A 
HETATM   27  O   UNL     1      44.682 -21.224   3.559  1.00  0.00    -0.317 OA
HETATM   28  C   UNL     1      44.600 -22.282   2.712  1.00  0.00     0.143 A 
HETATM   29  C   UNL     1      43.926 -21.933   1.566  1.00  0.00     0.027 A 
HETATM   30  C   UNL     1      43.567 -20.573   1.719  1.00  0.00     0.045 A 
ENDBRANCH  23  26
ENDBRANCH   3  22
TORSDOF 5
ENDMDL
MODEL 2
REMARK VINA RESULT:      -9.0      5.710      8.996
REMARK  5 active torsions:
REMARK  status: ('A' for Active; 'I' for Inactive)
REMARK    1  A    between atoms: C_6  and  N_7 
REMARK       I    between atoms: N_7  and  C_8 
REMARK       I    between atoms: C_8  and  N_9 
REMARK    2  A    between atoms: N_9  and  C_10 
REMARK    3  A    between atoms: C_10  and  C_11 
REMARK    4  A    between atoms: C_13  and  N_14 
REMARK       I    between atoms: N_14  and  C_15 
REMARK    5  A    between atoms: C_15  and  C_16 
ROOT
HETATM    1  C   UNL     1      40.213 -14.763   4.556  1.00  0.00    -0.038 A 
HETATM    2  C   UNL     1      40.202 -15.116   3.194  1.00  0.00     0.038 A 
HETATM    3  C   UNL     1      39.819 -14.197   2.213  1.00  0.00     0.035 A 
HETATM    4  C   UNL     1      39.470 -12.899   2.601  1.00  0.00     0.029 A 
HETATM    5  C   UNL     1      39.484 -12.531   3.948  1.00  0.00     0.003 A 
HETATM    6  C   UNL     1      39.849 -13.459   4.921  1.00  0.00     0.009 A 
ENDROOT
BRANCH   1   7
HETATM    7  C   UNL     1      40.669 -15.745   5.604  1.00  0.00     0.163 C 
BRANCH   7   8
HETATM    8  N   UNL     1      41.739 -16.602   5.143  1.00  0.00    -0.339 N 
HETATM    9  C   UNL     1      43.020 -16.290   5.477  1.00  0.00     0.320 C 
HETATM   10  N   UNL     1      44.020 -17.009   4.897  1.00  0.00    -0.309 N 
HETATM   11  O   UNL     1      43.309 -15.355   6.221  1.00  0.00    -0.247 OA
HETATM   12  H   UNL     1      44.913 -16.554   5.042  1.00  0.00     0.170 HD
HETATM   13  H   UNL     1      41.644 -16.965   4.205  1.00  0.00     0.164 HD
BRANCH  10  14
HETATM   14  C   UNL     1      44.046 -18.233   4.207  1.00  0.00     0.037 A 
HETATM   15  C   UNL     1      44.389 -19.457   4.778  1.00  0.00     0.049 A 
HETATM   16  C   UNL     1      44.409 -20.624   4.000  1.00  0.00     0.019 A 
HETATM   17  C   UNL     1      44.093 -20.587   2.634  1.00  0.00    -0.044 A 
HETATM   18 BR   UNL     1      44.906 -22.243   4.866  1.00  0.00    -0.051 Br
HETATM   19  C   UNL     1      44.115 -21.811   1.762  1.00  0.00     0.049 C 
HETATM   20  C   UNL     1      43.779 -19.349   2.061  1.00  0.00     0.010 A 
HETATM   21  C   UNL     1      43.763 -18.186   2.837  1.00  0.00     0.030 A 
ENDBRANCH  10  14
ENDBRANCH   7   8
ENDBRANCH   1   7
BRANCH   3  22
HETATM   22  N   UNL     1      39.767 -14.491   0.839  1.00  0.00    -0.321 N 
HETATM   23  C   UNL     1      40.750 -14.308  -0.118  1.00  0.00     0.279 C 
HETATM   24  O   UNL     1      41.869 -13.848   0.089  1.00  0.00    -0.265 OA
HETATM   25  H   UNL     1      38.919 -14.927   0.492  1.00  0.00     0.169 HD
BRANCH  23  26
HETATM   26  C   UNL     1      40.326 -14.739  -1.439  1.00  0.00     0.142 A 
HETATM   27  O   UNL     1      39.148 -14.266  -1.959  1.00  0.00    -0.317 OA
HETATM   28  C   UNL     1      39.003 -14.819  -3.190  1.00  0.00     0.143 A 
HETATM   29  C   UNL     1      40.062 -15.647  -3.476  1.00  0.00     0.027 A 
HETATM   30  C   UNL     1      40.916 -15.596  -2.349  1.00  0.00     0.045 A 
ENDBRANCH  23  26
ENDBRANCH   3  22
TORSDOF 5
ENDMDL
MODEL 3
REMARK VINA RESULT:      -8.9      1.697      1.777
REMARK  5 active torsions:
REMARK  status: ('A' for Active; 'I' for Inactive)
REMARK    1  A    between atoms: C_6  and  N_7 
REMARK       I    between atoms: N_7  and  C_8 
REMARK       I    between atoms: C_8  and  N_9 
REMARK    2  A    between atoms: N_9  and  C_10 
REMARK    3  A    between atoms: C_10  and  C_11 
REMARK    4  A    between atoms: C_13  and  N_14 
REMARK       I    between atoms: N_14  and  C_15 
REMARK    5  A    between atoms: C_15  and  C_16 
ROOT
HETATM    1  C   UNL     1      42.358 -15.016   5.422  1.00  0.00    -0.038 A 
HETATM    2  C   UNL     1      42.867 -16.104   4.689  1.00  0.00     0.038 A 
HETATM    3  C   UNL     1      42.252 -17.358   4.739  1.00  0.00     0.035 A 
HETATM    4  C   UNL     1      41.096 -17.515   5.511  1.00  0.00     0.029 A 
HETATM    5  C   UNL     1      40.575 -16.443   6.237  1.00  0.00     0.003 A 
HETATM    6  C   UNL     1      41.204 -15.201   6.196  1.00  0.00     0.009 A 
ENDROOT
BRANCH   1   7
HETATM    7  C   UNL     1      43.000 -13.655   5.330  1.00  0.00     0.163 C 
BRANCH   7   8
HETATM    8  N   UNL     1      43.334 -13.103   6.625  1.00  0.00    -0.339 N 
HETATM    9  C   UNL     1      44.447 -13.553   7.263  1.00  0.00     0.320 C 
HETATM   10  N   UNL     1      44.651 -13.146   8.546  1.00  0.00    -0.309 N 
HETATM   11  O   UNL     1      45.231 -14.354   6.758  1.00  0.00    -0.247 OA
HETATM   12  H   UNL     1      45.371 -13.707   8.986  1.00  0.00     0.170 HD
HETATM   13  H   UNL     1      42.557 -12.926   7.245  1.00  0.00     0.164 HD
BRANCH  10  14
HETATM   14  C   UNL     1      44.105 -12.109   9.322  1.00  0.00     0.037 A 
HETATM   15  C   UNL     1      43.097 -11.246   8.895  1.00  0.00     0.049 A 
HETATM   16  C   UNL     1      42.633 -10.224   9.736  1.00  0.00     0.019 A 
HETATM   17  C   UNL     1      43.173 -10.041  11.017  1.00  0.00    -0.044 A 
HETATM   18 BR   UNL     1      41.268  -9.087   9.057  1.00  0.00    -0.051 Br
HETATM   19  C   UNL     1      42.714  -8.951  11.945  1.00  0.00     0.049 C 
HETATM   20  C   UNL     1      44.206 -10.893  11.428  1.00  0.00     0.010 A 
HETATM   21  C   UNL     1      44.669 -11.909  10.587  1.00  0.00     0.030 A 
ENDBRANCH  10  14
ENDBRANCH   7   8
ENDBRANCH   1   7
BRANCH   3  22
HETATM   22  N   UNL     1      42.721 -18.489   4.048  1.00  0.00    -0.321 N 
HETATM   23  C   UNL     1      43.931 -19.145   4.190  1.00  0.00     0.279 C 
HETATM   24  O   UNL     1      44.820 -18.837   4.978  1.00  0.00    -0.265 OA
HETATM   25  H   UNL     1      42.089 -18.914   3.377  1.00  0.00     0.169 HD
BRANCH  23  26
HETATM   26  C   UNL     1      44.053 -20.285   3.299  1.00  0.00     0.142 A 
HETATM   27  O   UNL     1      44.607 -21.451   3.764  1.00  0.00    -0.317 OA
HETATM   28  C   UNL     1      44.592 -22.340   2.737  1.00  0.00     0.143 A 
HETATM   29  C   UNL     1      44.045 -21.770   1.613  1.00  0.00     0.027 A 
HETATM   30  C   UNL     1      43.696 -20.446   1.973  1.00  0.00     0.045 A 
ENDBRANCH  23  26
ENDBRANCH   3  22
TORSDOF 5
ENDMDL
MODEL 4
REMARK VINA RESULT:      -8.9      3.091      3.773
REMARK  5 active torsions:
REMARK  status: ('A' for Active; 'I' for Inactive)
REMARK    1  A    between atoms: C_6  and  N_7 
REMARK       I    between atoms: N_7  and  C_8 
REMARK       I    between atoms: C_8  and  N_9 
REMARK    2  A    between atoms: N_9  and  C_10 
REMARK    3  A    between atoms: C_10  and  C_11 
REMARK    4  A    between atoms: C_13  and  N_14 
REMARK       I    between atoms: N_14  and  C_15 
REMARK    5  A    between atoms: C_15  and  C_16 
ROOT
HETATM    1  C   UNL     1      41.174 -14.411   4.723  1.00  0.00    -0.038 A 
HETATM    2  C   UNL     1      41.467 -15.745   4.383  1.00  0.00     0.038 A 
HETATM    3  C   UNL     1      42.608 -16.067   3.643  1.00  0.00     0.035 A 
HETATM    4  C   UNL     1      43.480 -15.041   3.263  1.00  0.00     0.029 A 
HETATM    5  C   UNL     1      43.207 -13.715   3.600  1.00  0.00     0.003 A 
HETATM    6  C   UNL     1      42.058 -13.400   4.322  1.00  0.00     0.009 A 
ENDROOT
BRANCH   1   7
HETATM    7  C   UNL     1      39.965 -14.075   5.559  1.00  0.00     0.163 C 
BRANCH   7   8
HETATM    8  N   UNL     1      40.240 -13.073   6.565  1.00  0.00    -0.339 N 
HETATM    9  C   UNL     1      39.538 -11.908   6.541  1.00  0.00     0.320 C 
HETATM   10  N   UNL     1      39.925 -10.916   7.388  1.00  0.00    -0.309 N 
HETATM   11  O   UNL     1      38.623 -11.695   5.748  1.00  0.00    -0.247 OA
HETATM   12  H   UNL     1      39.488 -10.040   7.131  1.00  0.00     0.170 HD
HETATM   13  H   UNL     1      41.209 -12.955   6.820  1.00  0.00     0.164 HD
BRANCH  10  14
HETATM   14  C   UNL     1      40.745 -10.895   8.529  1.00  0.00     0.037 A 
HETATM   15  C   UNL     1      40.288 -11.056   9.837  1.00  0.00     0.049 A 
HETATM   16  C   UNL     1      41.183 -10.995  10.915  1.00  0.00     0.019 A 
HETATM   17  C   UNL     1      42.551 -10.766  10.707  1.00  0.00    -0.044 A 
HETATM   18 BR   UNL     1      40.461 -11.210  12.661  1.00  0.00    -0.051 Br
HETATM   19  C   UNL     1      43.541 -10.681  11.835  1.00  0.00     0.049 C 
HETATM   20  C   UNL     1      42.998 -10.576   9.394  1.00  0.00     0.010 A 
HETATM   21  C   UNL     1      42.104 -10.633   8.320  1.00  0.00     0.030 A 
ENDBRANCH  10  14
ENDBRANCH   7   8
ENDBRANCH   1   7
BRANCH   3  22
HETATM   22  N   UNL     1      42.947 -17.375   3.254  1.00  0.00    -0.321 N 
HETATM   23  C   UNL     1      43.754 -18.286   3.913  1.00  0.00     0.279 C 
HETATM   24  O   UNL     1      44.318 -18.094   4.986  1.00  0.00    -0.265 OA
HETATM   25  H   UNL     1      42.529 -17.725   2.399  1.00  0.00     0.169 HD
BRANCH  23  26
HETATM   26  C   UNL     1      43.867 -19.546   3.199  1.00  0.00     0.142 A 
HETATM   27  O   UNL     1      44.627 -20.558   3.729  1.00  0.00    -0.317 OA
HETATM   28  C   UNL     1      44.552 -21.607   2.870  1.00  0.00     0.143 A 
HETATM   29  C   UNL     1      43.763 -21.292   1.789  1.00  0.00     0.027 A 
HETATM   30  C   UNL     1      43.320 -19.964   2.000  1.00  0.00     0.045 A 
ENDBRANCH  23  26
ENDBRANCH   3  22
TORSDOF 5
ENDMDL
MODEL 5
REMARK VINA RESULT:      -8.7      2.224      2.677
REMARK  5 active torsions:
REMARK  status: ('A' for Active; 'I' for Inactive)
REMARK    1  A    between atoms: C_6  and  N_7 
REMARK       I    between atoms: N_7  and  C_8 
REMARK       I    between atoms: C_8  and  N_9 
REMARK    2  A    between atoms: N_9  and  C_10 
REMARK    3  A    between atoms: C_10  and  C_11 
REMARK    4  A    between atoms: C_13  and  N_14 
REMARK       I    between atoms: N_14  and  C_15 
REMARK    5  A    between atoms: C_15  and  C_16 
ROOT
HETATM    1  C   UNL     1      42.641 -14.958   5.609  1.00  0.00    -0.038 A 
HETATM    2  C   UNL     1      42.681 -16.161   4.879  1.00  0.00     0.038 A 
HETATM    3  C   UNL     1      43.607 -17.161   5.188  1.00  0.00     0.035 A 
HETATM    4  C   UNL     1      44.484 -16.965   6.260  1.00  0.00     0.029 A 
HETATM    5  C   UNL     1      44.450 -15.781   6.998  1.00  0.00     0.003 A 
HETATM    6  C   UNL     1      43.536 -14.781   6.672  1.00  0.00     0.009 A 
ENDROOT
BRANCH   1   7
HETATM    7  C   UNL     1      41.611 -13.902   5.300  1.00  0.00     0.163 C 
BRANCH   7   8
HETATM    8  N   UNL     1      41.535 -12.877   6.318  1.00  0.00    -0.339 N 
HETATM    9  C   UNL     1      41.427 -11.576   5.934  1.00  0.00     0.320 C 
HETATM   10  N   UNL     1      41.525 -10.620   6.897  1.00  0.00    -0.309 N 
HETATM   11  O   UNL     1      41.313 -11.233   4.759  1.00  0.00    -0.247 OA
HETATM   12  H   UNL     1      41.653  -9.707   6.478  1.00  0.00     0.170 HD
HETATM   13  H   UNL     1      42.123 -13.011   7.127  1.00  0.00     0.164 HD
BRANCH  10  14
HETATM   14  C   UNL     1      41.438 -10.658   8.299  1.00  0.00     0.037 A 
HETATM   15  C   UNL     1      42.528 -10.575   9.164  1.00  0.00     0.049 A 
HETATM   16  C   UNL     1      42.342 -10.646  10.552  1.00  0.00     0.019 A 
HETATM   17  C   UNL     1      41.062 -10.808  11.102  1.00  0.00    -0.044 A 
HETATM   18 BR   UNL     1      43.893 -10.540  11.648  1.00  0.00    -0.051 Br
HETATM   19  C   UNL     1      40.820 -10.902  12.583  1.00  0.00     0.049 C 
HETATM   20  C   UNL     1      39.975 -10.921  10.227  1.00  0.00     0.010 A 
HETATM   21  C   UNL     1      40.163 -10.854   8.843  1.00  0.00     0.030 A 
ENDBRANCH  10  14
ENDBRANCH   7   8
ENDBRANCH   1   7
BRANCH   3  22
HETATM   22  N   UNL     1      43.713 -18.376   4.487  1.00  0.00    -0.321 N 
HETATM   23  C   UNL     1      43.999 -18.574   3.148  1.00  0.00     0.279 C 
HETATM   24  O   UNL     1      44.223 -17.689   2.328  1.00  0.00    -0.265 OA
HETATM   25  H   UNL     1      43.601 -19.229   5.024  1.00  0.00     0.169 HD
BRANCH  23  26
HETATM   26  C   UNL     1      44.028 -19.981   2.788  1.00  0.00     0.142 A 
HETATM   27  O   UNL     1      44.692 -20.871   3.595  1.00  0.00    -0.317 OA
HETATM   28  C   UNL     1      44.554 -22.100   3.033  1.00  0.00     0.143 A 
HETATM   29  C   UNL     1      43.819 -22.022   1.874  1.00  0.00     0.027 A 
HETATM   30  C   UNL     1      43.478 -20.658   1.715  1.00  0.00     0.045 A 
ENDBRANCH  23  26
ENDBRANCH   3  22
TORSDOF 5
ENDMDL
MODEL 6
REMARK VINA RESULT:      -8.6      6.358      9.435
REMARK  5 active torsions:
REMARK  status: ('A' for Active; 'I' for Inactive)
REMARK    1  A    between atoms: C_6  and  N_7 
REMARK       I    between atoms: N_7  and  C_8 
REMARK       I    between atoms: C_8  and  N_9 
REMARK    2  A    between atoms: N_9  and  C_10 
REMARK    3  A    between atoms: C_10  and  C_11 
REMARK    4  A    between atoms: C_13  and  N_14 
REMARK       I    between atoms: N_14  and  C_15 
REMARK    5  A    between atoms: C_15  and  C_16 
ROOT
HETATM    1  C   UNL     1      39.777 -14.135   3.684  1.00  0.00    -0.038 A 
HETATM    2  C   UNL     1      39.620 -14.627   2.374  1.00  0.00     0.038 A 
HETATM    3  C   UNL     1      39.076 -13.829   1.364  1.00  0.00     0.035 A 
HETATM    4  C   UNL     1      38.712 -12.511   1.664  1.00  0.00     0.029 A 
HETATM    5  C   UNL     1      38.870 -12.008   2.956  1.00  0.00     0.003 A 
HETATM    6  C   UNL     1      39.395 -12.816   3.962  1.00  0.00     0.009 A 
ENDROOT
BRANCH   1   7
HETATM    7  C   UNL     1      40.404 -14.987   4.758  1.00  0.00     0.163 C 
BRANCH   7   8
HETATM    8  N   UNL     1      41.454 -15.844   4.252  1.00  0.00    -0.339 N 
HETATM    9  C   UNL     1      42.705 -15.332   4.102  1.00  0.00     0.320 C 
HETATM   10  N   UNL     1      43.634 -16.101   3.471  1.00  0.00    -0.309 N 
HETATM   11  O   UNL     1      43.008 -14.192   4.450  1.00  0.00    -0.247 OA
HETATM   12  H   UNL     1      44.444 -15.545   3.222  1.00  0.00     0.170 HD
HETATM   13  H   UNL     1      41.189 -16.484   3.517  1.00  0.00     0.164 HD
BRANCH  10  14
HETATM   14  C   UNL     1      43.695 -17.470   3.159  1.00  0.00     0.037 A 
HETATM   15  C   UNL     1      44.126 -18.464   4.036  1.00  0.00     0.049 A 
HETATM   16  C   UNL     1      44.174 -19.804   3.623  1.00  0.00     0.019 A 
HETATM   17  C   UNL     1      43.797 -20.174   2.324  1.00  0.00    -0.044 A 
HETATM   18 BR   UNL     1      44.791 -21.085   4.886  1.00  0.00    -0.051 Br
HETATM   19  C   UNL     1      43.846 -21.595   1.837  1.00  0.00     0.049 C 
HETATM   20  C   UNL     1      43.394 -19.165   1.439  1.00  0.00     0.010 A 
HETATM   21  C   UNL     1      43.351 -17.830   1.851  1.00  0.00     0.030 A 
ENDBRANCH  10  14
ENDBRANCH   7   8
ENDBRANCH   1   7
BRANCH   3  22
HETATM   22  N   UNL     1      38.875 -14.265   0.043  1.00  0.00    -0.321 N 
HETATM   23  C   UNL     1      39.600 -13.940  -1.091  1.00  0.00     0.279 C 
HETATM   24  O   UNL     1      40.577 -13.198  -1.124  1.00  0.00    -0.265 OA
HETATM   25  H   UNL     1      38.125 -14.930  -0.114  1.00  0.00     0.169 HD
BRANCH  23  26
HETATM   26  C   UNL     1      39.090 -14.595  -2.283  1.00  0.00     0.142 A 
HETATM   27  O   UNL     1      39.874 -15.511  -2.939  1.00  0.00    -0.317 OA
HETATM   28  C   UNL     1      39.157 -15.964  -3.999  1.00  0.00     0.143 A 
HETATM   29  C   UNL     1      37.925 -15.356  -4.046  1.00  0.00     0.027 A 
HETATM   30  C   UNL     1      37.880 -14.474  -2.940  1.00  0.00     0.045 A 
ENDBRANCH  23  26
ENDBRANCH   3  22
TORSDOF 5
ENDMDL
MODEL 7
REMARK VINA RESULT:      -8.4      4.088      9.959
REMARK  5 active torsions:
REMARK  status: ('A' for Active; 'I' for Inactive)
REMARK    1  A    between atoms: C_6  and  N_7 
REMARK       I    between atoms: N_7  and  C_8 
REMARK       I    between atoms: C_8  and  N_9 
REMARK    2  A    between atoms: N_9  and  C_10 
REMARK    3  A    between atoms: C_10  and  C_11 
REMARK    4  A    between atoms: C_13  and  N_14 
REMARK       I    between atoms: N_14  and  C_15 
REMARK    5  A    between atoms: C_15  and  C_16 
ROOT
HETATM    1  C   UNL     1      41.226 -12.636   3.909  1.00  0.00    -0.038 A 
HETATM    2  C   UNL     1      41.958 -12.476   5.101  1.00  0.00     0.038 A 
HETATM    3  C   UNL     1      41.352 -11.979   6.258  1.00  0.00     0.035 A 
HETATM    4  C   UNL     1      39.988 -11.666   6.228  1.00  0.00     0.029 A 
HETATM    5  C   UNL     1      39.248 -11.827   5.055  1.00  0.00     0.003 A 
HETATM    6  C   UNL     1      39.865 -12.305   3.901  1.00  0.00     0.009 A 
ENDROOT
BRANCH   1   7
HETATM    7  C   UNL     1      41.875 -13.214   2.677  1.00  0.00     0.163 C 
BRANCH   7   8
HETATM    8  N   UNL     1      41.952 -14.658   2.708  1.00  0.00    -0.339 N 
HETATM    9  C   UNL     1      40.976 -15.381   2.097  1.00  0.00     0.320 C 
HETATM   10  N   UNL     1      40.976 -16.729   2.281  1.00  0.00    -0.309 N 
HETATM   11  O   UNL     1      40.067 -14.865   1.450  1.00  0.00    -0.247 OA
HETATM   12  H   UNL     1      40.097 -17.129   1.974  1.00  0.00     0.170 HD
HETATM   13  H   UNL     1      42.276 -15.066   3.573  1.00  0.00     0.164 HD
BRANCH  10  14
HETATM   14  C   UNL     1      41.944 -17.634   2.751  1.00  0.00     0.037 A 
HETATM   15  C   UNL     1      42.240 -17.848   4.096  1.00  0.00     0.049 A 
HETATM   16  C   UNL     1      43.242 -18.757   4.468  1.00  0.00     0.019 A 
HETATM   17  C   UNL     1      43.970 -19.465   3.500  1.00  0.00    -0.044 A 
HETATM   18 BR   UNL     1      43.584 -18.969   6.326  1.00  0.00    -0.051 Br
HETATM   19  C   UNL     1      45.060 -20.438   3.854  1.00  0.00     0.049 C 
HETATM   20  C   UNL     1      43.687 -19.221   2.150  1.00  0.00     0.010 A 
HETATM   21  C   UNL     1      42.692 -18.312   1.782  1.00  0.00     0.030 A 
ENDBRANCH  10  14
ENDBRANCH   7   8
ENDBRANCH   1   7
BRANCH   3  22
HETATM   22  N   UNL     1      42.029 -11.777   7.474  1.00  0.00    -0.321 N 
HETATM   23  C   UNL     1      42.341 -10.582   8.097  1.00  0.00     0.279 C 
HETATM   24  O   UNL     1      42.058  -9.464   7.676  1.00  0.00    -0.265 OA
HETATM   25  H   UNL     1      42.303 -12.605   7.992  1.00  0.00     0.169 HD
BRANCH  23  26
HETATM   26  C   UNL     1      43.047 -10.777   9.351  1.00  0.00     0.142 A 
HETATM   27  O   UNL     1      44.413 -10.652   9.384  1.00  0.00    -0.317 OA
HETATM   28  C   UNL     1      44.805 -10.877  10.665  1.00  0.00     0.143 A 
HETATM   29  C   UNL     1      43.718 -11.151  11.462  1.00  0.00     0.027 A 
HETATM   30  C   UNL     1      42.585 -11.086  10.617  1.00  0.00     0.045 A 
ENDBRANCH  23  26
ENDBRANCH   3  22
TORSDOF 5
ENDMDL
MODEL 8
REMARK VINA RESULT:      -8.4      4.538      8.250
REMARK  5 active torsions:
REMARK  status: ('A' for Active; 'I' for Inactive)
REMARK    1  A    between atoms: C_6  and  N_7 
REMARK       I    between atoms: N_7  and  C_8 
REMARK       I    between atoms: C_8  and  N_9 
REMARK    2  A    between atoms: N_9  and  C_10 
REMARK    3  A    between atoms: C_10  and  C_11 
REMARK    4  A    between atoms: C_13  and  N_14 
REMARK       I    between atoms: N_14  and  C_15 
REMARK    5  A    between atoms: C_15  and  C_16 
ROOT
HETATM    1  C   UNL     1      43.286 -14.323   5.819  1.00  0.00    -0.038 A 
HETATM    2  C   UNL     1      43.093 -14.628   4.459  1.00  0.00     0.038 A 
HETATM    3  C   UNL     1      42.339 -13.790   3.632  1.00  0.00     0.035 A 
HETATM    4  C   UNL     1      41.797 -12.617   4.169  1.00  0.00     0.029 A 
HETATM    5  C   UNL     1      41.987 -12.298   5.515  1.00  0.00     0.003 A 
HETATM    6  C   UNL     1      42.725 -13.148   6.337  1.00  0.00     0.009 A 
ENDROOT
BRANCH   1   7
HETATM    7  C   UNL     1      44.136 -15.208   6.695  1.00  0.00     0.163 C 
BRANCH   7   8
HETATM    8  N   UNL     1      44.122 -16.592   6.276  1.00  0.00    -0.339 N 
HETATM    9  C   UNL     1      43.845 -17.554   7.196  1.00  0.00     0.320 C 
HETATM   10  N   UNL     1      44.000 -18.854   6.823  1.00  0.00    -0.309 N 
HETATM   11  O   UNL     1      43.527 -17.299   8.356  1.00  0.00    -0.247 OA
HETATM   12  H   UNL     1      43.984 -19.460   7.634  1.00  0.00     0.170 HD
HETATM   13  H   UNL     1      44.833 -16.862   5.612  1.00  0.00     0.164 HD
BRANCH  10  14
HETATM   14  C   UNL     1      44.126 -19.485   5.573  1.00  0.00     0.037 A 
HETATM   15  C   UNL     1      43.793 -18.899   4.353  1.00  0.00     0.049 A 
HETATM   16  C   UNL     1      43.932 -19.619   3.157  1.00  0.00     0.019 A 
HETATM   17  C   UNL     1      44.400 -20.941   3.160  1.00  0.00    -0.044 A 
HETATM   18 BR   UNL     1      43.436 -18.740   1.546  1.00  0.00    -0.051 Br
HETATM   19  C   UNL     1      44.551 -21.753   1.904  1.00  0.00     0.049 C 
HETATM   20  C   UNL     1      44.704 -21.533   4.393  1.00  0.00     0.010 A 
HETATM   21  C   UNL     1      44.561 -20.815   5.583  1.00  0.00     0.030 A 
ENDBRANCH  10  14
ENDBRANCH   7   8
ENDBRANCH   1   7
BRANCH   3  22
HETATM   22  N   UNL     1      42.092 -14.046   2.271  1.00  0.00    -0.321 N 
HETATM   23  C   UNL     1      41.429 -15.120   1.705  1.00  0.00     0.279 C 
HETATM   24  O   UNL     1      40.924 -16.052   2.322  1.00  0.00    -0.265 OA
HETATM   25  H   UNL     1      42.404 -13.346   1.606  1.00  0.00     0.169 HD
BRANCH  23  26
HETATM   26  C   UNL     1      41.368 -15.033   0.256  1.00  0.00     0.142 A 
HETATM   27  O   UNL     1      41.544 -13.818  -0.356  1.00  0.00    -0.317 OA
HETATM   28  C   UNL     1      41.444 -14.026  -1.695  1.00  0.00     0.143 A 
HETATM   29  C   UNL     1      41.201 -15.352  -1.961  1.00  0.00     0.027 A 
HETATM   30  C   UNL     1      41.152 -16.003  -0.705  1.00  0.00     0.045 A 
ENDBRANCH  23  26
ENDBRANCH   3  22
TORSDOF 5
ENDMDL
MODEL 9
REMARK VINA RESULT:      -8.3      4.441     10.123
REMARK  5 active torsions:
REMARK  status: ('A' for Active; 'I' for Inactive)
REMARK    1  A    between atoms: C_6  and  N_7 
REMARK       I    between atoms: N_7  and  C_8 
REMARK       I    between atoms: C_8  and  N_9 
REMARK    2  A    between atoms: N_9  and  C_10 
REMARK    3  A    between atoms: C_10  and  C_11 
REMARK    4  A    between atoms: C_13  and  N_14 
REMARK       I    between atoms: N_14  and  C_15 
REMARK    5  A    between atoms: C_15  and  C_16 
ROOT
HETATM    1  C   UNL     1      41.581 -13.057   3.729  1.00  0.00    -0.038 A 
HETATM    2  C   UNL     1      42.257 -12.745   4.923  1.00  0.00     0.038 A 
HETATM    3  C   UNL     1      41.563 -12.295   6.049  1.00  0.00     0.035 A 
HETATM    4  C   UNL     1      40.169 -12.183   5.985  1.00  0.00     0.029 A 
HETATM    5  C   UNL     1      39.484 -12.497   4.810  1.00  0.00     0.003 A 
HETATM    6  C   UNL     1      40.187 -12.928   3.687  1.00  0.00     0.009 A 
ENDROOT
BRANCH   1   7
HETATM    7  C   UNL     1      42.332 -13.584   2.533  1.00  0.00     0.163 C 
BRANCH   7   8
HETATM    8  N   UNL     1      42.437 -15.027   2.527  1.00  0.00    -0.339 N 
HETATM    9  C   UNL     1      41.587 -15.744   1.743  1.00  0.00     0.320 C 
HETATM   10  N   UNL     1      41.590 -17.098   1.878  1.00  0.00    -0.309 N 
HETATM   11  O   UNL     1      40.782 -15.221   0.975  1.00  0.00    -0.247 OA
HETATM   12  H   UNL     1      40.781 -17.501   1.420  1.00  0.00     0.170 HD
HETATM   13  H   UNL     1      42.627 -15.462   3.418  1.00  0.00     0.164 HD
BRANCH  10  14
HETATM   14  C   UNL     1      42.490 -18.002   2.467  1.00  0.00     0.037 A 
HETATM   15  C   UNL     1      42.861 -19.226   1.911  1.00  0.00     0.049 A 
HETATM   16  C   UNL     1      43.752 -20.073   2.587  1.00  0.00     0.019 A 
HETATM   17  C   UNL     1      44.282 -19.715   3.835  1.00  0.00    -0.044 A 
HETATM   18 BR   UNL     1      44.184 -21.728   1.756  1.00  0.00    -0.051 Br
HETATM   19  C   UNL     1      45.228 -20.599   4.599  1.00  0.00     0.049 C 
HETATM   20  C   UNL     1      43.881 -18.499   4.401  1.00  0.00     0.010 A 
HETATM   21  C   UNL     1      42.991 -17.657   3.727  1.00  0.00     0.030 A 
ENDBRANCH  10  14
ENDBRANCH   7   8
ENDBRANCH   1   7
BRANCH   3  22
HETATM   22  N   UNL     1      42.179 -11.947   7.264  1.00  0.00    -0.321 N 
HETATM   23  C   UNL     1      42.310 -10.693   7.835  1.00  0.00     0.279 C 
HETATM   24  O   UNL     1      41.888  -9.645   7.357  1.00  0.00    -0.265 OA
HETATM   25  H   UNL     1      42.551 -12.706   7.826  1.00  0.00     0.169 HD
BRANCH  23  26
HETATM   26  C   UNL     1      43.008 -10.733   9.109  1.00  0.00     0.142 A 
HETATM   27  O   UNL     1      44.377 -10.829   9.126  1.00  0.00    -0.317 OA
HETATM   28  C   UNL     1      44.760 -10.841  10.429  1.00  0.00     0.143 A 
HETATM   29  C   UNL     1      43.665 -10.761  11.256  1.00  0.00     0.027 A 
HETATM   30  C   UNL     1      42.536 -10.691  10.407  1.00  0.00     0.045 A 
ENDBRANCH  23  26
ENDBRANCH   3  22
TORSDOF 5
ENDMDL
MODEL 10
REMARK VINA RESULT:      -8.3      3.909      9.294
REMARK  5 active torsions:
REMARK  status: ('A' for Active; 'I' for Inactive)
REMARK    1  A    between atoms: C_6  and  N_7 
REMARK       I    between atoms: N_7  and  C_8 
REMARK       I    between atoms: C_8  and  N_9 
REMARK    2  A    between atoms: N_9  and  C_10 
REMARK    3  A    between atoms: C_10  and  C_11 
REMARK    4  A    between atoms: C_13  and  N_14 
REMARK       I    between atoms: N_14  and  C_15 
REMARK    5  A    between atoms: C_15  and  C_16 
ROOT
HETATM    1  C   UNL     1      40.286 -14.973   2.738  1.00  0.00    -0.038 A 
HETATM    2  C   UNL     1      41.370 -14.813   3.622  1.00  0.00     0.038 A 
HETATM    3  C   UNL     1      41.546 -13.629   4.342  1.00  0.00     0.035 A 
HETATM    4  C   UNL     1      40.607 -12.602   4.196  1.00  0.00     0.029 A 
HETATM    5  C   UNL     1      39.522 -12.749   3.330  1.00  0.00     0.003 A 
HETATM    6  C   UNL     1      39.364 -13.926   2.602  1.00  0.00     0.009 A 
ENDROOT
BRANCH   1   7
HETATM    7  C   UNL     1      40.078 -16.269   1.998  1.00  0.00     0.163 C 
BRANCH   7   8
HETATM    8  N   UNL     1      41.209 -17.164   2.104  1.00  0.00    -0.339 N 
HETATM    9  C   UNL     1      42.096 -17.226   1.074  1.00  0.00     0.320 C 
HETATM   10  N   UNL     1      43.055 -18.191   1.120  1.00  0.00    -0.309 N 
HETATM   11  O   UNL     1      42.025 -16.499   0.085  1.00  0.00    -0.247 OA
HETATM   12  H   UNL     1      43.506 -18.285   0.218  1.00  0.00     0.170 HD
HETATM   13  H   UNL     1      41.028 -18.059   2.535  1.00  0.00     0.164 HD
BRANCH  10  14
HETATM   14  C   UNL     1      43.544 -19.009   2.152  1.00  0.00     0.037 A 
HETATM   15  C   UNL     1      43.892 -18.556   3.424  1.00  0.00     0.049 A 
HETATM   16  C   UNL     1      44.395 -19.448   4.383  1.00  0.00     0.019 A 
HETATM   17  C   UNL     1      44.566 -20.808   4.086  1.00  0.00    -0.044 A 
HETATM   18 BR   UNL     1      44.857 -18.732   6.084  1.00  0.00    -0.051 Br
HETATM   19  C   UNL     1      45.115 -21.794   5.079  1.00  0.00     0.049 C 
HETATM   20  C   UNL     1      44.243 -21.249   2.797  1.00  0.00     0.010 A 
HETATM   21  C   UNL     1      43.745 -20.359   1.841  1.00  0.00     0.030 A 
ENDBRANCH  10  14
ENDBRANCH   7   8
ENDBRANCH   1   7
BRANCH   3  22
HETATM   22  N   UNL     1      42.617 -13.398   5.224  1.00  0.00    -0.321 N 
HETATM   23  C   UNL     1      43.151 -14.254   6.171  1.00  0.00     0.279 C 
HETATM   24  O   UNL     1      42.766 -15.398   6.396  1.00  0.00    -0.265 OA
HETATM   25  H   UNL     1      43.093 -12.506   5.147  1.00  0.00     0.169 HD
BRANCH  23  26
HETATM   26  C   UNL     1      44.262 -13.660   6.893  1.00  0.00     0.142 A 
HETATM   27  O   UNL     1      44.019 -12.949   8.042  1.00  0.00    -0.317 OA
HETATM   28  C   UNL     1      45.219 -12.517   8.507  1.00  0.00     0.143 A 
HETATM   29  C   UNL     1      46.235 -12.928   7.678  1.00  0.00     0.027 A 
HETATM   30  C   UNL     1      45.620 -13.666   6.638  1.00  0.00     0.045 A 
ENDBRANCH  23  26
ENDBRANCH   3  22
TORSDOF 5
ENDMDL
