MODEL 1
REMARK VINA RESULT:      -8.7      0.000      0.000
REMARK  8 active torsions:
REMARK  status: ('A' for Active; 'I' for Inactive)
REMARK    1  A    between atoms: C_2  and  C_3 
REMARK    2  A    between atoms: C_3  and  N_4 
REMARK    3  A    between atoms: C_7  and  C_8 
REMARK       I    between atoms: C_8  and  N_9 
REMARK    4  A    between atoms: N_9  and  N_10 
REMARK       I    between atoms: N_10  and  C_11 
REMARK    5  A    between atoms: C_11  and  C_12 
REMARK    6  A    between atoms: C_15  and  O_16 
REMARK    7  A    between atoms: O_16  and  C_17 
REMARK    8  A    between atoms: C_23  and  C_24 
ROOT
HETATM    1  C   UNL     1      43.710 -16.702   7.120  1.00  0.00     0.273 C 
HETATM    2  N   UNL     1      44.171 -15.431   6.828  1.00  0.00    -0.263 N 
HETATM    3  O   UNL     1      43.107 -16.935   8.164  1.00  0.00    -0.266 OA
HETATM    4  H   UNL     1      44.779 -15.213   6.040  1.00  0.00     0.190 HD
ENDROOT
BRANCH   2   5
HETATM    5  N   UNL     1      43.953 -14.406   7.755  1.00  0.00    -0.263 N 
HETATM    6  C   UNL     1      44.865 -13.373   7.807  1.00  0.00     0.270 C 
HETATM    7  O   UNL     1      45.839 -13.316   7.060  1.00  0.00    -0.266 OA
HETATM    8  H   UNL     1      43.245 -14.585   8.465  1.00  0.00     0.190 HD
BRANCH   6   9
HETATM    9  C   UNL     1      44.627 -12.325   8.837  1.00  0.00     0.033 A 
HETATM   10  C   UNL     1      43.457 -11.563   8.752  1.00  0.00     0.020 A 
HETATM   11  C   UNL     1      43.190 -10.580   9.709  1.00  0.00     0.038 A 
HETATM   12  C   UNL     1      44.075 -10.353  10.766  1.00  0.00     0.068 A 
HETATM   13  C   UNL     1      45.239 -11.118  10.857  1.00  0.00     0.038 A 
HETATM   14  C   UNL     1      45.514 -12.104   9.900  1.00  0.00     0.020 A 
BRANCH  12  15
HETATM   15  O   UNL     1      43.689  -9.369  11.632  1.00  0.00    -0.352 OA
BRANCH  15  16
HETATM   16  C   UNL     1      42.461  -9.564  12.333  1.00  0.00     0.171 C 
HETATM   17  C   UNL     1      42.781 -10.222  13.664  1.00  0.00     0.034 C 
ENDBRANCH  15  16
ENDBRANCH  12  15
ENDBRANCH   6   9
ENDBRANCH   2   5
BRANCH   1  18
HETATM   18  C   UNL     1      43.973 -17.680   6.079  1.00  0.00     0.077 A 
HETATM   19  C   UNL     1      45.124 -18.505   6.015  1.00  0.00     0.158 A 
HETATM   20  N   UNL     1      45.137 -19.312   4.960  1.00  0.00    -0.183 NA
HETATM   21  N   UNL     1      44.010 -18.989   4.296  1.00  0.00    -0.268 N 
HETATM   22  C   UNL     1      43.236 -18.051   4.956  1.00  0.00     0.052 A 
BRANCH  21  23
HETATM   23  C   UNL     1      43.770 -19.616   2.996  1.00  0.00     0.106 C 
HETATM   24  C   UNL     1      43.949 -18.602   1.859  1.00  0.00     0.034 C 
BRANCH  23  25
HETATM   25  C   UNL     1      44.659 -20.852   2.768  1.00  0.00     0.022 C 
HETATM   26  C   UNL     1      44.077 -21.827   1.754  1.00  0.00     0.007 C 
ENDBRANCH  23  25
ENDBRANCH  21  23
BRANCH  22  27
HETATM   27  C   UNL     1      41.843 -17.618   4.490  1.00  0.00     0.038 A 
HETATM   28  C   UNL     1      40.738 -17.382   5.492  1.00  0.00     0.011 A 
HETATM   29  C   UNL     1      41.332 -16.226   4.758  1.00  0.00     0.011 A 
ENDBRANCH  22  27
ENDBRANCH   1  18
TORSDOF 8
ENDMDL
MODEL 2
REMARK VINA RESULT:      -7.9      1.720      2.226
REMARK  8 active torsions:
REMARK  status: ('A' for Active; 'I' for Inactive)
REMARK    1  A    between atoms: C_2  and  C_3 
REMARK    2  A    between atoms: C_3  and  N_4 
REMARK    3  A    between atoms: C_7  and  C_8 
REMARK       I    between atoms: C_8  and  N_9 
REMARK    4  A    between atoms: N_9  and  N_10 
REMARK       I    between atoms: N_10  and  C_11 
REMARK    5  A    between atoms: C_11  and  C_12 
REMARK    6  A    between atoms: C_15  and  O_16 
REMARK    7  A    between atoms: O_16  and  C_17 
REMARK    8  A    between atoms: C_23  and  C_24 
ROOT
HETATM    1  C   UNL     1      42.526 -14.244   5.678  1.00  0.00     0.273 C 
HETATM    2  N   UNL     1      43.609 -13.776   6.400  1.00  0.00    -0.263 N 
HETATM    3  O   UNL     1      41.386 -13.850   5.915  1.00  0.00    -0.266 OA
HETATM    4  H   UNL     1      44.550 -14.160   6.327  1.00  0.00     0.190 HD
ENDROOT
BRANCH   2   5
HETATM    5  N   UNL     1      43.387 -12.849   7.424  1.00  0.00    -0.263 N 
HETATM    6  C   UNL     1      44.394 -12.644   8.343  1.00  0.00     0.270 C 
HETATM    7  O   UNL     1      45.474 -13.228   8.279  1.00  0.00    -0.266 OA
HETATM    8  H   UNL     1      42.427 -12.530   7.540  1.00  0.00     0.190 HD
BRANCH   6   9
HETATM    9  C   UNL     1      44.105 -11.686   9.445  1.00  0.00     0.033 A 
HETATM   10  C   UNL     1      42.930 -10.930   9.378  1.00  0.00     0.020 A 
HETATM   11  C   UNL     1      42.616 -10.031  10.400  1.00  0.00     0.038 A 
HETATM   12  C   UNL     1      43.457  -9.884  11.505  1.00  0.00     0.068 A 
HETATM   13  C   UNL     1      44.626 -10.643  11.579  1.00  0.00     0.038 A 
HETATM   14  C   UNL     1      44.949 -11.545  10.555  1.00  0.00     0.020 A 
BRANCH  12  15
HETATM   15  O   UNL     1      43.026  -8.978  12.433  1.00  0.00    -0.352 OA
BRANCH  15  16
HETATM   16  C   UNL     1      43.322  -9.256  13.801  1.00  0.00     0.171 C 
HETATM   17  C   UNL     1      42.252 -10.195  14.330  1.00  0.00     0.034 C 
ENDBRANCH  15  16
ENDBRANCH  12  15
ENDBRANCH   6   9
ENDBRANCH   2   5
BRANCH   1  18
HETATM   18  C   UNL     1      42.875 -15.185   4.628  1.00  0.00     0.077 A 
HETATM   19  C   UNL     1      43.479 -14.834   3.395  1.00  0.00     0.158 A 
HETATM   20  N   UNL     1      43.690 -15.875   2.597  1.00  0.00    -0.183 NA
HETATM   21  N   UNL     1      43.182 -16.916   3.285  1.00  0.00    -0.268 N 
HETATM   22  C   UNL     1      42.730 -16.568   4.545  1.00  0.00     0.052 A 
BRANCH  21  23
HETATM   23  C   UNL     1      43.140 -18.224   2.631  1.00  0.00     0.106 C 
HETATM   24  C   UNL     1      43.233 -18.074   1.107  1.00  0.00     0.034 C 
BRANCH  23  25
HETATM   25  C   UNL     1      44.233 -19.175   3.151  1.00  0.00     0.022 C 
HETATM   26  C   UNL     1      44.194 -20.546   2.490  1.00  0.00     0.007 C 
ENDBRANCH  23  25
ENDBRANCH  21  23
BRANCH  22  27
HETATM   27  C   UNL     1      42.239 -17.583   5.583  1.00  0.00     0.038 A 
HETATM   28  C   UNL     1      43.220 -18.284   6.493  1.00  0.00     0.011 A 
HETATM   29  C   UNL     1      42.280 -17.269   7.056  1.00  0.00     0.011 A 
ENDBRANCH  22  27
ENDBRANCH   1  18
TORSDOF 8
ENDMDL
MODEL 3
REMARK VINA RESULT:      -7.7      2.034      9.891
REMARK  8 active torsions:
REMARK  status: ('A' for Active; 'I' for Inactive)
REMARK    1  A    between atoms: C_2  and  C_3 
REMARK    2  A    between atoms: C_3  and  N_4 
REMARK    3  A    between atoms: C_7  and  C_8 
REMARK       I    between atoms: C_8  and  N_9 
REMARK    4  A    between atoms: N_9  and  N_10 
REMARK       I    between atoms: N_10  and  C_11 
REMARK    5  A    between atoms: C_11  and  C_12 
REMARK    6  A    between atoms: C_15  and  O_16 
REMARK    7  A    between atoms: O_16  and  C_17 
REMARK    8  A    between atoms: C_23  and  C_24 
ROOT
HETATM    1  C   UNL     1      44.860 -13.100   8.023  1.00  0.00     0.273 C 
HETATM    2  N   UNL     1      44.078 -14.240   8.024  1.00  0.00    -0.263 N 
HETATM    3  O   UNL     1      45.647 -12.870   7.107  1.00  0.00    -0.266 OA
HETATM    4  H   UNL     1      43.505 -14.537   8.813  1.00  0.00     0.190 HD
ENDROOT
BRANCH   2   5
HETATM    5  N   UNL     1      44.205 -15.146   6.965  1.00  0.00    -0.263 N 
HETATM    6  C   UNL     1      43.791 -16.446   7.170  1.00  0.00     0.270 C 
HETATM    7  O   UNL     1      43.301 -16.822   8.232  1.00  0.00    -0.266 OA
HETATM    8  H   UNL     1      44.774 -14.840   6.178  1.00  0.00     0.190 HD
BRANCH   6   9
HETATM    9  C   UNL     1      43.986 -17.392   6.038  1.00  0.00     0.033 A 
HETATM   10  C   UNL     1      43.470 -17.045   4.784  1.00  0.00     0.020 A 
HETATM   11  C   UNL     1      43.645 -17.901   3.693  1.00  0.00     0.038 A 
HETATM   12  C   UNL     1      44.344 -19.102   3.833  1.00  0.00     0.068 A 
HETATM   13  C   UNL     1      44.867 -19.446   5.080  1.00  0.00     0.038 A 
HETATM   14  C   UNL     1      44.693 -18.594   6.180  1.00  0.00     0.020 A 
BRANCH  12  15
HETATM   15  O   UNL     1      44.448 -19.838   2.686  1.00  0.00    -0.352 OA
BRANCH  15  16
HETATM   16  C   UNL     1      44.539 -21.255   2.828  1.00  0.00     0.171 C 
HETATM   17  C   UNL     1      44.007 -21.888   1.554  1.00  0.00     0.034 C 
ENDBRANCH  15  16
ENDBRANCH  12  15
ENDBRANCH   6   9
ENDBRANCH   2   5
BRANCH   1  18
HETATM   18  C   UNL     1      44.630 -12.222   9.157  1.00  0.00     0.077 A 
HETATM   19  C   UNL     1      45.579 -11.948  10.174  1.00  0.00     0.158 A 
HETATM   20  N   UNL     1      45.125 -11.121  11.109  1.00  0.00    -0.183 NA
HETATM   21  N   UNL     1      43.853 -10.880  10.734  1.00  0.00    -0.268 N 
HETATM   22  C   UNL     1      43.517 -11.472   9.530  1.00  0.00     0.052 A 
BRANCH  21  23
HETATM   23  C   UNL     1      43.008 -10.086  11.627  1.00  0.00     0.106 C 
HETATM   24  C   UNL     1      41.797 -10.900  12.099  1.00  0.00     0.034 C 
BRANCH  23  25
HETATM   25  C   UNL     1      43.789  -9.526  12.829  1.00  0.00     0.022 C 
HETATM   26  C   UNL     1      42.930  -9.364  14.076  1.00  0.00     0.007 C 
ENDBRANCH  23  25
ENDBRANCH  21  23
BRANCH  22  27
HETATM   27  C   UNL     1      42.185 -11.240   8.811  1.00  0.00     0.038 A 
HETATM   28  C   UNL     1      41.876  -9.902   8.183  1.00  0.00     0.011 A 
HETATM   29  C   UNL     1      42.126 -11.089   7.313  1.00  0.00     0.011 A 
ENDBRANCH  22  27
ENDBRANCH   1  18
TORSDOF 8
ENDMDL
MODEL 4
REMARK VINA RESULT:      -7.6      6.879     10.150
REMARK  8 active torsions:
REMARK  status: ('A' for Active; 'I' for Inactive)
REMARK    1  A    between atoms: C_2  and  C_3 
REMARK    2  A    between atoms: C_3  and  N_4 
REMARK    3  A    between atoms: C_7  and  C_8 
REMARK       I    between atoms: C_8  and  N_9 
REMARK    4  A    between atoms: N_9  and  N_10 
REMARK       I    between atoms: N_10  and  C_11 
REMARK    5  A    between atoms: C_11  and  C_12 
REMARK    6  A    between atoms: C_15  and  O_16 
REMARK    7  A    between atoms: O_16  and  C_17 
REMARK    8  A    between atoms: C_23  and  C_24 
ROOT
HETATM    1  C   UNL     1      41.377 -14.649  -0.221  1.00  0.00     0.273 C 
HETATM    2  N   UNL     1      41.634 -15.978  -0.500  1.00  0.00    -0.263 N 
HETATM    3  O   UNL     1      41.867 -14.100   0.763  1.00  0.00    -0.266 OA
HETATM    4  H   UNL     1      41.158 -16.509  -1.228  1.00  0.00     0.190 HD
ENDROOT
BRANCH   2   5
HETATM    5  N   UNL     1      42.455 -16.704   0.370  1.00  0.00    -0.263 N 
HETATM    6  C   UNL     1      41.853 -17.555   1.273  1.00  0.00     0.270 C 
HETATM    7  O   UNL     1      40.634 -17.709   1.322  1.00  0.00    -0.266 OA
HETATM    8  H   UNL     1      43.430 -16.413   0.415  1.00  0.00     0.190 HD
BRANCH   6   9
HETATM    9  C   UNL     1      42.754 -18.273   2.214  1.00  0.00     0.033 A 
HETATM   10  C   UNL     1      43.267 -19.517   1.826  1.00  0.00     0.020 A 
HETATM   11  C   UNL     1      44.128 -20.216   2.676  1.00  0.00     0.038 A 
HETATM   12  C   UNL     1      44.500 -19.682   3.912  1.00  0.00     0.068 A 
HETATM   13  C   UNL     1      43.997 -18.439   4.297  1.00  0.00     0.038 A 
HETATM   14  C   UNL     1      43.130 -17.733   3.452  1.00  0.00     0.020 A 
BRANCH  12  15
HETATM   15  O   UNL     1      45.352 -20.466   4.638  1.00  0.00    -0.352 OA
BRANCH  15  16
HETATM   16  C   UNL     1      44.835 -21.697   5.142  1.00  0.00     0.171 C 
HETATM   17  C   UNL     1      44.019 -21.388   6.385  1.00  0.00     0.034 C 
ENDBRANCH  15  16
ENDBRANCH  12  15
ENDBRANCH   6   9
ENDBRANCH   2   5
BRANCH   1  18
HETATM   18  C   UNL     1      40.531 -13.990  -1.201  1.00  0.00     0.077 A 
HETATM   19  C   UNL     1      40.981 -13.471  -2.441  1.00  0.00     0.158 A 
HETATM   20  N   UNL     1      40.016 -12.907  -3.157  1.00  0.00    -0.183 NA
HETATM   21  N   UNL     1      38.928 -13.012  -2.369  1.00  0.00    -0.268 N 
HETATM   22  C   UNL     1      39.166 -13.711  -1.200  1.00  0.00     0.052 A 
BRANCH  21  23
HETATM   23  C   UNL     1      37.689 -12.370  -2.811  1.00  0.00     0.106 C 
HETATM   24  C   UNL     1      37.911 -10.874  -3.068  1.00  0.00     0.034 C 
BRANCH  23  25
HETATM   25  C   UNL     1      37.087 -13.051  -4.053  1.00  0.00     0.022 C 
HETATM   26  C   UNL     1      37.014 -14.567  -3.926  1.00  0.00     0.007 C 
ENDBRANCH  23  25
ENDBRANCH  21  23
BRANCH  22  27
HETATM   27  C   UNL     1      38.071 -14.095  -0.200  1.00  0.00     0.038 A 
HETATM   28  C   UNL     1      38.308 -13.963   1.285  1.00  0.00     0.011 A 
HETATM   29  C   UNL     1      37.349 -13.044   0.603  1.00  0.00     0.011 A 
ENDBRANCH  22  27
ENDBRANCH   1  18
TORSDOF 8
ENDMDL
MODEL 5
REMARK VINA RESULT:      -7.5      2.257      3.059
REMARK  8 active torsions:
REMARK  status: ('A' for Active; 'I' for Inactive)
REMARK    1  A    between atoms: C_2  and  C_3 
REMARK    2  A    between atoms: C_3  and  N_4 
REMARK    3  A    between atoms: C_7  and  C_8 
REMARK       I    between atoms: C_8  and  N_9 
REMARK    4  A    between atoms: N_9  and  N_10 
REMARK       I    between atoms: N_10  and  C_11 
REMARK    5  A    between atoms: C_11  and  C_12 
REMARK    6  A    between atoms: C_15  and  O_16 
REMARK    7  A    between atoms: O_16  and  C_17 
REMARK    8  A    between atoms: C_23  and  C_24 
ROOT
HETATM    1  C   UNL     1      43.832 -14.087   6.350  1.00  0.00     0.273 C 
HETATM    2  N   UNL     1      43.241 -12.885   6.692  1.00  0.00    -0.263 N 
HETATM    3  O   UNL     1      44.487 -14.729   7.168  1.00  0.00    -0.266 OA
HETATM    4  H   UNL     1      42.796 -12.259   6.022  1.00  0.00     0.190 HD
ENDROOT
BRANCH   2   5
HETATM    5  N   UNL     1      43.413 -12.394   7.991  1.00  0.00    -0.263 N 
HETATM    6  C   UNL     1      42.766 -11.226   8.335  1.00  0.00     0.270 C 
HETATM    7  O   UNL     1      42.037 -10.622   7.552  1.00  0.00    -0.266 OA
HETATM    8  H   UNL     1      44.158 -12.823   8.538  1.00  0.00     0.190 HD
BRANCH   6   9
HETATM    9  C   UNL     1      43.010 -10.709   9.709  1.00  0.00     0.033 A 
HETATM   10  C   UNL     1      42.069  -9.837  10.268  1.00  0.00     0.020 A 
HETATM   11  C   UNL     1      42.255  -9.341  11.561  1.00  0.00     0.038 A 
HETATM   12  C   UNL     1      43.368  -9.717  12.317  1.00  0.00     0.068 A 
HETATM   13  C   UNL     1      44.303 -10.594  11.765  1.00  0.00     0.038 A 
HETATM   14  C   UNL     1      44.125 -11.093  10.467  1.00  0.00     0.020 A 
BRANCH  12  15
HETATM   15  O   UNL     1      43.422  -9.166  13.567  1.00  0.00    -0.352 OA
BRANCH  15  16
HETATM   16  C   UNL     1      42.179  -8.845  14.191  1.00  0.00     0.171 C 
HETATM   17  C   UNL     1      42.027  -9.733  15.413  1.00  0.00     0.034 C 
ENDBRANCH  15  16
ENDBRANCH  12  15
ENDBRANCH   6   9
ENDBRANCH   2   5
BRANCH   1  18
HETATM   18  C   UNL     1      43.571 -14.509   4.985  1.00  0.00     0.077 A 
HETATM   19  C   UNL     1      43.622 -13.659   3.851  1.00  0.00     0.158 A 
HETATM   20  N   UNL     1      43.333 -14.280   2.713  1.00  0.00    -0.183 NA
HETATM   21  N   UNL     1      43.046 -15.539   3.099  1.00  0.00    -0.268 N 
HETATM   22  C   UNL     1      43.230 -15.751   4.453  1.00  0.00     0.052 A 
BRANCH  21  23
HETATM   23  C   UNL     1      42.560 -16.478   2.088  1.00  0.00     0.106 C 
HETATM   24  C   UNL     1      41.693 -15.758   1.047  1.00  0.00     0.034 C 
BRANCH  23  25
HETATM   25  C   UNL     1      43.704 -17.248   1.404  1.00  0.00     0.022 C 
HETATM   26  C   UNL     1      43.769 -18.711   1.818  1.00  0.00     0.007 C 
ENDBRANCH  23  25
ENDBRANCH  21  23
BRANCH  22  27
HETATM   27  C   UNL     1      43.112 -17.123   5.124  1.00  0.00     0.038 A 
HETATM   28  C   UNL     1      42.172 -17.329   6.287  1.00  0.00     0.011 A 
HETATM   29  C   UNL     1      41.868 -17.959   4.968  1.00  0.00     0.011 A 
ENDBRANCH  22  27
ENDBRANCH   1  18
TORSDOF 8
ENDMDL
MODEL 6
REMARK VINA RESULT:      -7.4      6.127      9.736
REMARK  8 active torsions:
REMARK  status: ('A' for Active; 'I' for Inactive)
REMARK    1  A    between atoms: C_2  and  C_3 
REMARK    2  A    between atoms: C_3  and  N_4 
REMARK    3  A    between atoms: C_7  and  C_8 
REMARK       I    between atoms: C_8  and  N_9 
REMARK    4  A    between atoms: N_9  and  N_10 
REMARK       I    between atoms: N_10  and  C_11 
REMARK    5  A    between atoms: C_11  and  C_12 
REMARK    6  A    between atoms: C_15  and  O_16 
REMARK    7  A    between atoms: O_16  and  C_17 
REMARK    8  A    between atoms: C_23  and  C_24 
ROOT
HETATM    1  C   UNL     1      41.117 -17.261   2.236  1.00  0.00     0.273 C 
HETATM    2  N   UNL     1      40.422 -16.072   2.355  1.00  0.00    -0.263 N 
HETATM    3  O   UNL     1      41.160 -17.868   1.168  1.00  0.00    -0.266 OA
HETATM    4  H   UNL     1      40.253 -15.598   3.242  1.00  0.00     0.190 HD
ENDROOT
BRANCH   2   5
HETATM    5  N   UNL     1      39.749 -15.569   1.237  1.00  0.00    -0.263 N 
HETATM    6  C   UNL     1      40.345 -14.551   0.523  1.00  0.00     0.270 C 
HETATM    7  O   UNL     1      41.444 -14.091   0.824  1.00  0.00    -0.266 OA
HETATM    8  H   UNL     1      38.775 -15.850   1.134  1.00  0.00     0.190 HD
BRANCH   6   9
HETATM    9  C   UNL     1      39.578 -14.008  -0.631  1.00  0.00     0.033 A 
HETATM   10  C   UNL     1      39.974 -14.373  -1.923  1.00  0.00     0.020 A 
HETATM   11  C   UNL     1      39.271 -13.897  -3.032  1.00  0.00     0.038 A 
HETATM   12  C   UNL     1      38.160 -13.066  -2.871  1.00  0.00     0.068 A 
HETATM   13  C   UNL     1      37.758 -12.708  -1.583  1.00  0.00     0.038 A 
HETATM   14  C   UNL     1      38.460 -13.179  -0.465  1.00  0.00     0.020 A 
BRANCH  12  15
HETATM   15  O   UNL     1      37.562 -12.680  -4.037  1.00  0.00    -0.352 OA
BRANCH  15  16
HETATM   16  C   UNL     1      36.141 -12.799  -4.111  1.00  0.00     0.171 C 
HETATM   17  C   UNL     1      35.818 -14.064  -4.886  1.00  0.00     0.034 C 
ENDBRANCH  15  16
ENDBRANCH  12  15
ENDBRANCH   6   9
ENDBRANCH   2   5
BRANCH   1  18
HETATM   18  C   UNL     1      41.794 -17.677   3.452  1.00  0.00     0.077 A 
HETATM   19  C   UNL     1      41.354 -17.378   4.766  1.00  0.00     0.158 A 
HETATM   20  N   UNL     1      42.151 -17.863   5.712  1.00  0.00    -0.183 NA
HETATM   21  N   UNL     1      43.149 -18.448   5.021  1.00  0.00    -0.268 N 
HETATM   22  C   UNL     1      42.956 -18.419   3.652  1.00  0.00     0.052 A 
BRANCH  21  23
HETATM   23  C   UNL     1      44.284 -18.988   5.770  1.00  0.00     0.106 C 
HETATM   24  C   UNL     1      45.088 -17.860   6.430  1.00  0.00     0.034 C 
BRANCH  23  25
HETATM   25  C   UNL     1      43.853 -20.032   6.816  1.00  0.00     0.022 C 
HETATM   26  C   UNL     1      44.097 -21.465   6.364  1.00  0.00     0.007 C 
ENDBRANCH  23  25
ENDBRANCH  21  23
BRANCH  22  27
HETATM   27  C   UNL     1      43.865 -19.137   2.649  1.00  0.00     0.038 A 
HETATM   28  C   UNL     1      44.352 -20.539   2.923  1.00  0.00     0.011 A 
HETATM   29  C   UNL     1      43.359 -20.299   1.835  1.00  0.00     0.011 A 
ENDBRANCH  22  27
ENDBRANCH   1  18
TORSDOF 8
ENDMDL
MODEL 7
REMARK VINA RESULT:      -7.3      6.117      9.739
REMARK  8 active torsions:
REMARK  status: ('A' for Active; 'I' for Inactive)
REMARK    1  A    between atoms: C_2  and  C_3 
REMARK    2  A    between atoms: C_3  and  N_4 
REMARK    3  A    between atoms: C_7  and  C_8 
REMARK       I    between atoms: C_8  and  N_9 
REMARK    4  A    between atoms: N_9  and  N_10 
REMARK       I    between atoms: N_10  and  C_11 
REMARK    5  A    between atoms: C_11  and  C_12 
REMARK    6  A    between atoms: C_15  and  O_16 
REMARK    7  A    between atoms: O_16  and  C_17 
REMARK    8  A    between atoms: C_23  and  C_24 
ROOT
HETATM    1  C   UNL     1      41.394 -17.134   2.130  1.00  0.00     0.273 C 
HETATM    2  N   UNL     1      41.488 -15.772   1.908  1.00  0.00    -0.263 N 
HETATM    3  O   UNL     1      40.890 -17.881   1.295  1.00  0.00    -0.266 OA
HETATM    4  H   UNL     1      41.782 -15.100   2.615  1.00  0.00     0.190 HD
ENDROOT
BRANCH   2   5
HETATM    5  N   UNL     1      40.982 -15.247   0.714  1.00  0.00    -0.263 N 
HETATM    6  C   UNL     1      39.794 -14.549   0.764  1.00  0.00     0.270 C 
HETATM    7  O   UNL     1      39.185 -14.359   1.814  1.00  0.00    -0.266 OA
HETATM    8  H   UNL     1      41.419 -15.579  -0.144  1.00  0.00     0.190 HD
BRANCH   6   9
HETATM    9  C   UNL     1      39.262 -14.046  -0.532  1.00  0.00     0.033 A 
HETATM   10  C   UNL     1      38.174 -13.166  -0.508  1.00  0.00     0.020 A 
HETATM   11  C   UNL     1      37.655 -12.661  -1.703  1.00  0.00     0.038 A 
HETATM   12  C   UNL     1      38.219 -13.012  -2.931  1.00  0.00     0.068 A 
HETATM   13  C   UNL     1      39.310 -13.883  -2.958  1.00  0.00     0.038 A 
HETATM   14  C   UNL     1      39.834 -14.396  -1.763  1.00  0.00     0.020 A 
BRANCH  12  15
HETATM   15  O   UNL     1      37.619 -12.441  -4.018  1.00  0.00    -0.352 OA
BRANCH  15  16
HETATM   16  C   UNL     1      36.221 -12.671  -4.187  1.00  0.00     0.171 C 
HETATM   17  C   UNL     1      36.040 -14.080  -4.725  1.00  0.00     0.034 C 
ENDBRANCH  15  16
ENDBRANCH  12  15
ENDBRANCH   6   9
ENDBRANCH   2   5
BRANCH   1  18
HETATM   18  C   UNL     1      41.969 -17.570   3.391  1.00  0.00     0.077 A 
HETATM   19  C   UNL     1      41.459 -17.239   4.671  1.00  0.00     0.158 A 
HETATM   20  N   UNL     1      42.169 -17.751   5.670  1.00  0.00    -0.183 NA
HETATM   21  N   UNL     1      43.181 -18.389   5.050  1.00  0.00    -0.268 N 
HETATM   22  C   UNL     1      43.079 -18.364   3.671  1.00  0.00     0.052 A 
BRANCH  21  23
HETATM   23  C   UNL     1      44.238 -18.975   5.875  1.00  0.00     0.106 C 
HETATM   24  C   UNL     1      45.180 -17.888   6.407  1.00  0.00     0.034 C 
BRANCH  23  25
HETATM   25  C   UNL     1      43.677 -19.822   7.032  1.00  0.00     0.022 C 
HETATM   26  C   UNL     1      43.747 -21.319   6.764  1.00  0.00     0.007 C 
ENDBRANCH  23  25
ENDBRANCH  21  23
BRANCH  22  27
HETATM   27  C   UNL     1      44.017 -19.132   2.734  1.00  0.00     0.038 A 
HETATM   28  C   UNL     1      44.296 -20.599   2.963  1.00  0.00     0.011 A 
HETATM   29  C   UNL     1      43.485 -20.174   1.784  1.00  0.00     0.011 A 
ENDBRANCH  22  27
ENDBRANCH   1  18
TORSDOF 8
ENDMDL
MODEL 8
REMARK VINA RESULT:      -7.2      5.700      7.584
REMARK  8 active torsions:
REMARK  status: ('A' for Active; 'I' for Inactive)
REMARK    1  A    between atoms: C_2  and  C_3 
REMARK    2  A    between atoms: C_3  and  N_4 
REMARK    3  A    between atoms: C_7  and  C_8 
REMARK       I    between atoms: C_8  and  N_9 
REMARK    4  A    between atoms: N_9  and  N_10 
REMARK       I    between atoms: N_10  and  C_11 
REMARK    5  A    between atoms: C_11  and  C_12 
REMARK    6  A    between atoms: C_15  and  O_16 
REMARK    7  A    between atoms: O_16  and  C_17 
REMARK    8  A    between atoms: C_23  and  C_24 
ROOT
HETATM    1  C   UNL     1      41.877 -16.511   4.218  1.00  0.00     0.273 C 
HETATM    2  N   UNL     1      40.664 -16.720   3.589  1.00  0.00    -0.263 N 
HETATM    3  O   UNL     1      42.231 -15.385   4.560  1.00  0.00    -0.266 OA
HETATM    4  H   UNL     1      40.381 -17.608   3.178  1.00  0.00     0.190 HD
ENDROOT
BRANCH   2   5
HETATM    5  N   UNL     1      39.842 -15.618   3.328  1.00  0.00    -0.263 N 
HETATM    6  C   UNL     1      39.740 -15.177   2.026  1.00  0.00     0.270 C 
HETATM    7  O   UNL     1      40.327 -15.727   1.096  1.00  0.00    -0.266 OA
HETATM    8  H   UNL     1      39.524 -15.093   4.141  1.00  0.00     0.190 HD
BRANCH   6   9
HETATM    9  C   UNL     1      38.895 -13.974   1.794  1.00  0.00     0.033 A 
HETATM   10  C   UNL     1      39.191 -12.806   2.506  1.00  0.00     0.020 A 
HETATM   11  C   UNL     1      38.429 -11.652   2.305  1.00  0.00     0.038 A 
HETATM   12  C   UNL     1      37.376 -11.641   1.388  1.00  0.00     0.068 A 
HETATM   13  C   UNL     1      37.084 -12.803   0.671  1.00  0.00     0.038 A 
HETATM   14  C   UNL     1      37.842 -13.966   0.869  1.00  0.00     0.020 A 
BRANCH  12  15
HETATM   15  O   UNL     1      36.721 -10.446   1.285  1.00  0.00    -0.352 OA
BRANCH  15  16
HETATM   16  C   UNL     1      35.365 -10.484   0.841  1.00  0.00     0.171 C 
HETATM   17  C   UNL     1      34.701  -9.181   1.253  1.00  0.00     0.034 C 
ENDBRANCH  15  16
ENDBRANCH  12  15
ENDBRANCH   6   9
ENDBRANCH   2   5
BRANCH   1  18
HETATM   18  C   UNL     1      42.638 -17.726   4.456  1.00  0.00     0.077 A 
HETATM   19  C   UNL     1      42.567 -18.508   5.636  1.00  0.00     0.158 A 
HETATM   20  N   UNL     1      43.368 -19.567   5.615  1.00  0.00    -0.183 NA
HETATM   21  N   UNL     1      44.008 -19.463   4.434  1.00  0.00    -0.268 N 
HETATM   22  C   UNL     1      43.564 -18.403   3.665  1.00  0.00     0.052 A 
BRANCH  21  23
HETATM   23  C   UNL     1      45.073 -20.421   4.137  1.00  0.00     0.106 C 
HETATM   24  C   UNL     1      44.999 -21.628   5.081  1.00  0.00     0.034 C 
BRANCH  23  25
HETATM   25  C   UNL     1      45.058 -20.878   2.668  1.00  0.00     0.022 C 
HETATM   26  C   UNL     1      43.959 -21.888   2.368  1.00  0.00     0.007 C 
ENDBRANCH  23  25
ENDBRANCH  21  23
BRANCH  22  27
HETATM   27  C   UNL     1      44.022 -18.145   2.225  1.00  0.00     0.038 A 
HETATM   28  C   UNL     1      43.015 -18.066   1.103  1.00  0.00     0.011 A 
HETATM   29  C   UNL     1      43.735 -16.833   1.542  1.00  0.00     0.011 A 
ENDBRANCH  22  27
ENDBRANCH   1  18
TORSDOF 8
ENDMDL
MODEL 9
REMARK VINA RESULT:      -7.2      6.134      9.630
REMARK  8 active torsions:
REMARK  status: ('A' for Active; 'I' for Inactive)
REMARK    1  A    between atoms: C_2  and  C_3 
REMARK    2  A    between atoms: C_3  and  N_4 
REMARK    3  A    between atoms: C_7  and  C_8 
REMARK       I    between atoms: C_8  and  N_9 
REMARK    4  A    between atoms: N_9  and  N_10 
REMARK       I    between atoms: N_10  and  C_11 
REMARK    5  A    between atoms: C_11  and  C_12 
REMARK    6  A    between atoms: C_15  and  O_16 
REMARK    7  A    between atoms: O_16  and  C_17 
REMARK    8  A    between atoms: C_23  and  C_24 
ROOT
HETATM    1  C   UNL     1      41.848 -17.638   1.194  1.00  0.00     0.273 C 
HETATM    2  N   UNL     1      42.475 -16.707   0.387  1.00  0.00    -0.263 N 
HETATM    3  O   UNL     1      40.649 -17.882   1.071  1.00  0.00    -0.266 OA
HETATM    4  H   UNL     1      43.430 -16.382   0.530  1.00  0.00     0.190 HD
ENDROOT
BRANCH   2   5
HETATM    5  N   UNL     1      41.718 -16.028  -0.573  1.00  0.00    -0.263 N 
HETATM    6  C   UNL     1      41.318 -14.738  -0.291  1.00  0.00     0.270 C 
HETATM    7  O   UNL     1      41.620 -14.169   0.756  1.00  0.00    -0.266 OA
HETATM    8  H   UNL     1      41.344 -16.593  -1.333  1.00  0.00     0.190 HD
BRANCH   6   9
HETATM    9  C   UNL     1      40.473 -14.064  -1.314  1.00  0.00     0.033 A 
HETATM   10  C   UNL     1      39.127 -13.825  -1.013  1.00  0.00     0.020 A 
HETATM   11  C   UNL     1      38.306 -13.181  -1.942  1.00  0.00     0.038 A 
HETATM   12  C   UNL     1      38.814 -12.756  -3.172  1.00  0.00     0.068 A 
HETATM   13  C   UNL     1      40.158 -12.985  -3.470  1.00  0.00     0.038 A 
HETATM   14  C   UNL     1      40.988 -13.634  -2.545  1.00  0.00     0.020 A 
BRANCH  12  15
HETATM   15  O   UNL     1      37.905 -12.134  -3.981  1.00  0.00    -0.352 OA
BRANCH  15  16
HETATM   16  C   UNL     1      36.627 -12.753  -4.120  1.00  0.00     0.171 C 
HETATM   17  C   UNL     1      35.568 -11.669  -4.016  1.00  0.00     0.034 C 
ENDBRANCH  15  16
ENDBRANCH  12  15
ENDBRANCH   6   9
ENDBRANCH   2   5
BRANCH   1  18
HETATM   18  C   UNL     1      42.733 -18.297   2.139  1.00  0.00     0.077 A 
HETATM   19  C   UNL     1      43.848 -19.095   1.781  1.00  0.00     0.158 A 
HETATM   20  N   UNL     1      44.496 -19.595   2.828  1.00  0.00    -0.183 NA
HETATM   21  N   UNL     1      43.780 -19.163   3.884  1.00  0.00    -0.268 N 
HETATM   22  C   UNL     1      42.738 -18.324   3.532  1.00  0.00     0.052 A 
BRANCH  21  23
HETATM   23  C   UNL     1      44.154 -19.641   5.216  1.00  0.00     0.106 C 
HETATM   24  C   UNL     1      44.778 -21.040   5.137  1.00  0.00     0.034 C 
BRANCH  23  25
HETATM   25  C   UNL     1      45.094 -18.666   5.946  1.00  0.00     0.022 C 
HETATM   26  C   UNL     1      44.590 -18.273   7.328  1.00  0.00     0.007 C 
ENDBRANCH  23  25
ENDBRANCH  21  23
BRANCH  22  27
HETATM   27  C   UNL     1      41.861 -17.583   4.546  1.00  0.00     0.038 A 
HETATM   28  C   UNL     1      42.315 -16.270   5.137  1.00  0.00     0.011 A 
HETATM   29  C   UNL     1      41.169 -16.295   4.181  1.00  0.00     0.011 A 
ENDBRANCH  22  27
ENDBRANCH   1  18
TORSDOF 8
ENDMDL
MODEL 10
REMARK VINA RESULT:      -7.0      4.333     10.776
REMARK  8 active torsions:
REMARK  status: ('A' for Active; 'I' for Inactive)
REMARK    1  A    between atoms: C_2  and  C_3 
REMARK    2  A    between atoms: C_3  and  N_4 
REMARK    3  A    between atoms: C_7  and  C_8 
REMARK       I    between atoms: C_8  and  N_9 
REMARK    4  A    between atoms: N_9  and  N_10 
REMARK       I    between atoms: N_10  and  C_11 
REMARK    5  A    between atoms: C_11  and  C_12 
REMARK    6  A    between atoms: C_15  and  O_16 
REMARK    7  A    between atoms: O_16  and  C_17 
REMARK    8  A    between atoms: C_23  and  C_24 
ROOT
HETATM    1  C   UNL     1      41.765 -10.101   8.439  1.00  0.00     0.273 C 
HETATM    2  N   UNL     1      41.252 -11.379   8.314  1.00  0.00    -0.263 N 
HETATM    3  O   UNL     1      42.145  -9.469   7.455  1.00  0.00    -0.266 OA
HETATM    4  H   UNL     1      41.041 -11.986   9.105  1.00  0.00     0.190 HD
ENDROOT
BRANCH   2   5
HETATM    5  N   UNL     1      41.183 -11.957   7.042  1.00  0.00    -0.263 N 
HETATM    6  C   UNL     1      39.952 -12.377   6.585  1.00  0.00     0.270 C 
HETATM    7  O   UNL     1      38.923 -12.242   7.245  1.00  0.00    -0.266 OA
HETATM    8  H   UNL     1      42.073 -12.209   6.615  1.00  0.00     0.190 HD
BRANCH   6   9
HETATM    9  C   UNL     1      39.925 -13.030   5.248  1.00  0.00     0.033 A 
HETATM   10  C   UNL     1      40.353 -14.359   5.149  1.00  0.00     0.020 A 
HETATM   11  C   UNL     1      40.329 -15.012   3.914  1.00  0.00     0.038 A 
HETATM   12  C   UNL     1      39.868 -14.358   2.769  1.00  0.00     0.068 A 
HETATM   13  C   UNL     1      39.432 -13.036   2.867  1.00  0.00     0.038 A 
HETATM   14  C   UNL     1      39.457 -12.373   4.103  1.00  0.00     0.020 A 
BRANCH  12  15
HETATM   15  O   UNL     1      39.891 -15.115   1.631  1.00  0.00    -0.352 OA
BRANCH  15  16
HETATM   16  C   UNL     1      40.396 -16.445   1.744  1.00  0.00     0.171 C 
HETATM   17  C   UNL     1      41.425 -16.650   0.646  1.00  0.00     0.034 C 
ENDBRANCH  15  16
ENDBRANCH  12  15
ENDBRANCH   6   9
ENDBRANCH   2   5
BRANCH   1  18
HETATM   18  C   UNL     1      41.769  -9.594   9.800  1.00  0.00     0.077 A 
HETATM   19  C   UNL     1      40.694  -8.899  10.409  1.00  0.00     0.158 A 
HETATM   20  N   UNL     1      40.946  -8.530  11.660  1.00  0.00    -0.183 NA
HETATM   21  N   UNL     1      42.212  -8.942  11.867  1.00  0.00    -0.268 N 
HETATM   22  C   UNL     1      42.740  -9.644  10.799  1.00  0.00     0.052 A 
BRANCH  21  23
HETATM   23  C   UNL     1      42.859  -8.581  13.129  1.00  0.00     0.106 C 
HETATM   24  C   UNL     1      42.216  -7.326  13.732  1.00  0.00     0.034 C 
BRANCH  23  25
HETATM   25  C   UNL     1      42.850  -9.738  14.145  1.00  0.00     0.022 C 
HETATM   26  C   UNL     1      42.114  -9.395  15.433  1.00  0.00     0.007 C 
ENDBRANCH  23  25
ENDBRANCH  21  23
BRANCH  22  27
HETATM   27  C   UNL     1      44.103 -10.344  10.830  1.00  0.00     0.038 A 
HETATM   28  C   UNL     1      44.208 -11.801  11.209  1.00  0.00     0.011 A 
HETATM   29  C   UNL     1      44.467 -11.382   9.800  1.00  0.00     0.011 A 
ENDBRANCH  22  27
ENDBRANCH   1  18
TORSDOF 8
ENDMDL
