MODEL 1
REMARK VINA RESULT:      -8.8      0.000      0.000
REMARK  6 active torsions:
REMARK  status: ('A' for Active; 'I' for Inactive)
REMARK    1  A    between atoms: N_3  and  C_4 
REMARK    2  A    between atoms: C_12  and  C_13 
REMARK       I    between atoms: C_13  and  N_14 
REMARK    3  A    between atoms: N_14  and  N_15 
REMARK       I    between atoms: N_15  and  C_16 
REMARK    4  A    between atoms: C_16  and  C_17 
REMARK    5  A    between atoms: C_17  and  C_18 
REMARK    6  A    between atoms: C_21  and  O_22 
ROOT
HETATM    1  C   UNL     1      44.725 -13.637   7.171  1.00  0.00     0.272 C 
HETATM    2  N   UNL     1      43.830 -12.930   7.947  1.00  0.00    -0.263 N 
HETATM    3  O   UNL     1      45.918 -13.334   7.124  1.00  0.00    -0.266 OA
HETATM    4  H   UNL     1      42.887 -13.255   8.137  1.00  0.00     0.190 HD
ENDROOT
BRANCH   1   5
HETATM    5  C   UNL     1      44.180 -14.795   6.465  1.00  0.00     0.058 A 
HETATM    6  C   UNL     1      43.707 -14.888   5.156  1.00  0.00     0.029 A 
HETATM    7  N   UNL     1      43.251 -16.195   4.940  1.00  0.00    -0.319 N 
HETATM    8  C   UNL     1      43.777 -13.864   4.063  1.00  0.00     0.070 C 
HETATM    9  C   UNL     1      43.523 -16.940   6.084  1.00  0.00     0.014 A 
HETATM   10  C   UNL     1      43.140 -18.366   6.293  1.00  0.00     0.068 C 
HETATM   11  C   UNL     1      44.109 -16.102   7.008  1.00  0.00     0.044 A 
BRANCH   7  12
HETATM   12  C   UNL     1      42.611 -16.678   3.759  1.00  0.00     0.039 A 
HETATM   13  C   UNL     1      43.358 -17.346   2.780  1.00  0.00     0.030 A 
HETATM   14  C   UNL     1      42.736 -17.805   1.616  1.00  0.00     0.002 A 
HETATM   15  C   UNL     1      41.370 -17.600   1.425  1.00  0.00     0.000 A 
HETATM   16  C   UNL     1      40.622 -16.940   2.398  1.00  0.00     0.002 A 
HETATM   17  C   UNL     1      41.239 -16.478   3.563  1.00  0.00     0.030 A 
ENDBRANCH   7  12
ENDBRANCH   1   5
BRANCH   2  18
HETATM   18  N   UNL     1      44.312 -11.874   8.728  1.00  0.00    -0.267 N 
HETATM   19  C   UNL     1      44.487 -12.078  10.081  1.00  0.00     0.240 C 
HETATM   20  O   UNL     1      44.344 -13.182  10.607  1.00  0.00    -0.272 OA
HETATM   21  H   UNL     1      44.371 -10.965   8.272  1.00  0.00     0.190 HD
BRANCH  19  22
HETATM   22  C   UNL     1      44.845 -10.823  10.857  1.00  0.00     0.143 C 
BRANCH  22  23
HETATM   23  C   UNL     1      43.668 -10.166  11.535  1.00  0.00    -0.049 A 
HETATM   24  C   UNL     1      42.473  -9.939  10.836  1.00  0.00     0.010 A 
HETATM   25  C   UNL     1      41.369  -9.372  11.478  1.00  0.00     0.037 A 
HETATM   26  C   UNL     1      41.460  -9.027  12.822  1.00  0.00     0.065 A 
HETATM   27  C   UNL     1      42.638  -9.235  13.530  1.00  0.00     0.037 A 
HETATM   28  C   UNL     1      43.739  -9.804  12.889  1.00  0.00     0.010 A 
BRANCH  26  29
HETATM   29  O   UNL     1      40.404  -8.483  13.491  1.00  0.00    -0.361 OA
HETATM   30  H   UNL     1      39.839  -8.018  12.853  1.00  0.00     0.217 HD
ENDBRANCH  26  29
ENDBRANCH  22  23
ENDBRANCH  19  22
ENDBRANCH   2  18
TORSDOF 6
ENDMDL
MODEL 2
REMARK VINA RESULT:      -8.5      1.695      2.128
REMARK  6 active torsions:
REMARK  status: ('A' for Active; 'I' for Inactive)
REMARK    1  A    between atoms: N_3  and  C_4 
REMARK    2  A    between atoms: C_12  and  C_13 
REMARK       I    between atoms: C_13  and  N_14 
REMARK    3  A    between atoms: N_14  and  N_15 
REMARK       I    between atoms: N_15  and  C_16 
REMARK    4  A    between atoms: C_16  and  C_17 
REMARK    5  A    between atoms: C_17  and  C_18 
REMARK    6  A    between atoms: C_21  and  O_22 
ROOT
HETATM    1  C   UNL     1      43.263 -14.319   6.640  1.00  0.00     0.272 C 
HETATM    2  N   UNL     1      43.957 -13.914   7.761  1.00  0.00    -0.263 N 
HETATM    3  O   UNL     1      42.573 -13.533   5.990  1.00  0.00    -0.266 OA
HETATM    4  H   UNL     1      44.660 -14.491   8.214  1.00  0.00     0.190 HD
ENDROOT
BRANCH   1   5
HETATM    5  C   UNL     1      43.448 -15.714   6.245  1.00  0.00     0.058 A 
HETATM    6  C   UNL     1      43.522 -16.267   4.966  1.00  0.00     0.029 A 
HETATM    7  N   UNL     1      43.668 -17.654   5.090  1.00  0.00    -0.319 N 
HETATM    8  C   UNL     1      43.593 -15.559   3.646  1.00  0.00     0.070 C 
HETATM    9  C   UNL     1      43.776 -17.957   6.444  1.00  0.00     0.014 A 
HETATM   10  C   UNL     1      43.883 -19.331   7.012  1.00  0.00     0.068 C 
HETATM   11  C   UNL     1      43.667 -16.780   7.153  1.00  0.00     0.044 A 
BRANCH   7  12
HETATM   12  C   UNL     1      43.693 -18.596   4.017  1.00  0.00     0.039 A 
HETATM   13  C   UNL     1      42.702 -18.560   3.028  1.00  0.00     0.030 A 
HETATM   14  C   UNL     1      42.715 -19.491   1.987  1.00  0.00     0.002 A 
HETATM   15  C   UNL     1      43.717 -20.459   1.927  1.00  0.00     0.000 A 
HETATM   16  C   UNL     1      44.708 -20.497   2.907  1.00  0.00     0.002 A 
HETATM   17  C   UNL     1      44.699 -19.569   3.950  1.00  0.00     0.030 A 
ENDBRANCH   7  12
ENDBRANCH   1   5
BRANCH   2  18
HETATM   18  N   UNL     1      43.902 -12.566   8.130  1.00  0.00    -0.267 N 
HETATM   19  C   UNL     1      44.374 -12.200   9.373  1.00  0.00     0.240 C 
HETATM   20  O   UNL     1      44.945 -12.993  10.123  1.00  0.00    -0.272 OA
HETATM   21  H   UNL     1      43.380 -11.948   7.510  1.00  0.00     0.190 HD
BRANCH  19  22
HETATM   22  C   UNL     1      44.109 -10.750   9.737  1.00  0.00     0.143 C 
BRANCH  22  23
HETATM   23  C   UNL     1      43.339 -10.574  11.024  1.00  0.00    -0.049 A 
HETATM   24  C   UNL     1      42.031 -11.067  11.150  1.00  0.00     0.010 A 
HETATM   25  C   UNL     1      41.338 -10.943  12.357  1.00  0.00     0.037 A 
HETATM   26  C   UNL     1      41.951 -10.321  13.439  1.00  0.00     0.065 A 
HETATM   27  C   UNL     1      43.241  -9.817  13.330  1.00  0.00     0.037 A 
HETATM   28  C   UNL     1      43.934  -9.944  12.126  1.00  0.00     0.010 A 
BRANCH  26  29
HETATM   29  O   UNL     1      41.315 -10.189  14.638  1.00  0.00    -0.361 OA
HETATM   30  H   UNL     1      41.981 -10.037  15.327  1.00  0.00     0.217 HD
ENDBRANCH  26  29
ENDBRANCH  22  23
ENDBRANCH  19  22
ENDBRANCH   2  18
TORSDOF 6
ENDMDL
MODEL 3
REMARK VINA RESULT:      -8.4      2.499      9.952
REMARK  6 active torsions:
REMARK  status: ('A' for Active; 'I' for Inactive)
REMARK    1  A    between atoms: N_3  and  C_4 
REMARK    2  A    between atoms: C_12  and  C_13 
REMARK       I    between atoms: C_13  and  N_14 
REMARK    3  A    between atoms: N_14  and  N_15 
REMARK       I    between atoms: N_15  and  C_16 
REMARK    4  A    between atoms: C_16  and  C_17 
REMARK    5  A    between atoms: C_17  and  C_18 
REMARK    6  A    between atoms: C_21  and  O_22 
ROOT
HETATM    1  C   UNL     1      44.708 -13.180   8.205  1.00  0.00     0.272 C 
HETATM    2  N   UNL     1      44.004 -14.320   7.879  1.00  0.00    -0.263 N 
HETATM    3  O   UNL     1      45.852 -12.987   7.792  1.00  0.00    -0.266 OA
HETATM    4  H   UNL     1      43.010 -14.427   8.062  1.00  0.00     0.190 HD
ENDROOT
BRANCH   1   5
HETATM    5  C   UNL     1      43.991 -12.197   9.016  1.00  0.00     0.058 A 
HETATM    6  C   UNL     1      44.032 -11.992  10.395  1.00  0.00     0.029 A 
HETATM    7  N   UNL     1      43.143 -10.958  10.717  1.00  0.00    -0.319 N 
HETATM    8  C   UNL     1      44.948 -12.616  11.404  1.00  0.00     0.070 C 
HETATM    9  C   UNL     1      42.615 -10.459   9.530  1.00  0.00     0.014 A 
HETATM   10  C   UNL     1      41.579  -9.391   9.431  1.00  0.00     0.068 C 
HETATM   11  C   UNL     1      43.142 -11.192   8.489  1.00  0.00     0.044 A 
BRANCH   7  12
HETATM   12  C   UNL     1      42.826 -10.501  12.032  1.00  0.00     0.039 A 
HETATM   13  C   UNL     1      43.646  -9.556  12.663  1.00  0.00     0.030 A 
HETATM   14  C   UNL     1      43.346  -9.120  13.956  1.00  0.00     0.002 A 
HETATM   15  C   UNL     1      42.228  -9.622  14.622  1.00  0.00     0.000 A 
HETATM   16  C   UNL     1      41.407 -10.559  13.997  1.00  0.00     0.002 A 
HETATM   17  C   UNL     1      41.703 -10.999  12.704  1.00  0.00     0.030 A 
ENDBRANCH   7  12
ENDBRANCH   1   5
BRANCH   2  18
HETATM   18  N   UNL     1      44.599 -15.250   7.020  1.00  0.00    -0.267 N 
HETATM   19  C   UNL     1      44.265 -16.581   7.152  1.00  0.00     0.240 C 
HETATM   20  O   UNL     1      43.382 -16.968   7.917  1.00  0.00    -0.272 OA
HETATM   21  H   UNL     1      45.360 -14.904   6.436  1.00  0.00     0.190 HD
BRANCH  19  22
HETATM   22  C   UNL     1      45.095 -17.519   6.292  1.00  0.00     0.143 C 
BRANCH  22  23
HETATM   23  C   UNL     1      44.390 -17.984   5.041  1.00  0.00    -0.049 A 
HETATM   24  C   UNL     1      44.664 -19.246   4.491  1.00  0.00     0.010 A 
HETATM   25  C   UNL     1      43.978 -19.692   3.359  1.00  0.00     0.037 A 
HETATM   26  C   UNL     1      43.018 -18.875   2.772  1.00  0.00     0.065 A 
HETATM   27  C   UNL     1      42.740 -17.618   3.295  1.00  0.00     0.037 A 
HETATM   28  C   UNL     1      43.424 -17.173   4.427  1.00  0.00     0.010 A 
BRANCH  26  29
HETATM   29  O   UNL     1      42.317 -19.276   1.673  1.00  0.00    -0.361 OA
HETATM   30  H   UNL     1      42.698 -20.108   1.349  1.00  0.00     0.217 HD
ENDBRANCH  26  29
ENDBRANCH  22  23
ENDBRANCH  19  22
ENDBRANCH   2  18
TORSDOF 6
ENDMDL
MODEL 4
REMARK VINA RESULT:      -8.3      1.554      2.184
REMARK  6 active torsions:
REMARK  status: ('A' for Active; 'I' for Inactive)
REMARK    1  A    between atoms: N_3  and  C_4 
REMARK    2  A    between atoms: C_12  and  C_13 
REMARK       I    between atoms: C_13  and  N_14 
REMARK    3  A    between atoms: N_14  and  N_15 
REMARK       I    between atoms: N_15  and  C_16 
REMARK    4  A    between atoms: C_16  and  C_17 
REMARK    5  A    between atoms: C_17  and  C_18 
REMARK    6  A    between atoms: C_21  and  O_22 
ROOT
HETATM    1  C   UNL     1      44.453 -13.480   7.211  1.00  0.00     0.272 C 
HETATM    2  N   UNL     1      43.563 -12.840   8.047  1.00  0.00    -0.263 N 
HETATM    3  O   UNL     1      45.651 -13.564   7.485  1.00  0.00    -0.266 OA
HETATM    4  H   UNL     1      42.555 -12.901   7.933  1.00  0.00     0.190 HD
ENDROOT
BRANCH   1   5
HETATM    5  C   UNL     1      43.875 -14.101   6.020  1.00  0.00     0.058 A 
HETATM    6  C   UNL     1      44.018 -15.406   5.547  1.00  0.00     0.029 A 
HETATM    7  N   UNL     1      43.304 -15.523   4.347  1.00  0.00    -0.319 N 
HETATM    8  C   UNL     1      44.672 -16.575   6.217  1.00  0.00     0.070 C 
HETATM    9  C   UNL     1      42.643 -14.319   4.119  1.00  0.00     0.014 A 
HETATM   10  C   UNL     1      41.822 -14.003   2.915  1.00  0.00     0.068 C 
HETATM   11  C   UNL     1      42.967 -13.456   5.143  1.00  0.00     0.044 A 
BRANCH   7  12
HETATM   12  C   UNL     1      43.267 -16.672   3.500  1.00  0.00     0.039 A 
HETATM   13  C   UNL     1      43.941 -16.661   2.273  1.00  0.00     0.030 A 
HETATM   14  C   UNL     1      43.892 -17.779   1.435  1.00  0.00     0.002 A 
HETATM   15  C   UNL     1      43.172 -18.909   1.820  1.00  0.00     0.000 A 
HETATM   16  C   UNL     1      42.503 -18.926   3.042  1.00  0.00     0.002 A 
HETATM   17  C   UNL     1      42.548 -17.812   3.882  1.00  0.00     0.030 A 
ENDBRANCH   7  12
ENDBRANCH   1   5
BRANCH   2  18
HETATM   18  N   UNL     1      44.039 -12.316   9.253  1.00  0.00    -0.267 N 
HETATM   19  C   UNL     1      43.753 -11.003   9.564  1.00  0.00     0.240 C 
HETATM   20  O   UNL     1      43.001 -10.310   8.877  1.00  0.00    -0.272 OA
HETATM   21  H   UNL     1      44.697 -12.897   9.771  1.00  0.00     0.190 HD
BRANCH  19  22
HETATM   22  C   UNL     1      44.460 -10.489  10.805  1.00  0.00     0.143 C 
BRANCH  22  23
HETATM   23  C   UNL     1      43.567 -10.384  12.018  1.00  0.00    -0.049 A 
HETATM   24  C   UNL     1      42.489 -11.265  12.192  1.00  0.00     0.010 A 
HETATM   25  C   UNL     1      41.691 -11.195  13.337  1.00  0.00     0.037 A 
HETATM   26  C   UNL     1      41.970 -10.241  14.309  1.00  0.00     0.065 A 
HETATM   27  C   UNL     1      43.026  -9.353  14.150  1.00  0.00     0.037 A 
HETATM   28  C   UNL     1      43.824  -9.424  13.008  1.00  0.00     0.010 A 
BRANCH  26  29
HETATM   29  O   UNL     1      41.225 -10.145  15.448  1.00  0.00    -0.361 OA
HETATM   30  H   UNL     1      40.804 -11.004  15.616  1.00  0.00     0.217 HD
ENDBRANCH  26  29
ENDBRANCH  22  23
ENDBRANCH  19  22
ENDBRANCH   2  18
TORSDOF 6
ENDMDL
MODEL 5
REMARK VINA RESULT:      -8.1      7.432     10.516
REMARK  6 active torsions:
REMARK  status: ('A' for Active; 'I' for Inactive)
REMARK    1  A    between atoms: N_3  and  C_4 
REMARK    2  A    between atoms: C_12  and  C_13 
REMARK       I    between atoms: C_13  and  N_14 
REMARK    3  A    between atoms: N_14  and  N_15 
REMARK       I    between atoms: N_15  and  C_16 
REMARK    4  A    between atoms: C_16  and  C_17 
REMARK    5  A    between atoms: C_17  and  C_18 
REMARK    6  A    between atoms: C_21  and  O_22 
ROOT
HETATM    1  C   UNL     1      40.981 -15.209   1.401  1.00  0.00     0.272 C 
HETATM    2  N   UNL     1      41.499 -16.486   1.449  1.00  0.00    -0.263 N 
HETATM    3  O   UNL     1      40.920 -14.499   2.406  1.00  0.00    -0.266 OA
HETATM    4  H   UNL     1      41.717 -17.026   0.616  1.00  0.00     0.190 HD
ENDROOT
BRANCH   1   5
HETATM    5  C   UNL     1      40.570 -14.737   0.080  1.00  0.00     0.058 A 
HETATM    6  C   UNL     1      39.304 -14.359  -0.368  1.00  0.00     0.029 A 
HETATM    7  N   UNL     1      39.398 -14.014  -1.723  1.00  0.00    -0.319 N 
HETATM    8  C   UNL     1      38.048 -14.180   0.429  1.00  0.00     0.070 C 
HETATM    9  C   UNL     1      40.736 -14.090  -2.095  1.00  0.00     0.014 A 
HETATM   10  C   UNL     1      41.260 -13.862  -3.473  1.00  0.00     0.068 C 
HETATM   11  C   UNL     1      41.460 -14.507  -0.999  1.00  0.00     0.044 A 
BRANCH   7  12
HETATM   12  C   UNL     1      38.310 -13.656  -2.576  1.00  0.00     0.039 A 
HETATM   13  C   UNL     1      37.664 -14.637  -3.338  1.00  0.00     0.030 A 
HETATM   14  C   UNL     1      36.610 -14.285  -4.186  1.00  0.00     0.002 A 
HETATM   15  C   UNL     1      36.198 -12.956  -4.275  1.00  0.00     0.000 A 
HETATM   16  C   UNL     1      36.835 -11.977  -3.515  1.00  0.00     0.002 A 
HETATM   17  C   UNL     1      37.889 -12.323  -2.667  1.00  0.00     0.030 A 
ENDBRANCH   7  12
ENDBRANCH   1   5
BRANCH   2  18
HETATM   18  N   UNL     1      42.005 -16.956   2.666  1.00  0.00    -0.267 N 
HETATM   19  C   UNL     1      43.368 -17.114   2.799  1.00  0.00     0.240 C 
HETATM   20  O   UNL     1      44.164 -16.750   1.933  1.00  0.00    -0.272 OA
HETATM   21  H   UNL     1      41.320 -17.294   3.340  1.00  0.00     0.190 HD
BRANCH  19  22
HETATM   22  C   UNL     1      43.793 -17.790   4.091  1.00  0.00     0.143 C 
BRANCH  22  23
HETATM   23  C   UNL     1      44.132 -19.252   3.932  1.00  0.00    -0.049 A 
HETATM   24  C   UNL     1      44.562 -20.012   5.031  1.00  0.00     0.010 A 
HETATM   25  C   UNL     1      44.832 -21.376   4.891  1.00  0.00     0.037 A 
HETATM   26  C   UNL     1      44.676 -21.981   3.649  1.00  0.00     0.065 A 
HETATM   27  C   UNL     1      44.262 -21.244   2.547  1.00  0.00     0.037 A 
HETATM   28  C   UNL     1      43.989 -19.883   2.687  1.00  0.00     0.010 A 
BRANCH  26  29
HETATM   29  O   UNL     1      44.917 -23.312   3.471  1.00  0.00    -0.361 OA
HETATM   30  H   UNL     1      45.831 -23.500   3.737  1.00  0.00     0.217 HD
ENDBRANCH  26  29
ENDBRANCH  22  23
ENDBRANCH  19  22
ENDBRANCH   2  18
TORSDOF 6
ENDMDL
MODEL 6
REMARK VINA RESULT:      -8.1      6.476     10.446
REMARK  6 active torsions:
REMARK  status: ('A' for Active; 'I' for Inactive)
REMARK    1  A    between atoms: N_3  and  C_4 
REMARK    2  A    between atoms: C_12  and  C_13 
REMARK       I    between atoms: C_13  and  N_14 
REMARK    3  A    between atoms: N_14  and  N_15 
REMARK       I    between atoms: N_15  and  C_16 
REMARK    4  A    between atoms: C_16  and  C_17 
REMARK    5  A    between atoms: C_17  and  C_18 
REMARK    6  A    between atoms: C_21  and  O_22 
ROOT
HETATM    1  C   UNL     1      42.188 -15.893   1.801  1.00  0.00     0.272 C 
HETATM    2  N   UNL     1      41.402 -14.805   2.117  1.00  0.00    -0.263 N 
HETATM    3  O   UNL     1      42.406 -16.214   0.632  1.00  0.00    -0.266 OA
HETATM    4  H   UNL     1      41.344 -14.419   3.055  1.00  0.00     0.190 HD
ENDROOT
BRANCH   1   5
HETATM    5  C   UNL     1      42.790 -16.595   2.933  1.00  0.00     0.058 A 
HETATM    6  C   UNL     1      43.069 -17.954   3.083  1.00  0.00     0.029 A 
HETATM    7  N   UNL     1      43.613 -18.157   4.357  1.00  0.00    -0.319 N 
HETATM    8  C   UNL     1      42.976 -19.043   2.058  1.00  0.00     0.070 C 
HETATM    9  C   UNL     1      43.757 -16.915   4.968  1.00  0.00     0.014 A 
HETATM   10  C   UNL     1      44.244 -16.692   6.360  1.00  0.00     0.068 C 
HETATM   11  C   UNL     1      43.281 -15.957   4.100  1.00  0.00     0.044 A 
BRANCH   7  12
HETATM   12  C   UNL     1      43.952 -19.419   4.935  1.00  0.00     0.039 A 
HETATM   13  C   UNL     1      44.839 -20.277   4.273  1.00  0.00     0.030 A 
HETATM   14  C   UNL     1      45.159 -21.519   4.828  1.00  0.00     0.002 A 
HETATM   15  C   UNL     1      44.598 -21.907   6.045  1.00  0.00     0.000 A 
HETATM   16  C   UNL     1      43.719 -21.054   6.709  1.00  0.00     0.002 A 
HETATM   17  C   UNL     1      43.394 -19.812   6.158  1.00  0.00     0.030 A 
ENDBRANCH   7  12
ENDBRANCH   1   5
BRANCH   2  18
HETATM   18  N   UNL     1      40.882 -14.031   1.074  1.00  0.00    -0.267 N 
HETATM   19  C   UNL     1      39.556 -14.188   0.731  1.00  0.00     0.240 C 
HETATM   20  O   UNL     1      38.785 -14.896   1.379  1.00  0.00    -0.272 OA
HETATM   21  H   UNL     1      41.556 -13.496   0.528  1.00  0.00     0.190 HD
BRANCH  19  22
HETATM   22  C   UNL     1      39.143 -13.431  -0.519  1.00  0.00     0.143 C 
BRANCH  22  23
HETATM   23  C   UNL     1      39.069 -14.291  -1.758  1.00  0.00    -0.049 A 
HETATM   24  C   UNL     1      37.900 -14.334  -2.532  1.00  0.00     0.010 A 
HETATM   25  C   UNL     1      37.849 -15.096  -3.702  1.00  0.00     0.037 A 
HETATM   26  C   UNL     1      38.969 -15.819  -4.098  1.00  0.00     0.065 A 
HETATM   27  C   UNL     1      40.132 -15.798  -3.340  1.00  0.00     0.037 A 
HETATM   28  C   UNL     1      40.184 -15.035  -2.173  1.00  0.00     0.010 A 
BRANCH  26  29
HETATM   29  O   UNL     1      38.967 -16.566  -5.240  1.00  0.00    -0.361 OA
HETATM   30  H   UNL     1      39.514 -17.354  -5.095  1.00  0.00     0.217 HD
ENDBRANCH  26  29
ENDBRANCH  22  23
ENDBRANCH  19  22
ENDBRANCH   2  18
TORSDOF 6
ENDMDL
MODEL 7
REMARK VINA RESULT:      -7.9      7.442     11.188
REMARK  6 active torsions:
REMARK  status: ('A' for Active; 'I' for Inactive)
REMARK    1  A    between atoms: N_3  and  C_4 
REMARK    2  A    between atoms: C_12  and  C_13 
REMARK       I    between atoms: C_13  and  N_14 
REMARK    3  A    between atoms: N_14  and  N_15 
REMARK       I    between atoms: N_15  and  C_16 
REMARK    4  A    between atoms: C_16  and  C_17 
REMARK    5  A    between atoms: C_17  and  C_18 
REMARK    6  A    between atoms: C_21  and  O_22 
ROOT
HETATM    1  C   UNL     1      41.226 -15.136   1.040  1.00  0.00     0.272 C 
HETATM    2  N   UNL     1      40.246 -15.469   0.128  1.00  0.00    -0.263 N 
HETATM    3  O   UNL     1      41.680 -13.993   1.110  1.00  0.00    -0.266 OA
HETATM    4  H   UNL     1      39.738 -16.348   0.160  1.00  0.00     0.190 HD
ENDROOT
BRANCH   1   5
HETATM    5  C   UNL     1      41.641 -16.203   1.949  1.00  0.00     0.058 A 
HETATM    6  C   UNL     1      42.587 -17.209   1.756  1.00  0.00     0.029 A 
HETATM    7  N   UNL     1      42.612 -18.020   2.898  1.00  0.00    -0.319 N 
HETATM    8  C   UNL     1      43.555 -17.375   0.624  1.00  0.00     0.070 C 
HETATM    9  C   UNL     1      41.747 -17.468   3.837  1.00  0.00     0.014 A 
HETATM   10  C   UNL     1      41.433 -18.059   5.170  1.00  0.00     0.068 C 
HETATM   11  C   UNL     1      41.169 -16.349   3.278  1.00  0.00     0.044 A 
BRANCH   7  12
HETATM   12  C   UNL     1      43.382 -19.211   3.066  1.00  0.00     0.039 A 
HETATM   13  C   UNL     1      43.238 -20.273   2.165  1.00  0.00     0.030 A 
HETATM   14  C   UNL     1      43.978 -21.446   2.339  1.00  0.00     0.002 A 
HETATM   15  C   UNL     1      44.864 -21.561   3.409  1.00  0.00     0.000 A 
HETATM   16  C   UNL     1      45.014 -20.505   4.306  1.00  0.00     0.002 A 
HETATM   17  C   UNL     1      44.276 -19.331   4.138  1.00  0.00     0.030 A 
ENDBRANCH   7  12
ENDBRANCH   1   5
BRANCH   2  18
HETATM   18  N   UNL     1      39.735 -14.465  -0.700  1.00  0.00    -0.267 N 
HETATM   19  C   UNL     1      40.183 -14.388  -2.002  1.00  0.00     0.240 C 
HETATM   20  O   UNL     1      40.927 -15.236  -2.496  1.00  0.00    -0.272 OA
HETATM   21  H   UNL     1      39.162 -13.753  -0.247  1.00  0.00     0.190 HD
BRANCH  19  22
HETATM   22  C   UNL     1      39.696 -13.163  -2.756  1.00  0.00     0.143 C 
BRANCH  22  23
HETATM   23  C   UNL     1      38.329 -13.329  -3.374  1.00  0.00    -0.049 A 
HETATM   24  C   UNL     1      37.529 -12.211  -3.655  1.00  0.00     0.010 A 
HETATM   25  C   UNL     1      36.283 -12.364  -4.268  1.00  0.00     0.037 A 
HETATM   26  C   UNL     1      35.833 -13.637  -4.598  1.00  0.00     0.065 A 
HETATM   27  C   UNL     1      36.606 -14.758  -4.319  1.00  0.00     0.037 A 
HETATM   28  C   UNL     1      37.851 -14.605  -3.709  1.00  0.00     0.010 A 
BRANCH  26  29
HETATM   29  O   UNL     1      34.629 -13.831  -5.209  1.00  0.00    -0.361 OA
HETATM   30  H   UNL     1      34.151 -14.532  -4.737  1.00  0.00     0.217 HD
ENDBRANCH  26  29
ENDBRANCH  22  23
ENDBRANCH  19  22
ENDBRANCH   2  18
TORSDOF 6
ENDMDL
MODEL 8
REMARK VINA RESULT:      -7.8      2.826      3.898
REMARK  6 active torsions:
REMARK  status: ('A' for Active; 'I' for Inactive)
REMARK    1  A    between atoms: N_3  and  C_4 
REMARK    2  A    between atoms: C_12  and  C_13 
REMARK       I    between atoms: C_13  and  N_14 
REMARK    3  A    between atoms: N_14  and  N_15 
REMARK       I    between atoms: N_15  and  C_16 
REMARK    4  A    between atoms: C_16  and  C_17 
REMARK    5  A    between atoms: C_17  and  C_18 
REMARK    6  A    between atoms: C_21  and  O_22 
ROOT
HETATM    1  C   UNL     1      40.876 -13.141   6.071  1.00  0.00     0.272 C 
HETATM    2  N   UNL     1      39.685 -13.132   6.767  1.00  0.00    -0.263 N 
HETATM    3  O   UNL     1      41.809 -12.399   6.380  1.00  0.00    -0.266 OA
HETATM    4  H   UNL     1      38.968 -13.842   6.645  1.00  0.00     0.190 HD
ENDROOT
BRANCH   1   5
HETATM    5  C   UNL     1      40.978 -14.124   4.994  1.00  0.00     0.058 A 
HETATM    6  C   UNL     1      41.961 -15.088   4.768  1.00  0.00     0.029 A 
HETATM    7  N   UNL     1      41.648 -15.773   3.587  1.00  0.00    -0.319 N 
HETATM    8  C   UNL     1      43.097 -15.487   5.660  1.00  0.00     0.070 C 
HETATM    9  C   UNL     1      40.424 -15.298   3.125  1.00  0.00     0.014 A 
HETATM   10  C   UNL     1      39.760 -15.720   1.858  1.00  0.00     0.068 C 
HETATM   11  C   UNL     1      39.998 -14.311   3.987  1.00  0.00     0.044 A 
BRANCH   7  12
HETATM   12  C   UNL     1      42.447 -16.776   2.960  1.00  0.00     0.039 A 
HETATM   13  C   UNL     1      43.396 -16.416   1.996  1.00  0.00     0.030 A 
HETATM   14  C   UNL     1      44.167 -17.399   1.369  1.00  0.00     0.002 A 
HETATM   15  C   UNL     1      43.996 -18.741   1.704  1.00  0.00     0.000 A 
HETATM   16  C   UNL     1      43.056 -19.104   2.667  1.00  0.00     0.002 A 
HETATM   17  C   UNL     1      42.282 -18.126   3.295  1.00  0.00     0.030 A 
ENDBRANCH   7  12
ENDBRANCH   1   5
BRANCH   2  18
HETATM   18  N   UNL     1      39.564 -12.286   7.874  1.00  0.00    -0.267 N 
HETATM   19  C   UNL     1      39.260 -10.958   7.662  1.00  0.00     0.240 C 
HETATM   20  O   UNL     1      38.979 -10.514   6.549  1.00  0.00    -0.272 OA
HETATM   21  H   UNL     1      39.852 -12.673   8.772  1.00  0.00     0.190 HD
BRANCH  19  22
HETATM   22  C   UNL     1      39.324 -10.098   8.912  1.00  0.00     0.143 C 
BRANCH  22  23
HETATM   23  C   UNL     1      40.535 -10.362   9.774  1.00  0.00    -0.049 A 
HETATM   24  C   UNL     1      41.826 -10.084   9.300  1.00  0.00     0.010 A 
HETATM   25  C   UNL     1      42.942 -10.287  10.116  1.00  0.00     0.037 A 
HETATM   26  C   UNL     1      42.768 -10.771  11.407  1.00  0.00     0.065 A 
HETATM   27  C   UNL     1      41.499 -11.061  11.892  1.00  0.00     0.037 A 
HETATM   28  C   UNL     1      40.385 -10.857  11.078  1.00  0.00     0.010 A 
BRANCH  26  29
HETATM   29  O   UNL     1      43.829 -10.972  12.241  1.00  0.00    -0.361 OA
HETATM   30  H   UNL     1      43.596 -10.640  13.123  1.00  0.00     0.217 HD
ENDBRANCH  26  29
ENDBRANCH  22  23
ENDBRANCH  19  22
ENDBRANCH   2  18
TORSDOF 6
ENDMDL
MODEL 9
REMARK VINA RESULT:      -7.8      7.005     10.212
REMARK  6 active torsions:
REMARK  status: ('A' for Active; 'I' for Inactive)
REMARK    1  A    between atoms: N_3  and  C_4 
REMARK    2  A    between atoms: C_12  and  C_13 
REMARK       I    between atoms: C_13  and  N_14 
REMARK    3  A    between atoms: N_14  and  N_15 
REMARK       I    between atoms: N_15  and  C_16 
REMARK    4  A    between atoms: C_16  and  C_17 
REMARK    5  A    between atoms: C_17  and  C_18 
REMARK    6  A    between atoms: C_21  and  O_22 
ROOT
HETATM    1  C   UNL     1      40.322 -15.937   1.982  1.00  0.00     0.272 C 
HETATM    2  N   UNL     1      41.069 -15.441   3.030  1.00  0.00    -0.263 N 
HETATM    3  O   UNL     1      40.219 -17.147   1.779  1.00  0.00    -0.266 OA
HETATM    4  H   UNL     1      41.035 -14.468   3.321  1.00  0.00     0.190 HD
ENDROOT
BRANCH   1   5
HETATM    5  C   UNL     1      39.618 -14.942   1.174  1.00  0.00     0.058 A 
HETATM    6  C   UNL     1      39.933 -14.451  -0.093  1.00  0.00     0.029 A 
HETATM    7  N   UNL     1      38.982 -13.483  -0.442  1.00  0.00    -0.319 N 
HETATM    8  C   UNL     1      40.991 -14.927  -1.042  1.00  0.00     0.070 C 
HETATM    9  C   UNL     1      38.025 -13.435   0.567  1.00  0.00     0.014 A 
HETATM   10  C   UNL     1      36.872 -12.491   0.615  1.00  0.00     0.068 C 
HETATM   11  C   UNL     1      38.391 -14.336   1.543  1.00  0.00     0.044 A 
BRANCH   7  12
HETATM   12  C   UNL     1      38.997 -12.678  -1.622  1.00  0.00     0.039 A 
HETATM   13  C   UNL     1      39.785 -11.522  -1.673  1.00  0.00     0.030 A 
HETATM   14  C   UNL     1      39.787 -10.724  -2.820  1.00  0.00     0.002 A 
HETATM   15  C   UNL     1      39.005 -11.078  -3.919  1.00  0.00     0.000 A 
HETATM   16  C   UNL     1      38.222 -12.230  -3.875  1.00  0.00     0.002 A 
HETATM   17  C   UNL     1      38.216 -13.030  -2.730  1.00  0.00     0.030 A 
ENDBRANCH   7  12
ENDBRANCH   1   5
BRANCH   2  18
HETATM   18  N   UNL     1      41.682 -16.348   3.901  1.00  0.00    -0.267 N 
HETATM   19  C   UNL     1      43.027 -16.610   3.744  1.00  0.00     0.240 C 
HETATM   20  O   UNL     1      43.731 -15.994   2.944  1.00  0.00    -0.272 OA
HETATM   21  H   UNL     1      41.062 -16.875   4.515  1.00  0.00     0.190 HD
BRANCH  19  22
HETATM   22  C   UNL     1      43.548 -17.732   4.624  1.00  0.00     0.143 C 
BRANCH  22  23
HETATM   23  C   UNL     1      43.782 -19.029   3.888  1.00  0.00    -0.049 A 
HETATM   24  C   UNL     1      43.291 -19.212   2.586  1.00  0.00     0.010 A 
HETATM   25  C   UNL     1      43.548 -20.396   1.890  1.00  0.00     0.037 A 
HETATM   26  C   UNL     1      44.294 -21.401   2.496  1.00  0.00     0.065 A 
HETATM   27  C   UNL     1      44.780 -21.242   3.788  1.00  0.00     0.037 A 
HETATM   28  C   UNL     1      44.526 -20.059   4.482  1.00  0.00     0.010 A 
BRANCH  26  29
HETATM   29  O   UNL     1      44.578 -22.567   1.848  1.00  0.00    -0.361 OA
HETATM   30  H   UNL     1      44.966 -23.188   2.485  1.00  0.00     0.217 HD
ENDBRANCH  26  29
ENDBRANCH  22  23
ENDBRANCH  19  22
ENDBRANCH   2  18
TORSDOF 6
ENDMDL
MODEL 10
REMARK VINA RESULT:      -7.8      1.893      2.403
REMARK  6 active torsions:
REMARK  status: ('A' for Active; 'I' for Inactive)
REMARK    1  A    between atoms: N_3  and  C_4 
REMARK    2  A    between atoms: C_12  and  C_13 
REMARK       I    between atoms: C_13  and  N_14 
REMARK    3  A    between atoms: N_14  and  N_15 
REMARK       I    between atoms: N_15  and  C_16 
REMARK    4  A    between atoms: C_16  and  C_17 
REMARK    5  A    between atoms: C_17  and  C_18 
REMARK    6  A    between atoms: C_21  and  O_22 
ROOT
HETATM    1  C   UNL     1      44.193 -13.861   6.723  1.00  0.00     0.272 C 
HETATM    2  N   UNL     1      43.425 -13.031   7.512  1.00  0.00    -0.263 N 
HETATM    3  O   UNL     1      45.371 -14.100   6.992  1.00  0.00    -0.266 OA
HETATM    4  H   UNL     1      42.417 -12.950   7.413  1.00  0.00     0.190 HD
ENDROOT
BRANCH   1   5
HETATM    5  C   UNL     1      43.504 -14.481   5.592  1.00  0.00     0.058 A 
HETATM    6  C   UNL     1      42.654 -13.901   4.650  1.00  0.00     0.029 A 
HETATM    7  N   UNL     1      42.208 -14.903   3.779  1.00  0.00    -0.319 N 
HETATM    8  C   UNL     1      42.342 -12.450   4.444  1.00  0.00     0.070 C 
HETATM    9  C   UNL     1      42.850 -16.089   4.121  1.00  0.00     0.014 A 
HETATM   10  C   UNL     1      42.610 -17.414   3.480  1.00  0.00     0.068 C 
HETATM   11  C   UNL     1      43.658 -15.837   5.209  1.00  0.00     0.044 A 
BRANCH   7  12
HETATM   12  C   UNL     1      41.255 -14.740   2.728  1.00  0.00     0.039 A 
HETATM   13  C   UNL     1      39.885 -14.846   3.001  1.00  0.00     0.030 A 
HETATM   14  C   UNL     1      38.952 -14.703   1.970  1.00  0.00     0.002 A 
HETATM   15  C   UNL     1      39.382 -14.453   0.667  1.00  0.00     0.000 A 
HETATM   16  C   UNL     1      40.743 -14.342   0.392  1.00  0.00     0.002 A 
HETATM   17  C   UNL     1      41.680 -14.485   1.418  1.00  0.00     0.030 A 
ENDBRANCH   7  12
ENDBRANCH   1   5
BRANCH   2  18
HETATM   18  N   UNL     1      43.999 -12.489   8.667  1.00  0.00    -0.267 N 
HETATM   19  C   UNL     1      43.675 -11.197   9.024  1.00  0.00     0.240 C 
HETATM   20  O   UNL     1      42.815 -10.544   8.432  1.00  0.00    -0.272 OA
HETATM   21  H   UNL     1      44.741 -13.036   9.103  1.00  0.00     0.190 HD
BRANCH  19  22
HETATM   22  C   UNL     1      44.482 -10.653  10.189  1.00  0.00     0.143 C 
BRANCH  22  23
HETATM   23  C   UNL     1      43.706 -10.562  11.481  1.00  0.00    -0.049 A 
HETATM   24  C   UNL     1      42.772 -11.550  11.828  1.00  0.00     0.010 A 
HETATM   25  C   UNL     1      42.089 -11.487  13.044  1.00  0.00     0.037 A 
HETATM   26  C   UNL     1      42.336 -10.433  13.916  1.00  0.00     0.065 A 
HETATM   27  C   UNL     1      43.249  -9.439  13.587  1.00  0.00     0.037 A 
HETATM   28  C   UNL     1      43.934  -9.503  12.373  1.00  0.00     0.010 A 
BRANCH  26  29
HETATM   29  O   UNL     1      41.700 -10.339  15.119  1.00  0.00    -0.361 OA
HETATM   30  H   UNL     1      41.079 -11.081  15.200  1.00  0.00     0.217 HD
ENDBRANCH  26  29
ENDBRANCH  22  23
ENDBRANCH  19  22
ENDBRANCH   2  18
TORSDOF 6
ENDMDL
