MODEL 1
REMARK VINA RESULT:      -8.3      0.000      0.000
REMARK  7 active torsions:
REMARK  status: ('A' for Active; 'I' for Inactive)
REMARK    1  A    between atoms: N_2  and  C_4 
REMARK    2  A    between atoms: C_4  and  C_5 
REMARK    3  A    between atoms: C_5  and  O_6 
REMARK    4  A    between atoms: O_6  and  C_7 
REMARK    5  A    between atoms: C_10  and  N_11 
REMARK       I    between atoms: N_11  and  C_12 
REMARK    6  A    between atoms: C_12  and  C_13 
REMARK    7  A    between atoms: C_14  and  C_15 
ROOT
HETATM    1  N   UNL     1      41.533 -16.024   4.277  1.00  0.00    -0.323 N 
HETATM    2  C   UNL     1      42.904 -16.150   4.146  1.00  0.00     0.258 C 
HETATM    3  O   UNL     1      43.741 -15.258   4.199  1.00  0.00    -0.267 OA
HETATM    4  H   UNL     1      40.967 -16.865   4.241  1.00  0.00     0.169 HD
ENDROOT
BRANCH   2   5
HETATM    5  C   UNL     1      43.399 -17.536   3.991  1.00  0.00     0.065 A 
HETATM    6  C   UNL     1      43.390 -18.273   2.794  1.00  0.00     0.077 A 
HETATM    7  C   UNL     1      43.805 -19.640   2.834  1.00  0.00     0.009 A 
HETATM    8  C   UNL     1      44.290 -20.137   4.072  1.00  0.00     0.067 A 
HETATM    9  C   UNL     1      43.762 -20.544   1.740  1.00  0.00     0.014 A 
HETATM   10  N   UNL     1      44.353 -19.396   5.184  1.00  0.00    -0.259 NA
HETATM   11  C   UNL     1      44.723 -21.452   4.164  1.00  0.00     0.032 A 
HETATM   12  C   UNL     1      43.914 -18.122   5.132  1.00  0.00     0.135 A 
HETATM   13  C   UNL     1      44.685 -22.319   3.075  1.00  0.00     0.002 A 
HETATM   14  C   UNL     1      44.199 -21.865   1.861  1.00  0.00     0.001 A 
BRANCH   6  15
HETATM   15  C   UNL     1      42.933 -17.593   1.532  1.00  0.00     0.419 C 
HETATM   16  F   UNL     1      41.622 -17.825   1.241  1.00  0.00    -0.166 F 
HETATM   17  F   UNL     1      43.053 -16.241   1.515  1.00  0.00    -0.166 F 
HETATM   18  F   UNL     1      43.636 -18.045   0.453  1.00  0.00    -0.166 F 
ENDBRANCH   6  15
ENDBRANCH   2   5
BRANCH   1  19
HETATM   19  C   UNL     1      40.811 -14.825   4.471  1.00  0.00     0.035 A 
HETATM   20  C   UNL     1      40.274 -14.062   3.433  1.00  0.00     0.032 A 
HETATM   21  C   UNL     1      39.573 -12.878   3.698  1.00  0.00     0.039 A 
HETATM   22  C   UNL     1      39.394 -12.444   5.009  1.00  0.00     0.069 A 
HETATM   23  C   UNL     1      39.932 -13.201   6.050  1.00  0.00     0.039 A 
HETATM   24  C   UNL     1      40.635 -14.381   5.785  1.00  0.00     0.032 A 
BRANCH  22  25
HETATM   25  O   UNL     1      38.726 -11.315   5.397  1.00  0.00    -0.349 OA
BRANCH  25  26
HETATM   26  C   UNL     1      39.499 -10.122   5.510  1.00  0.00     0.203 C 
BRANCH  26  27
HETATM   27  C   UNL     1      39.195  -9.498   6.875  1.00  0.00     0.260 C 
BRANCH  27  28
HETATM   28  N   UNL     1      40.291  -9.764   7.895  1.00  0.00    -0.077 N 
HETATM   29  C   UNL     1      41.623 -10.083   7.274  1.00  0.00     0.269 C 
HETATM   30  H   UNL     1      40.408  -8.908   8.455  1.00  0.00     0.279 HD
HETATM   31  C   UNL     1      39.875 -10.841   8.865  1.00  0.00     0.269 C 
ENDBRANCH  27  28
ENDBRANCH  26  27
ENDBRANCH  25  26
ENDBRANCH  22  25
ENDBRANCH   1  19
TORSDOF 7
ENDMDL
MODEL 2
REMARK VINA RESULT:      -8.1      1.473      2.071
REMARK  7 active torsions:
REMARK  status: ('A' for Active; 'I' for Inactive)
REMARK    1  A    between atoms: N_2  and  C_4 
REMARK    2  A    between atoms: C_4  and  C_5 
REMARK    3  A    between atoms: C_5  and  O_6 
REMARK    4  A    between atoms: O_6  and  C_7 
REMARK    5  A    between atoms: C_10  and  N_11 
REMARK       I    between atoms: N_11  and  C_12 
REMARK    6  A    between atoms: C_12  and  C_13 
REMARK    7  A    between atoms: C_14  and  C_15 
ROOT
HETATM    1  N   UNL     1      41.457 -16.030   4.208  1.00  0.00    -0.323 N 
HETATM    2  C   UNL     1      42.834 -16.138   4.148  1.00  0.00     0.258 C 
HETATM    3  O   UNL     1      43.656 -15.236   4.246  1.00  0.00    -0.267 OA
HETATM    4  H   UNL     1      40.905 -16.879   4.140  1.00  0.00     0.169 HD
ENDROOT
BRANCH   2   5
HETATM    5  C   UNL     1      43.355 -17.517   4.014  1.00  0.00     0.065 A 
HETATM    6  C   UNL     1      43.400 -18.257   2.820  1.00  0.00     0.077 A 
HETATM    7  C   UNL     1      43.834 -19.618   2.880  1.00  0.00     0.009 A 
HETATM    8  C   UNL     1      44.280 -20.105   4.135  1.00  0.00     0.067 A 
HETATM    9  C   UNL     1      43.845 -20.525   1.788  1.00  0.00     0.014 A 
HETATM   10  N   UNL     1      44.292 -19.360   5.247  1.00  0.00    -0.259 NA
HETATM   11  C   UNL     1      44.729 -21.412   4.247  1.00  0.00     0.032 A 
HETATM   12  C   UNL     1      43.836 -18.093   5.176  1.00  0.00     0.135 A 
HETATM   13  C   UNL     1      44.744 -22.283   3.160  1.00  0.00     0.002 A 
HETATM   14  C   UNL     1      44.296 -21.839   1.928  1.00  0.00     0.001 A 
BRANCH   6  15
HETATM   15  C   UNL     1      42.980 -17.587   1.541  1.00  0.00     0.419 C 
HETATM   16  F   UNL     1      41.649 -17.713   1.280  1.00  0.00    -0.166 F 
HETATM   17  F   UNL     1      43.217 -16.252   1.469  1.00  0.00    -0.166 F 
HETATM   18  F   UNL     1      43.620 -18.139   0.469  1.00  0.00    -0.166 F 
ENDBRANCH   6  15
ENDBRANCH   2   5
BRANCH   1  19
HETATM   19  C   UNL     1      40.711 -14.842   4.367  1.00  0.00     0.035 A 
HETATM   20  C   UNL     1      40.274 -14.047   3.306  1.00  0.00     0.032 A 
HETATM   21  C   UNL     1      39.542 -12.876   3.537  1.00  0.00     0.039 A 
HETATM   22  C   UNL     1      39.228 -12.486   4.837  1.00  0.00     0.069 A 
HETATM   23  C   UNL     1      39.665 -13.275   5.902  1.00  0.00     0.039 A 
HETATM   24  C   UNL     1      40.400 -14.442   5.671  1.00  0.00     0.032 A 
BRANCH  22  25
HETATM   25  O   UNL     1      38.516 -11.373   5.193  1.00  0.00    -0.349 OA
BRANCH  25  26
HETATM   26  C   UNL     1      39.215 -10.131   5.163  1.00  0.00     0.203 C 
BRANCH  26  27
HETATM   27  C   UNL     1      38.574  -9.262   4.076  1.00  0.00     0.260 C 
BRANCH  27  28
HETATM   28  N   UNL     1      37.206  -9.774   3.653  1.00  0.00    -0.077 N 
HETATM   29  C   UNL     1      37.134 -10.159   2.201  1.00  0.00     0.269 C 
HETATM   30  H   UNL     1      37.006 -10.618   4.207  1.00  0.00     0.279 HD
HETATM   31  C   UNL     1      36.127  -8.781   4.003  1.00  0.00     0.269 C 
ENDBRANCH  27  28
ENDBRANCH  26  27
ENDBRANCH  25  26
ENDBRANCH  22  25
ENDBRANCH   1  19
TORSDOF 7
ENDMDL
MODEL 3
REMARK VINA RESULT:      -8.0      3.393      4.237
REMARK  7 active torsions:
REMARK  status: ('A' for Active; 'I' for Inactive)
REMARK    1  A    between atoms: N_2  and  C_4 
REMARK    2  A    between atoms: C_4  and  C_5 
REMARK    3  A    between atoms: C_5  and  O_6 
REMARK    4  A    between atoms: O_6  and  C_7 
REMARK    5  A    between atoms: C_10  and  N_11 
REMARK       I    between atoms: N_11  and  C_12 
REMARK    6  A    between atoms: C_12  and  C_13 
REMARK    7  A    between atoms: C_14  and  C_15 
ROOT
HETATM    1  N   UNL     1      43.712 -15.497   5.751  1.00  0.00    -0.323 N 
HETATM    2  C   UNL     1      42.694 -16.429   5.684  1.00  0.00     0.258 C 
HETATM    3  O   UNL     1      41.611 -16.389   6.254  1.00  0.00    -0.267 OA
HETATM    4  H   UNL     1      44.545 -15.654   5.193  1.00  0.00     0.169 HD
ENDROOT
BRANCH   2   5
HETATM    5  C   UNL     1      42.935 -17.564   4.765  1.00  0.00     0.065 A 
HETATM    6  C   UNL     1      43.604 -18.754   5.099  1.00  0.00     0.077 A 
HETATM    7  C   UNL     1      43.850 -19.709   4.066  1.00  0.00     0.009 A 
HETATM    8  C   UNL     1      43.316 -19.431   2.781  1.00  0.00     0.067 A 
HETATM    9  C   UNL     1      44.594 -20.909   4.216  1.00  0.00     0.014 A 
HETATM   10  N   UNL     1      42.622 -18.321   2.502  1.00  0.00    -0.259 NA
HETATM   11  C   UNL     1      43.508 -20.332   1.745  1.00  0.00     0.032 A 
HETATM   12  C   UNL     1      42.441 -17.414   3.482  1.00  0.00     0.135 A 
HETATM   13  C   UNL     1      44.230 -21.511   1.916  1.00  0.00     0.002 A 
HETATM   14  C   UNL     1      44.778 -21.797   3.155  1.00  0.00     0.001 A 
BRANCH   6  15
HETATM   15  C   UNL     1      44.040 -18.958   6.525  1.00  0.00     0.419 C 
HETATM   16  F   UNL     1      43.121 -18.531   7.434  1.00  0.00    -0.166 F 
HETATM   17  F   UNL     1      44.304 -20.241   6.882  1.00  0.00    -0.166 F 
HETATM   18  F   UNL     1      45.178 -18.254   6.792  1.00  0.00    -0.166 F 
ENDBRANCH   6  15
ENDBRANCH   2   5
BRANCH   1  19
HETATM   19  C   UNL     1      43.721 -14.311   6.519  1.00  0.00     0.035 A 
HETATM   20  C   UNL     1      44.591 -14.080   7.585  1.00  0.00     0.032 A 
HETATM   21  C   UNL     1      44.541 -12.881   8.309  1.00  0.00     0.039 A 
HETATM   22  C   UNL     1      43.621 -11.892   7.970  1.00  0.00     0.069 A 
HETATM   23  C   UNL     1      42.746 -12.119   6.907  1.00  0.00     0.039 A 
HETATM   24  C   UNL     1      42.794 -13.318   6.187  1.00  0.00     0.032 A 
BRANCH  22  25
HETATM   25  O   UNL     1      43.478 -10.681   8.591  1.00  0.00    -0.349 OA
BRANCH  25  26
HETATM   26  C   UNL     1      42.232 -10.441   9.241  1.00  0.00     0.203 C 
BRANCH  26  27
HETATM   27  C   UNL     1      42.515 -10.257  10.736  1.00  0.00     0.260 C 
BRANCH  27  28
HETATM   28  N   UNL     1      42.289 -11.531  11.533  1.00  0.00    -0.077 N 
HETATM   29  C   UNL     1      41.324 -11.361  12.674  1.00  0.00     0.269 C 
HETATM   30  H   UNL     1      41.889 -12.231  10.893  1.00  0.00     0.279 HD
HETATM   31  C   UNL     1      43.597 -12.107  12.013  1.00  0.00     0.269 C 
ENDBRANCH  27  28
ENDBRANCH  26  27
ENDBRANCH  25  26
ENDBRANCH  22  25
ENDBRANCH   1  19
TORSDOF 7
ENDMDL
MODEL 4
REMARK VINA RESULT:      -8.0      2.741      3.613
REMARK  7 active torsions:
REMARK  status: ('A' for Active; 'I' for Inactive)
REMARK    1  A    between atoms: N_2  and  C_4 
REMARK    2  A    between atoms: C_4  and  C_5 
REMARK    3  A    between atoms: C_5  and  O_6 
REMARK    4  A    between atoms: O_6  and  C_7 
REMARK    5  A    between atoms: C_10  and  N_11 
REMARK       I    between atoms: N_11  and  C_12 
REMARK    6  A    between atoms: C_12  and  C_13 
REMARK    7  A    between atoms: C_14  and  C_15 
ROOT
HETATM    1  N   UNL     1      43.983 -15.333   6.095  1.00  0.00    -0.323 N 
HETATM    2  C   UNL     1      43.296 -16.510   6.329  1.00  0.00     0.258 C 
HETATM    3  O   UNL     1      42.391 -16.695   7.132  1.00  0.00    -0.267 OA
HETATM    4  H   UNL     1      44.693 -15.327   5.369  1.00  0.00     0.169 HD
ENDROOT
BRANCH   2   5
HETATM    5  C   UNL     1      43.669 -17.645   5.455  1.00  0.00     0.065 A 
HETATM    6  C   UNL     1      43.139 -17.895   4.178  1.00  0.00     0.077 A 
HETATM    7  C   UNL     1      43.525 -19.095   3.505  1.00  0.00     0.009 A 
HETATM    8  C   UNL     1      44.497 -19.913   4.138  1.00  0.00     0.067 A 
HETATM    9  C   UNL     1      43.009 -19.542   2.260  1.00  0.00     0.014 A 
HETATM   10  N   UNL     1      45.040 -19.619   5.325  1.00  0.00    -0.259 NA
HETATM   11  C   UNL     1      44.923 -21.080   3.521  1.00  0.00     0.032 A 
HETATM   12  C   UNL     1      44.627 -18.505   5.961  1.00  0.00     0.135 A 
HETATM   13  C   UNL     1      44.412 -21.494   2.293  1.00  0.00     0.002 A 
HETATM   14  C   UNL     1      43.450 -20.725   1.663  1.00  0.00     0.001 A 
BRANCH   6  15
HETATM   15  C   UNL     1      42.182 -16.896   3.586  1.00  0.00     0.419 C 
HETATM   16  F   UNL     1      42.747 -15.676   3.369  1.00  0.00    -0.166 F 
HETATM   17  F   UNL     1      41.637 -17.238   2.391  1.00  0.00    -0.166 F 
HETATM   18  F   UNL     1      41.131 -16.672   4.427  1.00  0.00    -0.166 F 
ENDBRANCH   6  15
ENDBRANCH   2   5
BRANCH   1  19
HETATM   19  C   UNL     1      43.797 -14.101   6.760  1.00  0.00     0.035 A 
HETATM   20  C   UNL     1      44.617 -13.640   7.790  1.00  0.00     0.032 A 
HETATM   21  C   UNL     1      44.370 -12.409   8.411  1.00  0.00     0.039 A 
HETATM   22  C   UNL     1      43.300 -11.616   8.003  1.00  0.00     0.069 A 
HETATM   23  C   UNL     1      42.474 -12.074   6.976  1.00  0.00     0.039 A 
HETATM   24  C   UNL     1      42.719 -13.305   6.359  1.00  0.00     0.032 A 
BRANCH  22  25
HETATM   25  O   UNL     1      42.960 -10.397   8.522  1.00  0.00    -0.349 OA
BRANCH  25  26
HETATM   26  C   UNL     1      42.944 -10.290   9.944  1.00  0.00     0.203 C 
BRANCH  26  27
HETATM   27  C   UNL     1      41.647 -10.934  10.444  1.00  0.00     0.260 C 
BRANCH  27  28
HETATM   28  N   UNL     1      41.809 -11.586  11.807  1.00  0.00    -0.077 N 
HETATM   29  C   UNL     1      41.096 -10.854  12.911  1.00  0.00     0.269 C 
HETATM   30  H   UNL     1      41.401 -12.530  11.750  1.00  0.00     0.279 HD
HETATM   31  C   UNL     1      43.266 -11.783  12.142  1.00  0.00     0.269 C 
ENDBRANCH  27  28
ENDBRANCH  26  27
ENDBRANCH  25  26
ENDBRANCH  22  25
ENDBRANCH   1  19
TORSDOF 7
ENDMDL
MODEL 5
REMARK VINA RESULT:      -7.9      2.271      3.266
REMARK  7 active torsions:
REMARK  status: ('A' for Active; 'I' for Inactive)
REMARK    1  A    between atoms: N_2  and  C_4 
REMARK    2  A    between atoms: C_4  and  C_5 
REMARK    3  A    between atoms: C_5  and  O_6 
REMARK    4  A    between atoms: O_6  and  C_7 
REMARK    5  A    between atoms: C_10  and  N_11 
REMARK       I    between atoms: N_11  and  C_12 
REMARK    6  A    between atoms: C_12  and  C_13 
REMARK    7  A    between atoms: C_14  and  C_15 
ROOT
HETATM    1  N   UNL     1      41.458 -16.060   4.354  1.00  0.00    -0.323 N 
HETATM    2  C   UNL     1      42.829 -16.183   4.217  1.00  0.00     0.258 C 
HETATM    3  O   UNL     1      43.642 -15.286   4.043  1.00  0.00    -0.267 OA
HETATM    4  H   UNL     1      40.915 -16.899   4.526  1.00  0.00     0.169 HD
ENDROOT
BRANCH   2   5
HETATM    5  C   UNL     1      43.357 -17.558   4.365  1.00  0.00     0.065 A 
HETATM    6  C   UNL     1      43.634 -18.441   3.307  1.00  0.00     0.077 A 
HETATM    7  C   UNL     1      44.039 -19.775   3.622  1.00  0.00     0.009 A 
HETATM    8  C   UNL     1      44.225 -20.091   4.993  1.00  0.00     0.067 A 
HETATM    9  C   UNL     1      44.260 -20.811   2.678  1.00  0.00     0.014 A 
HETATM   10  N   UNL     1      44.021 -19.213   5.981  1.00  0.00    -0.259 NA
HETATM   11  C   UNL     1      44.635 -21.366   5.356  1.00  0.00     0.032 A 
HETATM   12  C   UNL     1      43.596 -17.974   5.662  1.00  0.00     0.135 A 
HETATM   13  C   UNL     1      44.860 -22.366   4.412  1.00  0.00     0.002 A 
HETATM   14  C   UNL     1      44.668 -22.088   3.070  1.00  0.00     0.001 A 
BRANCH   6  15
HETATM   15  C   UNL     1      43.479 -17.944   1.895  1.00  0.00     0.419 C 
HETATM   16  F   UNL     1      43.642 -18.922   0.961  1.00  0.00    -0.166 F 
HETATM   17  F   UNL     1      42.280 -17.382   1.596  1.00  0.00    -0.166 F 
HETATM   18  F   UNL     1      44.419 -16.998   1.606  1.00  0.00    -0.166 F 
ENDBRANCH   6  15
ENDBRANCH   2   5
BRANCH   1  19
HETATM   19  C   UNL     1      40.709 -14.864   4.292  1.00  0.00     0.035 A 
HETATM   20  C   UNL     1      40.342 -14.115   5.411  1.00  0.00     0.032 A 
HETATM   21  C   UNL     1      39.592 -12.940   5.276  1.00  0.00     0.039 A 
HETATM   22  C   UNL     1      39.204 -12.492   4.015  1.00  0.00     0.069 A 
HETATM   23  C   UNL     1      39.565 -13.239   2.893  1.00  0.00     0.039 A 
HETATM   24  C   UNL     1      40.311 -14.415   3.029  1.00  0.00     0.032 A 
BRANCH  22  25
HETATM   25  O   UNL     1      38.479 -11.362   3.751  1.00  0.00    -0.349 OA
BRANCH  25  26
HETATM   26  C   UNL     1      38.515 -10.879   2.410  1.00  0.00     0.203 C 
BRANCH  26  27
HETATM   27  C   UNL     1      37.139 -10.286   2.093  1.00  0.00     0.260 C 
BRANCH  27  28
HETATM   28  N   UNL     1      36.199 -11.298   1.459  1.00  0.00    -0.077 N 
HETATM   29  C   UNL     1      36.867 -12.179   0.438  1.00  0.00     0.269 C 
HETATM   30  H   UNL     1      35.848 -11.908   2.210  1.00  0.00     0.279 HD
HETATM   31  C   UNL     1      34.987 -10.618   0.875  1.00  0.00     0.269 C 
ENDBRANCH  27  28
ENDBRANCH  26  27
ENDBRANCH  25  26
ENDBRANCH  22  25
ENDBRANCH   1  19
TORSDOF 7
ENDMDL
MODEL 6
REMARK VINA RESULT:      -7.9      4.149      5.890
REMARK  7 active torsions:
REMARK  status: ('A' for Active; 'I' for Inactive)
REMARK    1  A    between atoms: N_2  and  C_4 
REMARK    2  A    between atoms: C_4  and  C_5 
REMARK    3  A    between atoms: C_5  and  O_6 
REMARK    4  A    between atoms: O_6  and  C_7 
REMARK    5  A    between atoms: C_10  and  N_11 
REMARK       I    between atoms: N_11  and  C_12 
REMARK    6  A    between atoms: C_12  and  C_13 
REMARK    7  A    between atoms: C_14  and  C_15 
ROOT
HETATM    1  N   UNL     1      41.619 -16.661   2.017  1.00  0.00    -0.323 N 
HETATM    2  C   UNL     1      42.744 -16.351   2.759  1.00  0.00     0.258 C 
HETATM    3  O   UNL     1      43.472 -15.375   2.633  1.00  0.00    -0.267 OA
HETATM    4  H   UNL     1      41.097 -17.496   2.261  1.00  0.00     0.169 HD
ENDROOT
BRANCH   2   5
HETATM    5  C   UNL     1      43.048 -17.285   3.867  1.00  0.00     0.065 A 
HETATM    6  C   UNL     1      43.630 -18.556   3.722  1.00  0.00     0.077 A 
HETATM    7  C   UNL     1      43.759 -19.381   4.882  1.00  0.00     0.009 A 
HETATM    8  C   UNL     1      43.372 -18.819   6.126  1.00  0.00     0.067 A 
HETATM    9  C   UNL     1      44.234 -20.719   4.890  1.00  0.00     0.014 A 
HETATM   10  N   UNL     1      42.882 -17.580   6.249  1.00  0.00    -0.259 NA
HETATM   11  C   UNL     1      43.492 -19.568   7.287  1.00  0.00     0.032 A 
HETATM   12  C   UNL     1      42.727 -16.837   5.135  1.00  0.00     0.135 A 
HETATM   13  C   UNL     1      43.973 -20.876   7.275  1.00  0.00     0.002 A 
HETATM   14  C   UNL     1      44.340 -21.453   6.072  1.00  0.00     0.001 A 
BRANCH   6  15
HETATM   15  C   UNL     1      44.079 -18.991   2.353  1.00  0.00     0.419 C 
HETATM   16  F   UNL     1      43.074 -19.520   1.601  1.00  0.00    -0.166 F 
HETATM   17  F   UNL     1      44.616 -18.019   1.572  1.00  0.00    -0.166 F 
HETATM   18  F   UNL     1      45.028 -19.968   2.440  1.00  0.00    -0.166 F 
ENDBRANCH   6  15
ENDBRANCH   2   5
BRANCH   1  19
HETATM   19  C   UNL     1      41.093 -15.921   0.934  1.00  0.00     0.035 A 
HETATM   20  C   UNL     1      41.494 -16.087  -0.392  1.00  0.00     0.032 A 
HETATM   21  C   UNL     1      40.933 -15.314  -1.416  1.00  0.00     0.039 A 
HETATM   22  C   UNL     1      39.955 -14.366  -1.128  1.00  0.00     0.069 A 
HETATM   23  C   UNL     1      39.552 -14.193   0.197  1.00  0.00     0.039 A 
HETATM   24  C   UNL     1      40.116 -14.963   1.220  1.00  0.00     0.032 A 
BRANCH  22  25
HETATM   25  O   UNL     1      39.327 -13.557  -2.036  1.00  0.00    -0.349 OA
BRANCH  25  26
HETATM   26  C   UNL     1      39.821 -13.594  -3.373  1.00  0.00     0.203 C 
BRANCH  26  27
HETATM   27  C   UNL     1      40.443 -12.227  -3.676  1.00  0.00     0.260 C 
BRANCH  27  28
HETATM   28  N   UNL     1      41.937 -12.312  -3.943  1.00  0.00    -0.077 N 
HETATM   29  C   UNL     1      42.763 -12.439  -2.691  1.00  0.00     0.269 C 
HETATM   30  H   UNL     1      42.104 -13.155  -4.509  1.00  0.00     0.279 HD
HETATM   31  C   UNL     1      42.403 -11.149  -4.782  1.00  0.00     0.269 C 
ENDBRANCH  27  28
ENDBRANCH  26  27
ENDBRANCH  25  26
ENDBRANCH  22  25
ENDBRANCH   1  19
TORSDOF 7
ENDMDL
MODEL 7
REMARK VINA RESULT:      -7.9      4.171      5.915
REMARK  7 active torsions:
REMARK  status: ('A' for Active; 'I' for Inactive)
REMARK    1  A    between atoms: N_2  and  C_4 
REMARK    2  A    between atoms: C_4  and  C_5 
REMARK    3  A    between atoms: C_5  and  O_6 
REMARK    4  A    between atoms: O_6  and  C_7 
REMARK    5  A    between atoms: C_10  and  N_11 
REMARK       I    between atoms: N_11  and  C_12 
REMARK    6  A    between atoms: C_12  and  C_13 
REMARK    7  A    between atoms: C_14  and  C_15 
ROOT
HETATM    1  N   UNL     1      40.988 -16.261   2.173  1.00  0.00    -0.323 N 
HETATM    2  C   UNL     1      42.106 -15.940   2.920  1.00  0.00     0.258 C 
HETATM    3  O   UNL     1      42.682 -14.861   2.970  1.00  0.00    -0.267 OA
HETATM    4  H   UNL     1      40.604 -17.196   2.261  1.00  0.00     0.169 HD
ENDROOT
BRANCH   2   5
HETATM    5  C   UNL     1      42.609 -17.018   3.802  1.00  0.00     0.065 A 
HETATM    6  C   UNL     1      43.436 -18.080   3.397  1.00  0.00     0.077 A 
HETATM    7  C   UNL     1      43.746 -19.101   4.347  1.00  0.00     0.009 A 
HETATM    8  C   UNL     1      43.270 -18.923   5.672  1.00  0.00     0.067 A 
HETATM    9  C   UNL     1      44.483 -20.283   4.072  1.00  0.00     0.014 A 
HETATM   10  N   UNL     1      42.540 -17.868   6.052  1.00  0.00    -0.259 NA
HETATM   11  C   UNL     1      43.556 -19.874   6.640  1.00  0.00     0.032 A 
HETATM   12  C   UNL     1      42.222 -16.941   5.127  1.00  0.00     0.135 A 
HETATM   13  C   UNL     1      44.293 -21.021   6.353  1.00  0.00     0.002 A 
HETATM   14  C   UNL     1      44.753 -21.227   5.064  1.00  0.00     0.001 A 
BRANCH   6  15
HETATM   15  C   UNL     1      43.945 -18.097   1.981  1.00  0.00     0.419 C 
HETATM   16  F   UNL     1      44.838 -19.098   1.743  1.00  0.00    -0.166 F 
HETATM   17  F   UNL     1      43.000 -18.244   1.016  1.00  0.00    -0.166 F 
HETATM   18  F   UNL     1      44.603 -16.938   1.686  1.00  0.00    -0.166 F 
ENDBRANCH   6  15
ENDBRANCH   2   5
BRANCH   1  19
HETATM   19  C   UNL     1      40.294 -15.410   1.285  1.00  0.00     0.035 A 
HETATM   20  C   UNL     1      40.787 -15.011   0.042  1.00  0.00     0.032 A 
HETATM   21  C   UNL     1      40.046 -14.158  -0.786  1.00  0.00     0.039 A 
HETATM   22  C   UNL     1      38.795 -13.697  -0.384  1.00  0.00     0.069 A 
HETATM   23  C   UNL     1      38.299 -14.089   0.860  1.00  0.00     0.039 A 
HETATM   24  C   UNL     1      39.041 -14.938   1.689  1.00  0.00     0.032 A 
BRANCH  22  25
HETATM   25  O   UNL     1      37.974 -12.870  -1.102  1.00  0.00    -0.349 OA
BRANCH  25  26
HETATM   26  C   UNL     1      38.307 -12.674  -2.474  1.00  0.00     0.203 C 
BRANCH  26  27
HETATM   27  C   UNL     1      37.009 -12.755  -3.284  1.00  0.00     0.260 C 
BRANCH  27  28
HETATM   28  N   UNL     1      37.044 -13.853  -4.335  1.00  0.00    -0.077 N 
HETATM   29  C   UNL     1      35.732 -14.048  -5.043  1.00  0.00     0.269 C 
HETATM   30  H   UNL     1      37.740 -13.581  -5.043  1.00  0.00     0.279 HD
HETATM   31  C   UNL     1      37.537 -15.150  -3.744  1.00  0.00     0.269 C 
ENDBRANCH  27  28
ENDBRANCH  26  27
ENDBRANCH  25  26
ENDBRANCH  22  25
ENDBRANCH   1  19
TORSDOF 7
ENDMDL
MODEL 8
REMARK VINA RESULT:      -7.8      3.695      5.491
REMARK  7 active torsions:
REMARK  status: ('A' for Active; 'I' for Inactive)
REMARK    1  A    between atoms: N_2  and  C_4 
REMARK    2  A    between atoms: C_4  and  C_5 
REMARK    3  A    between atoms: C_5  and  O_6 
REMARK    4  A    between atoms: O_6  and  C_7 
REMARK    5  A    between atoms: C_10  and  N_11 
REMARK       I    between atoms: N_11  and  C_12 
REMARK    6  A    between atoms: C_12  and  C_13 
REMARK    7  A    between atoms: C_14  and  C_15 
ROOT
HETATM    1  N   UNL     1      41.085 -16.421   2.702  1.00  0.00    -0.323 N 
HETATM    2  C   UNL     1      42.315 -16.216   3.300  1.00  0.00     0.258 C 
HETATM    3  O   UNL     1      42.999 -15.202   3.263  1.00  0.00    -0.267 OA
HETATM    4  H   UNL     1      40.622 -17.311   2.849  1.00  0.00     0.169 HD
ENDROOT
BRANCH   2   5
HETATM    5  C   UNL     1      42.811 -17.339   4.126  1.00  0.00     0.065 A 
HETATM    6  C   UNL     1      43.545 -18.438   3.648  1.00  0.00     0.077 A 
HETATM    7  C   UNL     1      43.857 -19.495   4.557  1.00  0.00     0.009 A 
HETATM    8  C   UNL     1      43.482 -19.319   5.914  1.00  0.00     0.067 A 
HETATM    9  C   UNL     1      44.504 -20.711   4.213  1.00  0.00     0.014 A 
HETATM   10  N   UNL     1      42.842 -18.231   6.361  1.00  0.00    -0.259 NA
HETATM   11  C   UNL     1      43.776 -20.305   6.844  1.00  0.00     0.032 A 
HETATM   12  C   UNL     1      42.518 -17.268   5.476  1.00  0.00     0.135 A 
HETATM   13  C   UNL     1      44.423 -21.486   6.488  1.00  0.00     0.002 A 
HETATM   14  C   UNL     1      44.783 -21.691   5.168  1.00  0.00     0.001 A 
BRANCH   6  15
HETATM   15  C   UNL     1      43.956 -18.455   2.201  1.00  0.00     0.419 C 
HETATM   16  F   UNL     1      44.547 -17.295   1.797  1.00  0.00    -0.166 F 
HETATM   17  F   UNL     1      44.836 -19.427   1.848  1.00  0.00    -0.166 F 
HETATM   18  F   UNL     1      42.872 -18.618   1.388  1.00  0.00    -0.166 F 
ENDBRANCH   6  15
ENDBRANCH   2   5
BRANCH   1  19
HETATM   19  C   UNL     1      40.376 -15.503   1.895  1.00  0.00     0.035 A 
HETATM   20  C   UNL     1      39.280 -14.762   2.337  1.00  0.00     0.032 A 
HETATM   21  C   UNL     1      38.619 -13.872   1.480  1.00  0.00     0.039 A 
HETATM   22  C   UNL     1      39.052 -13.706   0.167  1.00  0.00     0.069 A 
HETATM   23  C   UNL     1      40.147 -14.447  -0.282  1.00  0.00     0.039 A 
HETATM   24  C   UNL     1      40.804 -15.338   0.574  1.00  0.00     0.032 A 
BRANCH  22  25
HETATM   25  O   UNL     1      38.500 -12.867  -0.762  1.00  0.00    -0.349 OA
BRANCH  25  26
HETATM   26  C   UNL     1      39.394 -12.282  -1.706  1.00  0.00     0.203 C 
BRANCH  26  27
HETATM   27  C   UNL     1      38.815 -12.521  -3.104  1.00  0.00     0.260 C 
BRANCH  27  28
HETATM   28  N   UNL     1      39.622 -13.529  -3.905  1.00  0.00    -0.077 N 
HETATM   29  C   UNL     1      39.164 -14.950  -3.717  1.00  0.00     0.269 C 
HETATM   30  H   UNL     1      39.507 -13.297  -4.902  1.00  0.00     0.279 HD
HETATM   31  C   UNL     1      41.095 -13.394  -3.614  1.00  0.00     0.269 C 
ENDBRANCH  27  28
ENDBRANCH  26  27
ENDBRANCH  25  26
ENDBRANCH  22  25
ENDBRANCH   1  19
TORSDOF 7
ENDMDL
MODEL 9
REMARK VINA RESULT:      -7.7      4.370      6.177
REMARK  7 active torsions:
REMARK  status: ('A' for Active; 'I' for Inactive)
REMARK    1  A    between atoms: N_2  and  C_4 
REMARK    2  A    between atoms: C_4  and  C_5 
REMARK    3  A    between atoms: C_5  and  O_6 
REMARK    4  A    between atoms: O_6  and  C_7 
REMARK    5  A    between atoms: C_10  and  N_11 
REMARK       I    between atoms: N_11  and  C_12 
REMARK    6  A    between atoms: C_12  and  C_13 
REMARK    7  A    between atoms: C_14  and  C_15 
ROOT
HETATM    1  N   UNL     1      41.687 -17.265   1.461  1.00  0.00    -0.323 N 
HETATM    2  C   UNL     1      42.973 -17.288   1.967  1.00  0.00     0.258 C 
HETATM    3  O   UNL     1      43.775 -16.364   2.002  1.00  0.00    -0.267 OA
HETATM    4  H   UNL     1      41.127 -18.109   1.531  1.00  0.00     0.169 HD
ENDROOT
BRANCH   2   5
HETATM    5  C   UNL     1      43.383 -18.566   2.592  1.00  0.00     0.065 A 
HETATM    6  C   UNL     1      43.413 -18.823   3.973  1.00  0.00     0.077 A 
HETATM    7  C   UNL     1      43.938 -20.074   4.421  1.00  0.00     0.009 A 
HETATM    8  C   UNL     1      44.310 -21.017   3.428  1.00  0.00     0.067 A 
HETATM    9  C   UNL     1      44.126 -20.448   5.778  1.00  0.00     0.014 A 
HETATM   10  N   UNL     1      44.209 -20.775   2.116  1.00  0.00    -0.259 NA
HETATM   11  C   UNL     1      44.808 -22.255   3.805  1.00  0.00     0.032 A 
HETATM   12  C   UNL     1      43.753 -19.571   1.717  1.00  0.00     0.135 A 
HETATM   13  C   UNL     1      44.973 -22.607   5.143  1.00  0.00     0.002 A 
HETATM   14  C   UNL     1      44.635 -21.699   6.131  1.00  0.00     0.001 A 
BRANCH   6  15
HETATM   15  C   UNL     1      42.903 -17.765   4.914  1.00  0.00     0.419 C 
HETATM   16  F   UNL     1      41.740 -17.191   4.497  1.00  0.00    -0.166 F 
HETATM   17  F   UNL     1      42.646 -18.177   6.182  1.00  0.00    -0.166 F 
HETATM   18  F   UNL     1      43.799 -16.741   5.027  1.00  0.00    -0.166 F 
ENDBRANCH   6  15
ENDBRANCH   2   5
BRANCH   1  19
HETATM   19  C   UNL     1      41.041 -16.168   0.849  1.00  0.00     0.035 A 
HETATM   20  C   UNL     1      40.117 -15.346   1.496  1.00  0.00     0.032 A 
HETATM   21  C   UNL     1      39.510 -14.277   0.824  1.00  0.00     0.039 A 
HETATM   22  C   UNL     1      39.824 -14.010  -0.506  1.00  0.00     0.069 A 
HETATM   23  C   UNL     1      40.745 -14.831  -1.159  1.00  0.00     0.039 A 
HETATM   24  C   UNL     1      41.348 -15.901  -0.490  1.00  0.00     0.032 A 
BRANCH  22  25
HETATM   25  O   UNL     1      39.308 -12.997  -1.266  1.00  0.00    -0.349 OA
BRANCH  25  26
HETATM   26  C   UNL     1      39.152 -13.259  -2.659  1.00  0.00     0.203 C 
BRANCH  26  27
HETATM   27  C   UNL     1      37.650 -13.301  -2.959  1.00  0.00     0.260 C 
BRANCH  27  28
HETATM   28  N   UNL     1      37.214 -14.624  -3.567  1.00  0.00    -0.077 N 
HETATM   29  C   UNL     1      38.363 -15.490  -4.007  1.00  0.00     0.269 C 
HETATM   30  H   UNL     1      36.697 -15.142  -2.843  1.00  0.00     0.279 HD
HETATM   31  C   UNL     1      36.239 -14.404  -4.696  1.00  0.00     0.269 C 
ENDBRANCH  27  28
ENDBRANCH  26  27
ENDBRANCH  25  26
ENDBRANCH  22  25
ENDBRANCH   1  19
TORSDOF 7
ENDMDL
MODEL 10
REMARK VINA RESULT:      -7.7      2.877      4.347
REMARK  7 active torsions:
REMARK  status: ('A' for Active; 'I' for Inactive)
REMARK    1  A    between atoms: N_2  and  C_4 
REMARK    2  A    between atoms: C_4  and  C_5 
REMARK    3  A    between atoms: C_5  and  O_6 
REMARK    4  A    between atoms: O_6  and  C_7 
REMARK    5  A    between atoms: C_10  and  N_11 
REMARK       I    between atoms: N_11  and  C_12 
REMARK    6  A    between atoms: C_12  and  C_13 
REMARK    7  A    between atoms: C_14  and  C_15 
ROOT
HETATM    1  N   UNL     1      41.195 -16.172   3.346  1.00  0.00    -0.323 N 
HETATM    2  C   UNL     1      42.573 -16.190   3.466  1.00  0.00     0.258 C 
HETATM    3  O   UNL     1      43.347 -15.260   3.285  1.00  0.00    -0.267 OA
HETATM    4  H   UNL     1      40.683 -17.021   3.560  1.00  0.00     0.169 HD
ENDROOT
BRANCH   2   5
HETATM    5  C   UNL     1      43.150 -17.472   3.930  1.00  0.00     0.065 A 
HETATM    6  C   UNL     1      43.558 -18.528   3.097  1.00  0.00     0.077 A 
HETATM    7  C   UNL     1      43.996 -19.745   3.707  1.00  0.00     0.009 A 
HETATM    8  C   UNL     1      44.077 -19.770   5.123  1.00  0.00     0.067 A 
HETATM    9  C   UNL     1      44.346 -20.932   3.012  1.00  0.00     0.014 A 
HETATM   10  N   UNL     1      43.747 -18.727   5.894  1.00  0.00    -0.259 NA
HETATM   11  C   UNL     1      44.513 -20.918   5.768  1.00  0.00     0.032 A 
HETATM   12  C   UNL     1      43.294 -17.606   5.298  1.00  0.00     0.135 A 
HETATM   13  C   UNL     1      44.865 -22.070   5.067  1.00  0.00     0.002 A 
HETATM   14  C   UNL     1      44.777 -22.077   3.686  1.00  0.00     0.001 A 
BRANCH   6  15
HETATM   15  C   UNL     1      43.503 -18.333   1.606  1.00  0.00     0.419 C 
HETATM   16  F   UNL     1      42.256 -18.031   1.150  1.00  0.00    -0.166 F 
HETATM   17  F   UNL     1      44.297 -17.349   1.111  1.00  0.00    -0.166 F 
HETATM   18  F   UNL     1      43.869 -19.474   0.952  1.00  0.00    -0.166 F 
ENDBRANCH   6  15
ENDBRANCH   2   5
BRANCH   1  19
HETATM   19  C   UNL     1      40.397 -15.073   2.958  1.00  0.00     0.035 A 
HETATM   20  C   UNL     1      40.375 -13.850   3.629  1.00  0.00     0.032 A 
HETATM   21  C   UNL     1      39.553 -12.804   3.191  1.00  0.00     0.039 A 
HETATM   22  C   UNL     1      38.745 -12.964   2.069  1.00  0.00     0.069 A 
HETATM   23  C   UNL     1      38.760 -14.187   1.395  1.00  0.00     0.039 A 
HETATM   24  C   UNL     1      39.578 -15.233   1.835  1.00  0.00     0.032 A 
BRANCH  22  25
HETATM   25  O   UNL     1      37.908 -12.021   1.539  1.00  0.00    -0.349 OA
BRANCH  25  26
HETATM   26  C   UNL     1      36.939 -12.482   0.600  1.00  0.00     0.203 C 
BRANCH  26  27
HETATM   27  C   UNL     1      37.093 -11.645  -0.675  1.00  0.00     0.260 C 
BRANCH  27  28
HETATM   28  N   UNL     1      37.872 -12.371  -1.759  1.00  0.00    -0.077 N 
HETATM   29  C   UNL     1      39.322 -11.973  -1.824  1.00  0.00     0.269 C 
HETATM   30  H   UNL     1      37.838 -13.378  -1.543  1.00  0.00     0.279 HD
HETATM   31  C   UNL     1      37.207 -12.211  -3.102  1.00  0.00     0.269 C 
ENDBRANCH  27  28
ENDBRANCH  26  27
ENDBRANCH  25  26
ENDBRANCH  22  25
ENDBRANCH   1  19
TORSDOF 7
ENDMDL
