MODEL 1
REMARK VINA RESULT:      -9.9      0.000      0.000
REMARK  9 active torsions:
REMARK  status: ('A' for Active; 'I' for Inactive)
REMARK    1  A    between atoms: C_9  and  O_10 
REMARK    2  A    between atoms: O_10  and  C_11 
REMARK    3  A    between atoms: C_22  and  C_23 
REMARK    4  A    between atoms: N_30  and  C_31 
REMARK    5  A    between atoms: C_31  and  C_32 
REMARK    6  A    between atoms: C_32  and  O_33 
REMARK    7  A    between atoms: O_33  and  C_34 
REMARK    8  A    between atoms: C_35  and  C_36 
REMARK    9  A    between atoms: C_36  and  C_37 
ROOT
HETATM    1  H   UNL     1      41.642 -15.645  -1.754  1.00  0.00     0.188 HD
HETATM    2  N   UNL     1      42.035 -16.233  -1.013  1.00  0.00    -0.282 NA
HETATM    3  C   UNL     1      41.353 -16.039   0.079  1.00  0.00     0.155 C 
HETATM    4  N   UNL     1      40.339 -15.114   0.187  1.00  0.00    -0.230 N 
HETATM    5  C   UNL     1      39.607 -14.983   1.355  1.00  0.00     0.195 A 
HETATM    6  N   UNL     1      39.689 -15.702   2.417  1.00  0.00    -0.183 NA
HETATM    7  N   UNL     1      40.042 -14.159  -0.788  1.00  0.00    -0.186 NA
HETATM    8  C   UNL     1      39.116 -13.219  -0.342  1.00  0.00     0.094 A 
HETATM    9  C   UNL     1      38.758 -12.095  -0.978  1.00  0.00     0.175 C 
HETATM   10  S   UNL     1      38.483 -13.614   1.265  1.00  0.00    -0.035 SA
HETATM   11  C   UNL     1      41.624 -16.813   1.340  1.00  0.00     0.082 C 
HETATM   12  C   UNL     1      40.560 -16.777   2.415  1.00  0.00     0.283 C 
HETATM   13  O   UNL     1      40.446 -17.677   3.237  1.00  0.00    -0.265 OA
HETATM   14  C   UNL     1      42.804 -17.456   1.435  1.00  0.00     0.034 C 
HETATM   15  H   UNL     1      40.850 -13.708  -1.219  1.00  0.00     0.154 HD
ENDROOT
BRANCH  14  16
HETATM   16  C   UNL     1      43.378 -18.134   2.554  1.00  0.00    -0.007 A 
HETATM   17  C   UNL     1      43.700 -19.520   2.635  1.00  0.00     0.002 A 
HETATM   18  C   UNL     1      44.340 -19.733   3.866  1.00  0.00     0.045 A 
HETATM   19  C   UNL     1      43.515 -20.616   1.761  1.00  0.00     0.014 A 
HETATM   20  C   UNL     1      44.804 -21.010   4.226  1.00  0.00     0.030 A 
HETATM   21  N   UNL     1      44.383 -18.513   4.514  1.00  0.00    -0.353 N 
HETATM   22  C   UNL     1      44.603 -22.077   3.346  1.00  0.00     0.002 A 
HETATM   23  C   UNL     1      43.966 -21.886   2.127  1.00  0.00     0.001 A 
HETATM   24  C   UNL     1      43.833 -17.541   3.707  1.00  0.00     0.103 A 
BRANCH  21  25
HETATM   25  C   UNL     1      45.012 -18.183   5.788  1.00  0.00     0.155 C 
BRANCH  25  26
HETATM   26  C   UNL     1      44.149 -18.319   7.044  1.00  0.00     0.196 C 
BRANCH  26  27
HETATM   27  O   UNL     1      43.880 -16.999   7.520  1.00  0.00    -0.349 OA
BRANCH  27  28
HETATM   28  C   UNL     1      42.910 -16.254   6.914  1.00  0.00     0.075 A 
HETATM   29  C   UNL     1      43.297 -14.958   6.522  1.00  0.00    -0.021 A 
HETATM   30  C   UNL     1      42.372 -14.134   5.860  1.00  0.00     0.010 A 
HETATM   31  C   UNL     1      41.078 -14.583   5.605  1.00  0.00     0.001 A 
HETATM   32  C   UNL     1      40.697 -15.860   6.006  1.00  0.00     0.003 A 
HETATM   33  C   UNL     1      41.608 -16.696   6.659  1.00  0.00     0.037 A 
BRANCH  29  34
HETATM   34  C   UNL     1      44.694 -14.433   6.792  1.00  0.00     0.067 C 
BRANCH  34  35
HETATM   35  C   UNL     1      44.822 -13.308   7.786  1.00  0.00    -0.032 C 
HETATM   36  C   UNL     1      45.942 -12.710   8.216  1.00  0.00     0.007 C 
ENDBRANCH  34  35
ENDBRANCH  29  34
ENDBRANCH  27  28
ENDBRANCH  26  27
ENDBRANCH  25  26
ENDBRANCH  21  25
ENDBRANCH  14  16
BRANCH   9  37
HETATM   37  O   UNL     1      37.870 -11.184  -0.452  1.00  0.00    -0.320 OA
BRANCH  37  38
HETATM   38  C   UNL     1      36.611 -11.090  -0.997  1.00  0.00     0.081 A 
HETATM   39  C   UNL     1      35.554 -10.769  -0.130  1.00  0.00    -0.028 A 
HETATM   40  C   UNL     1      35.795 -10.561   1.339  1.00  0.00     0.051 C 
HETATM   41  C   UNL     1      34.270 -10.593  -0.661  1.00  0.00     0.009 A 
HETATM   42  C   UNL     1      34.043 -10.737  -2.031  1.00  0.00     0.001 A 
HETATM   43  C   UNL     1      35.100 -11.042  -2.886  1.00  0.00     0.003 A 
HETATM   44  C   UNL     1      36.387 -11.206  -2.373  1.00  0.00     0.038 A 
ENDBRANCH  37  38
ENDBRANCH   9  37
TORSDOF 9
ENDMDL
MODEL 2
REMARK VINA RESULT:      -9.9      4.351      9.756
REMARK  9 active torsions:
REMARK  status: ('A' for Active; 'I' for Inactive)
REMARK    1  A    between atoms: C_9  and  O_10 
REMARK    2  A    between atoms: O_10  and  C_11 
REMARK    3  A    between atoms: C_22  and  C_23 
REMARK    4  A    between atoms: N_30  and  C_31 
REMARK    5  A    between atoms: C_31  and  C_32 
REMARK    6  A    between atoms: C_32  and  O_33 
REMARK    7  A    between atoms: O_33  and  C_34 
REMARK    8  A    between atoms: C_35  and  C_36 
REMARK    9  A    between atoms: C_36  and  C_37 
ROOT
HETATM    1  H   UNL     1      39.150 -15.921   2.112  1.00  0.00     0.188 HD
HETATM    2  N   UNL     1      39.097 -15.113   2.739  1.00  0.00    -0.282 NA
HETATM    3  C   UNL     1      40.292 -14.852   3.185  1.00  0.00     0.155 C 
HETATM    4  N   UNL     1      41.395 -15.624   2.900  1.00  0.00    -0.230 N 
HETATM    5  C   UNL     1      42.655 -15.274   3.354  1.00  0.00     0.195 A 
HETATM    6  N   UNL     1      42.991 -14.210   3.993  1.00  0.00    -0.183 NA
HETATM    7  N   UNL     1      41.338 -16.864   2.259  1.00  0.00    -0.186 NA
HETATM    8  C   UNL     1      42.564 -17.527   2.282  1.00  0.00     0.094 A 
HETATM    9  C   UNL     1      42.789 -18.792   1.902  1.00  0.00     0.175 C 
HETATM   10  S   UNL     1      43.852 -16.528   2.978  1.00  0.00    -0.035 SA
HETATM   11  C   UNL     1      40.575 -13.670   4.072  1.00  0.00     0.082 C 
HETATM   12  C   UNL     1      42.021 -13.253   4.228  1.00  0.00     0.283 C 
HETATM   13  O   UNL     1      42.331 -12.106   4.519  1.00  0.00    -0.265 OA
HETATM   14  C   UNL     1      39.527 -13.088   4.687  1.00  0.00     0.034 C 
HETATM   15  H   UNL     1      40.580 -17.477   2.558  1.00  0.00     0.154 HD
ENDROOT
BRANCH  14  16
HETATM   16  C   UNL     1      39.516 -12.061   5.681  1.00  0.00    -0.007 A 
HETATM   17  C   UNL     1      39.415 -10.658   5.452  1.00  0.00     0.002 A 
HETATM   18  C   UNL     1      39.334 -10.032   6.706  1.00  0.00     0.045 A 
HETATM   19  C   UNL     1      39.371  -9.861   4.285  1.00  0.00     0.014 A 
HETATM   20  C   UNL     1      39.198  -8.636   6.808  1.00  0.00     0.030 A 
HETATM   21  N   UNL     1      39.404 -11.030   7.660  1.00  0.00    -0.353 N 
HETATM   22  C   UNL     1      39.163  -7.872   5.638  1.00  0.00     0.002 A 
HETATM   23  C   UNL     1      39.250  -8.474   4.390  1.00  0.00     0.001 A 
HETATM   24  C   UNL     1      39.480 -12.257   7.040  1.00  0.00     0.103 A 
BRANCH  21  25
HETATM   25  C   UNL     1      39.287 -10.910   9.109  1.00  0.00     0.155 C 
BRANCH  25  26
HETATM   26  C   UNL     1      40.397 -10.150   9.835  1.00  0.00     0.196 C 
BRANCH  26  27
HETATM   27  O   UNL     1      41.101 -11.094  10.645  1.00  0.00    -0.349 OA
BRANCH  27  28
HETATM   28  C   UNL     1      41.601 -10.697  11.852  1.00  0.00     0.075 A 
HETATM   29  C   UNL     1      42.934 -10.240  11.834  1.00  0.00    -0.021 A 
HETATM   30  C   UNL     1      43.518  -9.780  13.026  1.00  0.00     0.010 A 
HETATM   31  C   UNL     1      42.798  -9.788  14.218  1.00  0.00     0.001 A 
HETATM   32  C   UNL     1      41.486 -10.253  14.231  1.00  0.00     0.003 A 
HETATM   33  C   UNL     1      40.887 -10.706  13.053  1.00  0.00     0.037 A 
BRANCH  29  34
HETATM   34  C   UNL     1      43.750 -10.225  10.557  1.00  0.00     0.067 C 
BRANCH  34  35
HETATM   35  C   UNL     1      45.083 -10.927  10.589  1.00  0.00    -0.032 C 
HETATM   36  C   UNL     1      45.904 -11.185   9.562  1.00  0.00     0.007 C 
ENDBRANCH  34  35
ENDBRANCH  29  34
ENDBRANCH  27  28
ENDBRANCH  26  27
ENDBRANCH  25  26
ENDBRANCH  21  25
ENDBRANCH  14  16
BRANCH   9  37
HETATM   37  O   UNL     1      44.020 -19.400   2.001  1.00  0.00    -0.320 OA
BRANCH  37  38
HETATM   38  C   UNL     1      44.231 -20.317   3.004  1.00  0.00     0.081 A 
HETATM   39  C   UNL     1      44.278 -21.672   2.640  1.00  0.00    -0.028 A 
HETATM   40  C   UNL     1      44.082 -22.097   1.212  1.00  0.00     0.051 C 
HETATM   41  C   UNL     1      44.564 -22.629   3.623  1.00  0.00     0.009 A 
HETATM   42  C   UNL     1      44.795 -22.242   4.944  1.00  0.00     0.001 A 
HETATM   43  C   UNL     1      44.759 -20.894   5.294  1.00  0.00     0.003 A 
HETATM   44  C   UNL     1      44.490 -19.929   4.323  1.00  0.00     0.038 A 
ENDBRANCH  37  38
ENDBRANCH   9  37
TORSDOF 9
ENDMDL
MODEL 3
REMARK VINA RESULT:      -9.7      4.014      9.645
REMARK  9 active torsions:
REMARK  status: ('A' for Active; 'I' for Inactive)
REMARK    1  A    between atoms: C_9  and  O_10 
REMARK    2  A    between atoms: O_10  and  C_11 
REMARK    3  A    between atoms: C_22  and  C_23 
REMARK    4  A    between atoms: N_30  and  C_31 
REMARK    5  A    between atoms: C_31  and  C_32 
REMARK    6  A    between atoms: C_32  and  O_33 
REMARK    7  A    between atoms: O_33  and  C_34 
REMARK    8  A    between atoms: C_35  and  C_36 
REMARK    9  A    between atoms: C_36  and  C_37 
ROOT
HETATM    1  H   UNL     1      39.146 -16.024   2.034  1.00  0.00     0.188 HD
HETATM    2  N   UNL     1      39.090 -15.192   2.628  1.00  0.00    -0.282 NA
HETATM    3  C   UNL     1      40.285 -14.907   3.060  1.00  0.00     0.155 C 
HETATM    4  N   UNL     1      41.391 -15.685   2.804  1.00  0.00    -0.230 N 
HETATM    5  C   UNL     1      42.650 -15.310   3.241  1.00  0.00     0.195 A 
HETATM    6  N   UNL     1      42.982 -14.220   3.836  1.00  0.00    -0.183 NA
HETATM    7  N   UNL     1      41.339 -16.950   2.214  1.00  0.00    -0.186 NA
HETATM    8  C   UNL     1      42.568 -17.605   2.261  1.00  0.00     0.094 A 
HETATM    9  C   UNL     1      42.798 -18.884   1.932  1.00  0.00     0.175 C 
HETATM   10  S   UNL     1      43.852 -16.573   2.913  1.00  0.00    -0.035 SA
HETATM   11  C   UNL     1      40.563 -13.688   3.898  1.00  0.00     0.082 C 
HETATM   12  C   UNL     1      42.007 -13.259   4.034  1.00  0.00     0.283 C 
HETATM   13  O   UNL     1      42.313 -12.099   4.278  1.00  0.00    -0.265 OA
HETATM   14  C   UNL     1      39.514 -13.087   4.492  1.00  0.00     0.034 C 
HETATM   15  H   UNL     1      40.584 -17.554   2.539  1.00  0.00     0.154 HD
ENDROOT
BRANCH  14  16
HETATM   16  C   UNL     1      39.500 -12.021   5.443  1.00  0.00    -0.007 A 
HETATM   17  C   UNL     1      39.184 -10.656   5.186  1.00  0.00     0.002 A 
HETATM   18  C   UNL     1      39.189  -9.983   6.418  1.00  0.00     0.045 A 
HETATM   19  C   UNL     1      38.880  -9.931   4.010  1.00  0.00     0.014 A 
HETATM   20  C   UNL     1      38.885  -8.612   6.492  1.00  0.00     0.030 A 
HETATM   21  N   UNL     1      39.518 -10.914   7.384  1.00  0.00    -0.353 N 
HETATM   22  C   UNL     1      38.593  -7.919   5.313  1.00  0.00     0.002 A 
HETATM   23  C   UNL     1      38.590  -8.567   4.086  1.00  0.00     0.001 A 
HETATM   24  C   UNL     1      39.672 -12.152   6.800  1.00  0.00     0.103 A 
BRANCH  21  25
HETATM   25  C   UNL     1      39.581 -10.738   8.831  1.00  0.00     0.155 C 
BRANCH  25  26
HETATM   26  C   UNL     1      40.720  -9.876   9.376  1.00  0.00     0.196 C 
BRANCH  26  27
HETATM   27  O   UNL     1      41.325 -10.599  10.450  1.00  0.00    -0.349 OA
BRANCH  27  28
HETATM   28  C   UNL     1      42.615 -11.029  10.323  1.00  0.00     0.075 A 
HETATM   29  C   UNL     1      43.202 -11.537  11.499  1.00  0.00    -0.021 A 
HETATM   30  C   UNL     1      44.516 -12.032  11.452  1.00  0.00     0.010 A 
HETATM   31  C   UNL     1      45.241 -12.009  10.263  1.00  0.00     0.001 A 
HETATM   32  C   UNL     1      44.659 -11.494   9.108  1.00  0.00     0.003 A 
HETATM   33  C   UNL     1      43.350 -11.004   9.135  1.00  0.00     0.037 A 
BRANCH  29  34
HETATM   34  C   UNL     1      42.446 -11.569  12.813  1.00  0.00     0.067 C 
BRANCH  34  35
HETATM   35  C   UNL     1      42.571 -10.360  13.703  1.00  0.00    -0.032 C 
HETATM   36  C   UNL     1      43.413  -9.326  13.576  1.00  0.00     0.007 C 
ENDBRANCH  34  35
ENDBRANCH  29  34
ENDBRANCH  27  28
ENDBRANCH  26  27
ENDBRANCH  25  26
ENDBRANCH  21  25
ENDBRANCH  14  16
BRANCH   9  37
HETATM   37  O   UNL     1      44.033 -19.481   2.052  1.00  0.00    -0.320 OA
BRANCH  37  38
HETATM   38  C   UNL     1      44.240 -20.380   3.073  1.00  0.00     0.081 A 
HETATM   39  C   UNL     1      44.350 -21.736   2.726  1.00  0.00    -0.028 A 
HETATM   40  C   UNL     1      44.221 -22.182   1.297  1.00  0.00     0.051 C 
HETATM   41  C   UNL     1      44.635 -22.672   3.729  1.00  0.00     0.009 A 
HETATM   42  C   UNL     1      44.803 -22.264   5.054  1.00  0.00     0.001 A 
HETATM   43  C   UNL     1      44.706 -20.914   5.386  1.00  0.00     0.003 A 
HETATM   44  C   UNL     1      44.438 -19.969   4.396  1.00  0.00     0.038 A 
ENDBRANCH  37  38
ENDBRANCH   9  37
TORSDOF 9
ENDMDL
MODEL 4
REMARK VINA RESULT:      -9.6      4.478      9.502
REMARK  9 active torsions:
REMARK  status: ('A' for Active; 'I' for Inactive)
REMARK    1  A    between atoms: C_9  and  O_10 
REMARK    2  A    between atoms: O_10  and  C_11 
REMARK    3  A    between atoms: C_22  and  C_23 
REMARK    4  A    between atoms: N_30  and  C_31 
REMARK    5  A    between atoms: C_31  and  C_32 
REMARK    6  A    between atoms: C_32  and  O_33 
REMARK    7  A    between atoms: O_33  and  C_34 
REMARK    8  A    between atoms: C_35  and  C_36 
REMARK    9  A    between atoms: C_36  and  C_37 
ROOT
HETATM    1  H   UNL     1      38.202 -12.528   7.331  1.00  0.00     0.188 HD
HETATM    2  N   UNL     1      38.515 -12.897   6.428  1.00  0.00    -0.282 NA
HETATM    3  C   UNL     1      39.797 -12.702   6.320  1.00  0.00     0.155 C 
HETATM    4  N   UNL     1      40.545 -12.023   7.256  1.00  0.00    -0.230 N 
HETATM    5  C   UNL     1      41.916 -11.890   7.121  1.00  0.00     0.195 A 
HETATM    6  N   UNL     1      42.670 -12.407   6.218  1.00  0.00    -0.183 NA
HETATM    7  N   UNL     1      40.000 -11.315   8.329  1.00  0.00    -0.186 NA
HETATM    8  C   UNL     1      40.955 -10.552   8.997  1.00  0.00     0.094 A 
HETATM    9  C   UNL     1      40.717  -9.643   9.953  1.00  0.00     0.175 C 
HETATM   10  S   UNL     1      42.591 -10.837   8.379  1.00  0.00    -0.035 SA
HETATM   11  C   UNL     1      40.586 -13.201   5.139  1.00  0.00     0.082 C 
HETATM   12  C   UNL     1      42.091 -13.246   5.283  1.00  0.00     0.283 C 
HETATM   13  O   UNL     1      42.777 -14.017   4.625  1.00  0.00    -0.265 OA
HETATM   14  C   UNL     1      39.900 -13.541   4.030  1.00  0.00     0.034 C 
HETATM   15  H   UNL     1      39.170 -10.762   8.112  1.00  0.00     0.154 HD
ENDROOT
BRANCH  14  16
HETATM   16  C   UNL     1      40.390 -13.900   2.737  1.00  0.00    -0.007 A 
HETATM   17  C   UNL     1      40.930 -13.017   1.757  1.00  0.00     0.002 A 
HETATM   18  C   UNL     1      41.385 -13.803   0.687  1.00  0.00     0.045 A 
HETATM   19  C   UNL     1      41.086 -11.613   1.690  1.00  0.00     0.014 A 
HETATM   20  C   UNL     1      41.998 -13.213  -0.432  1.00  0.00     0.030 A 
HETATM   21  N   UNL     1      41.108 -15.119   1.007  1.00  0.00    -0.353 N 
HETATM   22  C   UNL     1      42.134 -11.822  -0.475  1.00  0.00     0.002 A 
HETATM   23  C   UNL     1      41.683 -11.029   0.571  1.00  0.00     0.001 A 
HETATM   24  C   UNL     1      40.538 -15.180   2.260  1.00  0.00     0.103 A 
BRANCH  21  25
HETATM   25  C   UNL     1      41.450 -16.326   0.264  1.00  0.00     0.155 C 
BRANCH  25  26
HETATM   26  C   UNL     1      42.627 -17.152   0.785  1.00  0.00     0.196 C 
BRANCH  26  27
HETATM   27  O   UNL     1      42.107 -18.080   1.739  1.00  0.00    -0.349 OA
BRANCH  27  28
HETATM   28  C   UNL     1      42.966 -18.908   2.402  1.00  0.00     0.075 A 
HETATM   29  C   UNL     1      43.237 -18.556   3.739  1.00  0.00    -0.021 A 
HETATM   30  C   UNL     1      44.084 -19.371   4.507  1.00  0.00     0.010 A 
HETATM   31  C   UNL     1      44.666 -20.509   3.953  1.00  0.00     0.001 A 
HETATM   32  C   UNL     1      44.405 -20.845   2.628  1.00  0.00     0.003 A 
HETATM   33  C   UNL     1      43.558 -20.049   1.852  1.00  0.00     0.037 A 
BRANCH  29  34
HETATM   34  C   UNL     1      42.627 -17.320   4.371  1.00  0.00     0.067 C 
BRANCH  34  35
HETATM   35  C   UNL     1      41.293 -17.487   5.052  1.00  0.00    -0.032 C 
HETATM   36  C   UNL     1      40.862 -16.900   6.177  1.00  0.00     0.007 C 
ENDBRANCH  34  35
ENDBRANCH  29  34
ENDBRANCH  27  28
ENDBRANCH  26  27
ENDBRANCH  25  26
ENDBRANCH  21  25
ENDBRANCH  14  16
BRANCH   9  37
HETATM   37  O   UNL     1      41.709  -8.887  10.536  1.00  0.00    -0.320 OA
BRANCH  37  38
HETATM   38  C   UNL     1      41.861  -8.928  11.903  1.00  0.00     0.081 A 
HETATM   39  C   UNL     1      43.035  -9.512  12.404  1.00  0.00    -0.028 A 
HETATM   40  C   UNL     1      44.069 -10.089  11.479  1.00  0.00     0.051 C 
HETATM   41  C   UNL     1      43.259  -9.505  13.788  1.00  0.00     0.009 A 
HETATM   42  C   UNL     1      42.327  -8.931  14.654  1.00  0.00     0.001 A 
HETATM   43  C   UNL     1      41.171  -8.341  14.146  1.00  0.00     0.003 A 
HETATM   44  C   UNL     1      40.942  -8.327  12.770  1.00  0.00     0.038 A 
ENDBRANCH  37  38
ENDBRANCH   9  37
TORSDOF 9
ENDMDL
MODEL 5
REMARK VINA RESULT:      -9.6      4.533      9.257
REMARK  9 active torsions:
REMARK  status: ('A' for Active; 'I' for Inactive)
REMARK    1  A    between atoms: C_9  and  O_10 
REMARK    2  A    between atoms: O_10  and  C_11 
REMARK    3  A    between atoms: C_22  and  C_23 
REMARK    4  A    between atoms: N_30  and  C_31 
REMARK    5  A    between atoms: C_31  and  C_32 
REMARK    6  A    between atoms: C_32  and  O_33 
REMARK    7  A    between atoms: O_33  and  C_34 
REMARK    8  A    between atoms: C_35  and  C_36 
REMARK    9  A    between atoms: C_36  and  C_37 
ROOT
HETATM    1  H   UNL     1      41.707  -8.778   5.146  1.00  0.00     0.188 HD
HETATM    2  N   UNL     1      41.719  -9.572   4.498  1.00  0.00    -0.282 NA
HETATM    3  C   UNL     1      41.106 -10.575   5.056  1.00  0.00     0.155 C 
HETATM    4  N   UNL     1      40.622 -10.548   6.345  1.00  0.00    -0.230 N 
HETATM    5  C   UNL     1      39.929 -11.622   6.876  1.00  0.00     0.195 A 
HETATM    6  N   UNL     1      39.576 -12.703   6.274  1.00  0.00    -0.183 NA
HETATM    7  N   UNL     1      40.884  -9.524   7.259  1.00  0.00    -0.186 NA
HETATM    8  C   UNL     1      40.454  -9.842   8.545  1.00  0.00     0.094 A 
HETATM    9  C   UNL     1      40.710  -9.146   9.662  1.00  0.00     0.175 C 
HETATM   10  S   UNL     1      39.569 -11.376   8.595  1.00  0.00    -0.035 SA
HETATM   11  C   UNL     1      40.877 -11.875   4.335  1.00  0.00     0.082 C 
HETATM   12  C   UNL     1      39.856 -12.822   4.925  1.00  0.00     0.283 C 
HETATM   13  O   UNL     1      39.268 -13.645   4.235  1.00  0.00    -0.265 OA
HETATM   14  C   UNL     1      41.619 -12.117   3.236  1.00  0.00     0.034 C 
HETATM   15  H   UNL     1      41.844  -9.177   7.264  1.00  0.00     0.154 HD
ENDROOT
BRANCH  14  16
HETATM   16  C   UNL     1      41.715 -13.308   2.453  1.00  0.00    -0.007 A 
HETATM   17  C   UNL     1      41.135 -13.532   1.171  1.00  0.00     0.002 A 
HETATM   18  C   UNL     1      41.571 -14.790   0.725  1.00  0.00     0.045 A 
HETATM   19  C   UNL     1      40.285 -12.767   0.339  1.00  0.00     0.014 A 
HETATM   20  C   UNL     1      41.182 -15.283  -0.532  1.00  0.00     0.030 A 
HETATM   21  N   UNL     1      42.373 -15.314   1.721  1.00  0.00    -0.353 N 
HETATM   22  C   UNL     1      40.336 -14.509  -1.332  1.00  0.00     0.002 A 
HETATM   23  C   UNL     1      39.890 -13.266  -0.904  1.00  0.00     0.001 A 
HETATM   24  C   UNL     1      42.488 -14.405   2.749  1.00  0.00     0.103 A 
BRANCH  21  25
HETATM   25  C   UNL     1      43.130 -16.561   1.714  1.00  0.00     0.155 C 
BRANCH  25  26
HETATM   26  C   UNL     1      42.746 -17.612   2.756  1.00  0.00     0.196 C 
BRANCH  26  27
HETATM   27  O   UNL     1      43.953 -18.239   3.194  1.00  0.00    -0.349 OA
BRANCH  27  28
HETATM   28  C   UNL     1      44.101 -19.587   3.033  1.00  0.00     0.075 A 
HETATM   29  C   UNL     1      44.548 -20.287   4.171  1.00  0.00    -0.021 A 
HETATM   30  C   UNL     1      44.697 -21.682   4.105  1.00  0.00     0.010 A 
HETATM   31  C   UNL     1      44.422 -22.370   2.925  1.00  0.00     0.001 A 
HETATM   32  C   UNL     1      43.994 -21.671   1.800  1.00  0.00     0.003 A 
HETATM   33  C   UNL     1      43.833 -20.283   1.851  1.00  0.00     0.037 A 
BRANCH  29  34
HETATM   34  C   UNL     1      44.865 -19.570   5.469  1.00  0.00     0.067 C 
BRANCH  34  35
HETATM   35  C   UNL     1      43.808 -19.600   6.542  1.00  0.00    -0.032 C 
HETATM   36  C   UNL     1      43.664 -20.490   7.534  1.00  0.00     0.007 C 
ENDBRANCH  34  35
ENDBRANCH  29  34
ENDBRANCH  27  28
ENDBRANCH  26  27
ENDBRANCH  25  26
ENDBRANCH  21  25
ENDBRANCH  14  16
BRANCH   9  37
HETATM   37  O   UNL     1      40.294  -9.548  10.911  1.00  0.00    -0.320 OA
BRANCH  37  38
HETATM   38  C   UNL     1      41.169  -9.446  11.968  1.00  0.00     0.081 A 
HETATM   39  C   UNL     1      41.220 -10.521  12.869  1.00  0.00    -0.028 A 
HETATM   40  C   UNL     1      40.334 -11.722  12.693  1.00  0.00     0.051 C 
HETATM   41  C   UNL     1      42.151 -10.486  13.916  1.00  0.00     0.009 A 
HETATM   42  C   UNL     1      43.012  -9.396  14.063  1.00  0.00     0.001 A 
HETATM   43  C   UNL     1      42.963  -8.340  13.156  1.00  0.00     0.003 A 
HETATM   44  C   UNL     1      42.052  -8.369  12.100  1.00  0.00     0.038 A 
ENDBRANCH  37  38
ENDBRANCH   9  37
TORSDOF 9
ENDMDL
MODEL 6
REMARK VINA RESULT:      -9.1      1.617      2.269
REMARK  9 active torsions:
REMARK  status: ('A' for Active; 'I' for Inactive)
REMARK    1  A    between atoms: C_9  and  O_10 
REMARK    2  A    between atoms: O_10  and  C_11 
REMARK    3  A    between atoms: C_22  and  C_23 
REMARK    4  A    between atoms: N_30  and  C_31 
REMARK    5  A    between atoms: C_31  and  C_32 
REMARK    6  A    between atoms: C_32  and  O_33 
REMARK    7  A    between atoms: O_33  and  C_34 
REMARK    8  A    between atoms: C_35  and  C_36 
REMARK    9  A    between atoms: C_36  and  C_37 
ROOT
HETATM    1  H   UNL     1      41.688 -15.372  -1.642  1.00  0.00     0.188 HD
HETATM    2  N   UNL     1      42.063 -16.012  -0.935  1.00  0.00    -0.282 NA
HETATM    3  C   UNL     1      41.397 -15.848   0.171  1.00  0.00     0.155 C 
HETATM    4  N   UNL     1      40.421 -14.890   0.336  1.00  0.00    -0.230 N 
HETATM    5  C   UNL     1      39.703 -14.790   1.515  1.00  0.00     0.195 A 
HETATM    6  N   UNL     1      39.764 -15.566   2.538  1.00  0.00    -0.183 NA
HETATM    7  N   UNL     1      40.156 -13.876  -0.588  1.00  0.00    -0.186 NA
HETATM    8  C   UNL     1      39.271 -12.924  -0.086  1.00  0.00     0.094 A 
HETATM    9  C   UNL     1      38.953 -11.755  -0.660  1.00  0.00     0.175 C 
HETATM   10  S   UNL     1      38.634 -13.375   1.505  1.00  0.00    -0.035 SA
HETATM   11  C   UNL     1      41.645 -16.696   1.389  1.00  0.00     0.082 C 
HETATM   12  C   UNL     1      40.591 -16.672   2.473  1.00  0.00     0.283 C 
HETATM   13  O   UNL     1      40.447 -17.608   3.249  1.00  0.00    -0.265 OA
HETATM   14  C   UNL     1      42.800 -17.389   1.440  1.00  0.00     0.034 C 
HETATM   15  H   UNL     1      40.978 -13.435  -1.002  1.00  0.00     0.154 HD
ENDROOT
BRANCH  14  16
HETATM   16  C   UNL     1      43.354 -18.145   2.518  1.00  0.00    -0.007 A 
HETATM   17  C   UNL     1      43.649 -19.540   2.515  1.00  0.00     0.002 A 
HETATM   18  C   UNL     1      44.277 -19.840   3.733  1.00  0.00     0.045 A 
HETATM   19  C   UNL     1      43.448 -20.576   1.574  1.00  0.00     0.014 A 
HETATM   20  C   UNL     1      44.715 -21.146   4.016  1.00  0.00     0.030 A 
HETATM   21  N   UNL     1      44.340 -18.663   4.455  1.00  0.00    -0.353 N 
HETATM   22  C   UNL     1      44.498 -22.152   3.070  1.00  0.00     0.002 A 
HETATM   23  C   UNL     1      43.872 -21.875   1.863  1.00  0.00     0.001 A 
HETATM   24  C   UNL     1      43.814 -17.633   3.707  1.00  0.00     0.103 A 
BRANCH  21  25
HETATM   25  C   UNL     1      44.967 -18.425   5.750  1.00  0.00     0.155 C 
BRANCH  25  26
HETATM   26  C   UNL     1      44.100 -18.638   6.992  1.00  0.00     0.196 C 
BRANCH  26  27
HETATM   27  O   UNL     1      43.846 -17.352   7.561  1.00  0.00    -0.349 OA
BRANCH  27  28
HETATM   28  C   UNL     1      42.917 -16.537   6.982  1.00  0.00     0.075 A 
HETATM   29  C   UNL     1      43.390 -15.276   6.569  1.00  0.00    -0.021 A 
HETATM   30  C   UNL     1      42.509 -14.386   5.933  1.00  0.00     0.010 A 
HETATM   31  C   UNL     1      41.177 -14.735   5.724  1.00  0.00     0.001 A 
HETATM   32  C   UNL     1      40.712 -15.977   6.145  1.00  0.00     0.003 A 
HETATM   33  C   UNL     1      41.578 -16.878   6.772  1.00  0.00     0.037 A 
BRANCH  29  34
HETATM   34  C   UNL     1      44.831 -14.859   6.790  1.00  0.00     0.067 C 
BRANCH  34  35
HETATM   35  C   UNL     1      45.069 -13.456   7.284  1.00  0.00    -0.032 C 
HETATM   36  C   UNL     1      44.792 -12.949   8.493  1.00  0.00     0.007 C 
ENDBRANCH  34  35
ENDBRANCH  29  34
ENDBRANCH  27  28
ENDBRANCH  26  27
ENDBRANCH  25  26
ENDBRANCH  21  25
ENDBRANCH  14  16
BRANCH   9  37
HETATM   37  O   UNL     1      38.107 -10.838  -0.080  1.00  0.00    -0.320 OA
BRANCH  37  38
HETATM   38  C   UNL     1      38.639  -9.689   0.459  1.00  0.00     0.081 A 
HETATM   39  C   UNL     1      38.630  -8.536  -0.343  1.00  0.00    -0.028 A 
HETATM   40  C   UNL     1      38.081  -8.570  -1.741  1.00  0.00     0.051 C 
HETATM   41  C   UNL     1      39.096  -7.330   0.198  1.00  0.00     0.009 A 
HETATM   42  C   UNL     1      39.566  -7.276   1.512  1.00  0.00     0.001 A 
HETATM   43  C   UNL     1      39.558  -8.422   2.304  1.00  0.00     0.003 A 
HETATM   44  C   UNL     1      39.083  -9.627   1.784  1.00  0.00     0.038 A 
ENDBRANCH  37  38
ENDBRANCH   9  37
TORSDOF 9
ENDMDL
MODEL 7
REMARK VINA RESULT:      -9.0      2.213      5.408
REMARK  9 active torsions:
REMARK  status: ('A' for Active; 'I' for Inactive)
REMARK    1  A    between atoms: C_9  and  O_10 
REMARK    2  A    between atoms: O_10  and  C_11 
REMARK    3  A    between atoms: C_22  and  C_23 
REMARK    4  A    between atoms: N_30  and  C_31 
REMARK    5  A    between atoms: C_31  and  C_32 
REMARK    6  A    between atoms: C_32  and  O_33 
REMARK    7  A    between atoms: O_33  and  C_34 
REMARK    8  A    between atoms: C_35  and  C_36 
REMARK    9  A    between atoms: C_36  and  C_37 
ROOT
HETATM    1  H   UNL     1      38.001 -11.695   2.569  1.00  0.00     0.188 HD
HETATM    2  N   UNL     1      38.665 -12.240   3.128  1.00  0.00    -0.282 NA
HETATM    3  C   UNL     1      39.565 -12.742   2.334  1.00  0.00     0.155 C 
HETATM    4  N   UNL     1      39.530 -12.609   0.964  1.00  0.00    -0.230 N 
HETATM    5  C   UNL     1      40.541 -13.116   0.166  1.00  0.00     0.195 A 
HETATM    6  N   UNL     1      41.634 -13.676   0.546  1.00  0.00    -0.183 NA
HETATM    7  N   UNL     1      38.446 -12.083   0.256  1.00  0.00    -0.186 NA
HETATM    8  C   UNL     1      38.583 -12.254  -1.120  1.00  0.00     0.094 A 
HETATM    9  C   UNL     1      37.645 -12.010  -2.046  1.00  0.00     0.175 C 
HETATM   10  S   UNL     1      40.155 -12.943  -1.556  1.00  0.00    -0.035 SA
HETATM   11  C   UNL     1      40.736 -13.534   2.851  1.00  0.00     0.082 C 
HETATM   12  C   UNL     1      41.894 -13.752   1.902  1.00  0.00     0.283 C 
HETATM   13  O   UNL     1      43.030 -13.957   2.311  1.00  0.00    -0.265 OA
HETATM   14  C   UNL     1      40.656 -14.017   4.106  1.00  0.00     0.034 C 
HETATM   15  H   UNL     1      37.526 -12.383   0.578  1.00  0.00     0.154 HD
ENDROOT
BRANCH  14  16
HETATM   16  C   UNL     1      41.539 -14.908   4.790  1.00  0.00    -0.007 A 
HETATM   17  C   UNL     1      42.590 -14.545   5.682  1.00  0.00     0.002 A 
HETATM   18  C   UNL     1      43.126 -15.732   6.207  1.00  0.00     0.045 A 
HETATM   19  C   UNL     1      43.128 -13.306   6.102  1.00  0.00     0.014 A 
HETATM   20  C   UNL     1      44.172 -15.698   7.145  1.00  0.00     0.030 A 
HETATM   21  N   UNL     1      42.429 -16.777   5.631  1.00  0.00    -0.353 N 
HETATM   22  C   UNL     1      44.689 -14.459   7.538  1.00  0.00     0.002 A 
HETATM   23  C   UNL     1      44.176 -13.276   7.025  1.00  0.00     0.001 A 
HETATM   24  C   UNL     1      41.448 -16.279   4.802  1.00  0.00     0.103 A 
BRANCH  21  25
HETATM   25  C   UNL     1      42.550 -18.206   5.900  1.00  0.00     0.155 C 
BRANCH  25  26
HETATM   26  C   UNL     1      43.965 -18.780   5.980  1.00  0.00     0.196 C 
BRANCH  26  27
HETATM   27  O   UNL     1      44.521 -18.726   4.665  1.00  0.00    -0.349 OA
BRANCH  27  28
HETATM   28  C   UNL     1      44.373 -19.798   3.832  1.00  0.00     0.075 A 
HETATM   29  C   UNL     1      43.897 -19.500   2.540  1.00  0.00    -0.021 A 
HETATM   30  C   UNL     1      43.747 -20.538   1.606  1.00  0.00     0.010 A 
HETATM   31  C   UNL     1      44.048 -21.853   1.953  1.00  0.00     0.001 A 
HETATM   32  C   UNL     1      44.505 -22.143   3.235  1.00  0.00     0.003 A 
HETATM   33  C   UNL     1      44.668 -21.120   4.174  1.00  0.00     0.037 A 
BRANCH  29  34
HETATM   34  C   UNL     1      43.552 -18.081   2.131  1.00  0.00     0.067 C 
BRANCH  34  35
HETATM   35  C   UNL     1      42.088 -17.738   2.025  1.00  0.00    -0.032 C 
HETATM   36  C   UNL     1      41.396 -17.409   0.926  1.00  0.00     0.007 C 
ENDBRANCH  34  35
ENDBRANCH  29  34
ENDBRANCH  27  28
ENDBRANCH  26  27
ENDBRANCH  25  26
ENDBRANCH  21  25
ENDBRANCH  14  16
BRANCH   9  37
HETATM   37  O   UNL     1      37.832 -12.251  -3.388  1.00  0.00    -0.320 OA
BRANCH  37  38
HETATM   38  C   UNL     1      36.732 -12.476  -4.184  1.00  0.00     0.081 A 
HETATM   39  C   UNL     1      36.410 -13.811  -4.474  1.00  0.00    -0.028 A 
HETATM   40  C   UNL     1      37.250 -14.942  -3.953  1.00  0.00     0.051 C 
HETATM   41  C   UNL     1      35.255 -14.083  -5.220  1.00  0.00     0.009 A 
HETATM   42  C   UNL     1      34.440 -13.042  -5.670  1.00  0.00     0.001 A 
HETATM   43  C   UNL     1      34.761 -11.721  -5.365  1.00  0.00     0.003 A 
HETATM   44  C   UNL     1      35.900 -11.437  -4.611  1.00  0.00     0.038 A 
ENDBRANCH  37  38
ENDBRANCH   9  37
TORSDOF 9
ENDMDL
MODEL 8
REMARK VINA RESULT:      -9.0      3.175     11.170
REMARK  9 active torsions:
REMARK  status: ('A' for Active; 'I' for Inactive)
REMARK    1  A    between atoms: C_9  and  O_10 
REMARK    2  A    between atoms: O_10  and  C_11 
REMARK    3  A    between atoms: C_22  and  C_23 
REMARK    4  A    between atoms: N_30  and  C_31 
REMARK    5  A    between atoms: C_31  and  C_32 
REMARK    6  A    between atoms: C_32  and  O_33 
REMARK    7  A    between atoms: O_33  and  C_34 
REMARK    8  A    between atoms: C_35  and  C_36 
REMARK    9  A    between atoms: C_36  and  C_37 
ROOT
HETATM    1  H   UNL     1      43.343 -13.461   3.483  1.00  0.00     0.188 HD
HETATM    2  N   UNL     1      42.840 -12.858   2.824  1.00  0.00    -0.282 NA
HETATM    3  C   UNL     1      42.156 -13.608   2.011  1.00  0.00     0.155 C 
HETATM    4  N   UNL     1      42.209 -14.984   2.019  1.00  0.00    -0.230 N 
HETATM    5  C   UNL     1      41.421 -15.739   1.168  1.00  0.00     0.195 A 
HETATM    6  N   UNL     1      40.519 -15.319   0.354  1.00  0.00    -0.183 NA
HETATM    7  N   UNL     1      43.126 -15.728   2.766  1.00  0.00    -0.186 NA
HETATM    8  C   UNL     1      43.102 -17.081   2.434  1.00  0.00     0.094 A 
HETATM    9  C   UNL     1      43.969 -18.014   2.851  1.00  0.00     0.175 C 
HETATM   10  S   UNL     1      41.813 -17.466   1.282  1.00  0.00    -0.035 SA
HETATM   11  C   UNL     1      41.240 -13.029   0.967  1.00  0.00     0.082 C 
HETATM   12  C   UNL     1      40.234 -13.966   0.334  1.00  0.00     0.283 C 
HETATM   13  O   UNL     1      39.188 -13.553  -0.150  1.00  0.00    -0.265 OA
HETATM   14  C   UNL     1      41.401 -11.730   0.647  1.00  0.00     0.034 C 
HETATM   15  H   UNL     1      44.079 -15.365   2.777  1.00  0.00     0.154 HD
ENDROOT
BRANCH  14  16
HETATM   16  C   UNL     1      40.783 -10.970  -0.392  1.00  0.00    -0.007 A 
HETATM   17  C   UNL     1      41.300 -10.739  -1.700  1.00  0.00     0.002 A 
HETATM   18  C   UNL     1      40.321 -10.037  -2.422  1.00  0.00     0.045 A 
HETATM   19  C   UNL     1      42.513 -11.078  -2.342  1.00  0.00     0.014 A 
HETATM   20  C   UNL     1      40.532  -9.684  -3.766  1.00  0.00     0.030 A 
HETATM   21  N   UNL     1      39.256  -9.836  -1.565  1.00  0.00    -0.353 N 
HETATM   22  C   UNL     1      41.743 -10.026  -4.374  1.00  0.00     0.002 A 
HETATM   23  C   UNL     1      42.724 -10.714  -3.674  1.00  0.00     0.001 A 
HETATM   24  C   UNL     1      39.520 -10.429  -0.350  1.00  0.00     0.103 A 
BRANCH  21  25
HETATM   25  C   UNL     1      37.962  -9.226  -1.852  1.00  0.00     0.155 C 
BRANCH  25  26
HETATM   26  C   UNL     1      36.830 -10.164  -2.270  1.00  0.00     0.196 C 
BRANCH  26  27
HETATM   27  O   UNL     1      37.194 -10.740  -3.526  1.00  0.00    -0.349 OA
BRANCH  27  28
HETATM   28  C   UNL     1      36.601 -11.903  -3.925  1.00  0.00     0.075 A 
HETATM   29  C   UNL     1      37.390 -13.063  -3.790  1.00  0.00    -0.021 A 
HETATM   30  C   UNL     1      36.847 -14.308  -4.145  1.00  0.00     0.010 A 
HETATM   31  C   UNL     1      35.549 -14.401  -4.641  1.00  0.00     0.001 A 
HETATM   32  C   UNL     1      34.779 -13.250  -4.784  1.00  0.00     0.003 A 
HETATM   33  C   UNL     1      35.301 -12.003  -4.427  1.00  0.00     0.037 A 
BRANCH  29  34
HETATM   34  C   UNL     1      38.810 -12.998  -3.263  1.00  0.00     0.067 C 
BRANCH  34  35
HETATM   35  C   UNL     1      39.702 -14.176  -3.555  1.00  0.00    -0.032 C 
HETATM   36  C   UNL     1      40.996 -14.330  -3.239  1.00  0.00     0.007 C 
ENDBRANCH  34  35
ENDBRANCH  29  34
ENDBRANCH  27  28
ENDBRANCH  26  27
ENDBRANCH  25  26
ENDBRANCH  21  25
ENDBRANCH  14  16
BRANCH   9  37
HETATM   37  O   UNL     1      43.916 -19.327   2.441  1.00  0.00    -0.320 OA
BRANCH  37  38
HETATM   38  C   UNL     1      44.184 -20.321   3.353  1.00  0.00     0.081 A 
HETATM   39  C   UNL     1      44.346 -21.625   2.858  1.00  0.00    -0.028 A 
HETATM   40  C   UNL     1      44.208 -21.918   1.391  1.00  0.00     0.051 C 
HETATM   41  C   UNL     1      44.694 -22.650   3.748  1.00  0.00     0.009 A 
HETATM   42  C   UNL     1      44.871 -22.381   5.107  1.00  0.00     0.001 A 
HETATM   43  C   UNL     1      44.721 -21.082   5.586  1.00  0.00     0.003 A 
HETATM   44  C   UNL     1      44.390 -20.048   4.710  1.00  0.00     0.038 A 
ENDBRANCH  37  38
ENDBRANCH   9  37
TORSDOF 9
ENDMDL
MODEL 9
REMARK VINA RESULT:      -8.8      4.724      9.732
REMARK  9 active torsions:
REMARK  status: ('A' for Active; 'I' for Inactive)
REMARK    1  A    between atoms: C_9  and  O_10 
REMARK    2  A    between atoms: O_10  and  C_11 
REMARK    3  A    between atoms: C_22  and  C_23 
REMARK    4  A    between atoms: N_30  and  C_31 
REMARK    5  A    between atoms: C_31  and  C_32 
REMARK    6  A    between atoms: C_32  and  O_33 
REMARK    7  A    between atoms: O_33  and  C_34 
REMARK    8  A    between atoms: C_35  and  C_36 
REMARK    9  A    between atoms: C_36  and  C_37 
ROOT
HETATM    1  H   UNL     1      38.021 -12.626   7.246  1.00  0.00     0.188 HD
HETATM    2  N   UNL     1      38.387 -12.885   6.325  1.00  0.00    -0.282 NA
HETATM    3  C   UNL     1      39.638 -12.532   6.260  1.00  0.00     0.155 C 
HETATM    4  N   UNL     1      40.287 -11.843   7.260  1.00  0.00    -0.230 N 
HETATM    5  C   UNL     1      41.634 -11.538   7.166  1.00  0.00     0.195 A 
HETATM    6  N   UNL     1      42.456 -11.892   6.242  1.00  0.00    -0.183 NA
HETATM    7  N   UNL     1      39.647 -11.288   8.371  1.00  0.00    -0.186 NA
HETATM    8  C   UNL     1      40.496 -10.471   9.115  1.00  0.00     0.094 A 
HETATM    9  C   UNL     1      40.139  -9.673  10.131  1.00  0.00     0.175 C 
HETATM   10  S   UNL     1      42.162 -10.512   8.513  1.00  0.00    -0.035 SA
HETATM   11  C   UNL     1      40.496 -12.842   5.063  1.00  0.00     0.082 C 
HETATM   12  C   UNL     1      41.993 -12.720   5.236  1.00  0.00     0.283 C 
HETATM   13  O   UNL     1      42.775 -13.351   4.537  1.00  0.00    -0.265 OA
HETATM   14  C   UNL     1      39.869 -13.174   3.917  1.00  0.00     0.034 C 
HETATM   15  H   UNL     1      38.760 -10.823   8.178  1.00  0.00     0.154 HD
ENDROOT
BRANCH  14  16
HETATM   16  C   UNL     1      40.415 -13.372   2.612  1.00  0.00    -0.007 A 
HETATM   17  C   UNL     1      40.913 -12.364   1.736  1.00  0.00     0.002 A 
HETATM   18  C   UNL     1      41.450 -13.011   0.611  1.00  0.00     0.045 A 
HETATM   19  C   UNL     1      40.967 -10.953   1.805  1.00  0.00     0.014 A 
HETATM   20  C   UNL     1      42.045 -12.274  -0.428  1.00  0.00     0.030 A 
HETATM   21  N   UNL     1      41.261 -14.367   0.798  1.00  0.00    -0.353 N 
HETATM   22  C   UNL     1      42.079 -10.880  -0.337  1.00  0.00     0.002 A 
HETATM   23  C   UNL     1      41.547 -10.224   0.765  1.00  0.00     0.001 A 
HETATM   24  C   UNL     1      40.668 -14.587   2.021  1.00  0.00     0.103 A 
BRANCH  21  25
HETATM   25  C   UNL     1      41.709 -15.470  -0.045  1.00  0.00     0.155 C 
BRANCH  25  26
HETATM   26  C   UNL     1      41.598 -16.879   0.540  1.00  0.00     0.196 C 
BRANCH  26  27
HETATM   27  O   UNL     1      42.909 -17.275   0.948  1.00  0.00    -0.349 OA
BRANCH  27  28
HETATM   28  C   UNL     1      43.163 -17.478   2.274  1.00  0.00     0.075 A 
HETATM   29  C   UNL     1      43.301 -18.825   2.665  1.00  0.00    -0.021 A 
HETATM   30  C   UNL     1      43.597 -19.126   4.004  1.00  0.00     0.010 A 
HETATM   31  C   UNL     1      43.736 -18.108   4.945  1.00  0.00     0.001 A 
HETATM   32  C   UNL     1      43.586 -16.780   4.556  1.00  0.00     0.003 A 
HETATM   33  C   UNL     1      43.300 -16.464   3.225  1.00  0.00     0.037 A 
BRANCH  29  34
HETATM   34  C   UNL     1      43.147 -19.959   1.669  1.00  0.00     0.067 C 
BRANCH  34  35
HETATM   35  C   UNL     1      43.560 -21.333   2.129  1.00  0.00    -0.032 C 
HETATM   36  C   UNL     1      44.656 -22.023   1.785  1.00  0.00     0.007 C 
ENDBRANCH  34  35
ENDBRANCH  29  34
ENDBRANCH  27  28
ENDBRANCH  26  27
ENDBRANCH  25  26
ENDBRANCH  21  25
ENDBRANCH  14  16
BRANCH   9  37
HETATM   37  O   UNL     1      41.026  -8.852  10.789  1.00  0.00    -0.320 OA
BRANCH  37  38
HETATM   38  C   UNL     1      41.489  -9.230  12.029  1.00  0.00     0.081 A 
HETATM   39  C   UNL     1      40.898  -8.626  13.150  1.00  0.00    -0.028 A 
HETATM   40  C   UNL     1      39.820  -7.591  12.993  1.00  0.00     0.051 C 
HETATM   41  C   UNL     1      41.291  -9.040  14.430  1.00  0.00     0.009 A 
HETATM   42  C   UNL     1      42.258 -10.034  14.588  1.00  0.00     0.001 A 
HETATM   43  C   UNL     1      42.829 -10.638  13.469  1.00  0.00     0.003 A 
HETATM   44  C   UNL     1      42.437 -10.247  12.189  1.00  0.00     0.038 A 
ENDBRANCH  37  38
ENDBRANCH   9  37
TORSDOF 9
ENDMDL
MODEL 10
REMARK VINA RESULT:      -8.7      2.361      5.538
REMARK  9 active torsions:
REMARK  status: ('A' for Active; 'I' for Inactive)
REMARK    1  A    between atoms: C_9  and  O_10 
REMARK    2  A    between atoms: O_10  and  C_11 
REMARK    3  A    between atoms: C_22  and  C_23 
REMARK    4  A    between atoms: N_30  and  C_31 
REMARK    5  A    between atoms: C_31  and  C_32 
REMARK    6  A    between atoms: C_32  and  O_33 
REMARK    7  A    between atoms: O_33  and  C_34 
REMARK    8  A    between atoms: C_35  and  C_36 
REMARK    9  A    between atoms: C_36  and  C_37 
ROOT
HETATM    1  H   UNL     1      37.197 -10.439   3.223  1.00  0.00     0.188 HD
HETATM    2  N   UNL     1      37.930 -11.122   3.440  1.00  0.00    -0.282 NA
HETATM    3  C   UNL     1      38.343 -11.658   2.329  1.00  0.00     0.155 C 
HETATM    4  N   UNL     1      37.787 -11.383   1.099  1.00  0.00    -0.230 N 
HETATM    5  C   UNL     1      38.297 -11.938  -0.061  1.00  0.00     0.195 A 
HETATM    6  N   UNL     1      39.344 -12.675  -0.184  1.00  0.00    -0.183 NA
HETATM    7  N   UNL     1      36.613 -10.647   0.918  1.00  0.00    -0.186 NA
HETATM    8  C   UNL     1      36.159 -10.695  -0.398  1.00  0.00     0.094 A 
HETATM    9  C   UNL     1      34.983 -10.235  -0.849  1.00  0.00     0.175 C 
HETATM   10  S   UNL     1      37.291 -11.541  -1.467  1.00  0.00    -0.035 SA
HETATM   11  C   UNL     1      39.476 -12.647   2.289  1.00  0.00     0.082 C 
HETATM   12  C   UNL     1      40.107 -12.922   0.942  1.00  0.00     0.283 C 
HETATM   13  O   UNL     1      41.261 -13.317   0.842  1.00  0.00    -0.265 OA
HETATM   14  C   UNL     1      39.826 -13.240   3.448  1.00  0.00     0.034 C 
HETATM   15  H   UNL     1      35.862 -10.853   1.577  1.00  0.00     0.154 HD
ENDROOT
BRANCH  14  16
HETATM   16  C   UNL     1      40.749 -14.305   3.676  1.00  0.00    -0.007 A 
HETATM   17  C   UNL     1      41.831 -14.309   4.604  1.00  0.00     0.002 A 
HETATM   18  C   UNL     1      42.406 -15.589   4.576  1.00  0.00     0.045 A 
HETATM   19  C   UNL     1      42.367 -13.336   5.480  1.00  0.00     0.014 A 
HETATM   20  C   UNL     1      43.490 -15.911   5.412  1.00  0.00     0.030 A 
HETATM   21  N   UNL     1      41.702 -16.327   3.644  1.00  0.00    -0.353 N 
HETATM   22  C   UNL     1      44.004 -14.929   6.263  1.00  0.00     0.002 A 
HETATM   23  C   UNL     1      43.452 -13.656   6.299  1.00  0.00     0.001 A 
HETATM   24  C   UNL     1      40.680 -15.563   3.126  1.00  0.00     0.103 A 
BRANCH  21  25
HETATM   25  C   UNL     1      41.855 -17.735   3.297  1.00  0.00     0.155 C 
BRANCH  25  26
HETATM   26  C   UNL     1      42.967 -18.090   2.309  1.00  0.00     0.196 C 
BRANCH  26  27
HETATM   27  O   UNL     1      44.091 -18.531   3.074  1.00  0.00    -0.349 OA
BRANCH  27  28
HETATM   28  C   UNL     1      44.297 -19.869   3.248  1.00  0.00     0.075 A 
HETATM   29  C   UNL     1      44.711 -20.255   4.538  1.00  0.00    -0.021 A 
HETATM   30  C   UNL     1      44.914 -21.616   4.816  1.00  0.00     0.010 A 
HETATM   31  C   UNL     1      44.726 -22.578   3.826  1.00  0.00     0.001 A 
HETATM   32  C   UNL     1      44.329 -22.189   2.550  1.00  0.00     0.003 A 
HETATM   33  C   UNL     1      44.115 -20.839   2.259  1.00  0.00     0.037 A 
BRANCH  29  34
HETATM   34  C   UNL     1      44.935 -19.234   5.637  1.00  0.00     0.067 C 
BRANCH  34  35
HETATM   35  C   UNL     1      43.968 -19.250   6.792  1.00  0.00    -0.032 C 
HETATM   36  C   UNL     1      44.046 -18.568   7.943  1.00  0.00     0.007 C 
ENDBRANCH  34  35
ENDBRANCH  29  34
ENDBRANCH  27  28
ENDBRANCH  26  27
ENDBRANCH  25  26
ENDBRANCH  21  25
ENDBRANCH  14  16
BRANCH   9  37
HETATM   37  O   UNL     1      34.578 -10.362  -2.158  1.00  0.00    -0.320 OA
BRANCH  37  38
HETATM   38  C   UNL     1      33.357 -10.939  -2.423  1.00  0.00     0.081 A 
HETATM   39  C   UNL     1      33.283 -11.818  -3.516  1.00  0.00    -0.028 A 
HETATM   40  C   UNL     1      34.487 -12.093  -4.371  1.00  0.00     0.051 C 
HETATM   41  C   UNL     1      32.075 -12.481  -3.772  1.00  0.00     0.009 A 
HETATM   42  C   UNL     1      30.962 -12.268  -2.956  1.00  0.00     0.001 A 
HETATM   43  C   UNL     1      31.049 -11.405  -1.866  1.00  0.00     0.003 A 
HETATM   44  C   UNL     1      32.249 -10.749  -1.590  1.00  0.00     0.038 A 
ENDBRANCH  37  38
ENDBRANCH   9  37
TORSDOF 9
ENDMDL
