MODEL 1
REMARK VINA RESULT:      -9.2      0.000      0.000
REMARK  6 active torsions:
REMARK  status: ('A' for Active; 'I' for Inactive)
REMARK    1  A    between atoms: C_2  and  O_3 
REMARK    2  A    between atoms: O_3  and  C_4 
REMARK    3  A    between atoms: C_5  and  O_6 
REMARK    4  A    between atoms: O_6  and  C_7 
REMARK    5  A    between atoms: C_7  and  C_8 
REMARK    6  A    between atoms: C_18  and  C_19 
ROOT
HETATM    1  C   UNL     1      42.857 -13.839   5.329  1.00  0.00     0.103 A 
HETATM    2  C   UNL     1      43.656 -14.975   5.523  1.00  0.00     0.112 A 
HETATM    3  C   UNL     1      44.495 -15.090   6.631  1.00  0.00     0.041 A 
HETATM    4  C   UNL     1      44.540 -14.060   7.566  1.00  0.00     0.014 A 
HETATM    5  C   UNL     1      43.738 -12.917   7.413  1.00  0.00    -0.013 A 
HETATM    6  C   UNL     1      42.906 -12.812   6.278  1.00  0.00     0.050 A 
ENDROOT
BRANCH   5   7
HETATM    7  C   UNL     1      43.704 -11.887   8.518  1.00  0.00     0.219 C 
HETATM    8  N   UNL     1      43.835 -12.521   9.804  1.00  0.00    -0.332 N 
HETATM    9  C   UNL     1      43.644 -11.820  10.965  1.00  0.00     0.256 C 
HETATM   10  H   UNL     1      44.463 -13.308   9.884  1.00  0.00     0.165 HD
HETATM   11  O   UNL     1      44.101 -12.194  12.039  1.00  0.00    -0.267 OA
HETATM   12  C   UNL     1      42.847 -10.611  10.824  1.00  0.00     0.073 A 
HETATM   13  C   UNL     1      42.283 -10.326   9.599  1.00  0.00     0.088 A 
HETATM   14  C   UNL     1      42.531  -9.619  11.802  1.00  0.00    -0.023 A 
HETATM   15  S   UNL     1      41.356  -8.902   9.626  1.00  0.00    -0.074 SA
HETATM   16  N   UNL     1      42.477 -11.108   8.509  1.00  0.00    -0.358 N 
HETATM   17  C   UNL     1      41.723  -8.631  11.268  1.00  0.00     0.018 A 
HETATM   18  C   UNL     1      41.235  -7.432  12.008  1.00  0.00     0.281 C 
HETATM   19  N   UNL     1      41.417  -7.592  13.515  1.00  0.00    -0.070 N 
HETATM   20  C   UNL     1      42.775  -8.198  13.860  1.00  0.00     0.239 C 
HETATM   21  H   UNL     1      41.416  -6.641  13.902  1.00  0.00     0.279 HD
HETATM   22  C   UNL     1      40.266  -8.307  14.163  1.00  0.00     0.270 C 
HETATM   23  C   UNL     1      42.966  -9.593  13.237  1.00  0.00     0.068 C 
HETATM   24  H   UNL     1      42.236 -10.733   7.594  1.00  0.00     0.162 HD
ENDBRANCH   5   7
BRANCH   1  25
HETATM   25  O   UNL     1      42.057 -13.854   4.218  1.00  0.00    -0.349 OA
BRANCH  25  26
HETATM   26  C   UNL     1      40.656 -14.035   4.408  1.00  0.00     0.171 C 
HETATM   27  C   UNL     1      40.155 -14.962   3.314  1.00  0.00     0.034 C 
ENDBRANCH  25  26
ENDBRANCH   1  25
BRANCH   2  28
HETATM   28  O   UNL     1      43.461 -16.055   4.628  1.00  0.00    -0.272 OA
BRANCH  28  29
HETATM   29  C   UNL     1      42.737 -17.183   4.971  1.00  0.00     0.298 C 
HETATM   30  O   UNL     1      41.834 -17.262   5.789  1.00  0.00    -0.259 OA
BRANCH  29  31
HETATM   31  C   UNL     1      43.168 -18.311   4.101  1.00  0.00     0.040 A 
HETATM   32  C   UNL     1      44.079 -19.240   4.623  1.00  0.00     0.019 A 
HETATM   33  C   UNL     1      44.473 -20.344   3.863  1.00  0.00     0.020 A 
HETATM   34  C   UNL     1      43.963 -20.516   2.577  1.00  0.00     0.011 A 
HETATM   35 BR   UNL     1      44.482 -22.017   1.554  1.00  0.00    -0.051 Br
HETATM   36  C   UNL     1      43.067 -19.591   2.041  1.00  0.00     0.020 A 
HETATM   37  C   UNL     1      42.669 -18.487   2.801  1.00  0.00     0.019 A 
ENDBRANCH  29  31
ENDBRANCH  28  29
ENDBRANCH   2  28
TORSDOF 6
ENDMDL
MODEL 2
REMARK VINA RESULT:      -9.0      1.813      2.376
REMARK  6 active torsions:
REMARK  status: ('A' for Active; 'I' for Inactive)
REMARK    1  A    between atoms: C_2  and  O_3 
REMARK    2  A    between atoms: O_3  and  C_4 
REMARK    3  A    between atoms: C_5  and  O_6 
REMARK    4  A    between atoms: O_6  and  C_7 
REMARK    5  A    between atoms: C_7  and  C_8 
REMARK    6  A    between atoms: C_18  and  C_19 
ROOT
HETATM    1  C   UNL     1      40.902 -14.508   4.279  1.00  0.00     0.103 A 
HETATM    2  C   UNL     1      42.118 -15.208   4.309  1.00  0.00     0.112 A 
HETATM    3  C   UNL     1      43.195 -14.755   5.068  1.00  0.00     0.041 A 
HETATM    4  C   UNL     1      43.065 -13.587   5.815  1.00  0.00     0.014 A 
HETATM    5  C   UNL     1      41.856 -12.872   5.823  1.00  0.00    -0.013 A 
HETATM    6  C   UNL     1      40.781 -13.338   5.037  1.00  0.00     0.050 A 
ENDROOT
BRANCH   5   7
HETATM    7  C   UNL     1      41.703 -11.693   6.755  1.00  0.00     0.219 C 
HETATM    8  N   UNL     1      42.764 -11.678   7.729  1.00  0.00    -0.332 N 
HETATM    9  C   UNL     1      42.738 -10.817   8.794  1.00  0.00     0.256 C 
HETATM   10  H   UNL     1      43.688 -11.952   7.429  1.00  0.00     0.165 HD
HETATM   11  O   UNL     1      43.751 -10.506   9.410  1.00  0.00    -0.267 OA
HETATM   12  C   UNL     1      41.417 -10.318   9.144  1.00  0.00     0.073 A 
HETATM   13  C   UNL     1      40.321 -10.806   8.466  1.00  0.00     0.088 A 
HETATM   14  C   UNL     1      41.049  -9.355  10.133  1.00  0.00    -0.023 A 
HETATM   15  S   UNL     1      38.861 -10.145   9.030  1.00  0.00    -0.074 SA
HETATM   16  N   UNL     1      40.430 -11.704   7.456  1.00  0.00    -0.358 N 
HETATM   17  C   UNL     1      39.678  -9.173  10.166  1.00  0.00     0.018 A 
HETATM   18  C   UNL     1      38.963  -8.218  11.060  1.00  0.00     0.281 C 
HETATM   19  N   UNL     1      39.865  -7.727  12.190  1.00  0.00    -0.070 N 
HETATM   20  C   UNL     1      41.269  -7.394  11.689  1.00  0.00     0.239 C 
HETATM   21  H   UNL     1      39.455  -6.843  12.513  1.00  0.00     0.279 HD
HETATM   22  C   UNL     1      39.860  -8.648  13.376  1.00  0.00     0.270 C 
HETATM   23  C   UNL     1      41.966  -8.614  11.060  1.00  0.00     0.068 C 
HETATM   24  H   UNL     1      39.628 -11.850   6.848  1.00  0.00     0.162 HD
ENDBRANCH   5   7
BRANCH   1  25
HETATM   25  O   UNL     1      39.911 -15.065   3.517  1.00  0.00    -0.349 OA
BRANCH  25  26
HETATM   26  C   UNL     1      39.520 -14.382   2.329  1.00  0.00     0.171 C 
HETATM   27  C   UNL     1      40.098 -15.139   1.146  1.00  0.00     0.034 C 
ENDBRANCH  25  26
ENDBRANCH   1  25
BRANCH   2  28
HETATM   28  O   UNL     1      42.148 -16.464   3.657  1.00  0.00    -0.272 OA
BRANCH  28  29
HETATM   29  C   UNL     1      43.202 -16.860   2.853  1.00  0.00     0.298 C 
HETATM   30  O   UNL     1      43.716 -16.227   1.943  1.00  0.00    -0.259 OA
BRANCH  29  31
HETATM   31  C   UNL     1      43.703 -18.177   3.332  1.00  0.00     0.040 A 
HETATM   32  C   UNL     1      43.859 -18.362   4.713  1.00  0.00     0.019 A 
HETATM   33  C   UNL     1      44.277 -19.598   5.215  1.00  0.00     0.020 A 
HETATM   34  C   UNL     1      44.547 -20.645   4.335  1.00  0.00     0.011 A 
HETATM   35 BR   UNL     1      45.096 -22.322   5.014  1.00  0.00    -0.051 Br
HETATM   36  C   UNL     1      44.409 -20.469   2.959  1.00  0.00     0.020 A 
HETATM   37  C   UNL     1      43.988 -19.234   2.456  1.00  0.00     0.019 A 
ENDBRANCH  29  31
ENDBRANCH  28  29
ENDBRANCH   2  28
TORSDOF 6
ENDMDL
MODEL 3
REMARK VINA RESULT:      -8.7      2.142      3.169
REMARK  6 active torsions:
REMARK  status: ('A' for Active; 'I' for Inactive)
REMARK    1  A    between atoms: C_2  and  O_3 
REMARK    2  A    between atoms: O_3  and  C_4 
REMARK    3  A    between atoms: C_5  and  O_6 
REMARK    4  A    between atoms: O_6  and  C_7 
REMARK    5  A    between atoms: C_7  and  C_8 
REMARK    6  A    between atoms: C_18  and  C_19 
ROOT
HETATM    1  C   UNL     1      40.543 -14.060   4.918  1.00  0.00     0.103 A 
HETATM    2  C   UNL     1      40.507 -13.405   3.679  1.00  0.00     0.112 A 
HETATM    3  C   UNL     1      40.626 -12.019   3.589  1.00  0.00     0.041 A 
HETATM    4  C   UNL     1      40.787 -11.268   4.750  1.00  0.00     0.014 A 
HETATM    5  C   UNL     1      40.848 -11.893   6.006  1.00  0.00    -0.013 A 
HETATM    6  C   UNL     1      40.711 -13.296   6.078  1.00  0.00     0.050 A 
ENDROOT
BRANCH   5   7
HETATM    7  C   UNL     1      41.169 -11.065   7.228  1.00  0.00     0.219 C 
HETATM    8  N   UNL     1      42.471 -11.402   7.740  1.00  0.00    -0.332 N 
HETATM    9  C   UNL     1      42.906 -10.924   8.947  1.00  0.00     0.256 C 
HETATM   10  H   UNL     1      43.205 -11.605   7.076  1.00  0.00     0.165 HD
HETATM   11  O   UNL     1      44.095 -10.866   9.239  1.00  0.00    -0.267 OA
HETATM   12  C   UNL     1      41.849 -10.508   9.856  1.00  0.00     0.073 A 
HETATM   13  C   UNL     1      40.538 -10.711   9.486  1.00  0.00     0.088 A 
HETATM   14  C   UNL     1      41.954  -9.894  11.142  1.00  0.00    -0.023 A 
HETATM   15  S   UNL     1      39.440 -10.203  10.680  1.00  0.00    -0.074 SA
HETATM   16  N   UNL     1      40.193 -11.246   8.290  1.00  0.00    -0.358 N 
HETATM   17  C   UNL     1      40.705  -9.676  11.694  1.00  0.00     0.018 A 
HETATM   18  C   UNL     1      40.453  -9.025  13.011  1.00  0.00     0.281 C 
HETATM   19  N   UNL     1      41.725  -8.954  13.852  1.00  0.00    -0.070 N 
HETATM   20  C   UNL     1      42.934  -8.538  13.017  1.00  0.00     0.239 C 
HETATM   21  H   UNL     1      41.571  -8.202  14.534  1.00  0.00     0.279 HD
HETATM   22  C   UNL     1      41.958 -10.203  14.653  1.00  0.00     0.270 C 
HETATM   23  C   UNL     1      43.213  -9.523  11.867  1.00  0.00     0.068 C 
HETATM   24  H   UNL     1      39.228 -11.158   7.979  1.00  0.00     0.162 HD
ENDBRANCH   5   7
BRANCH   1  25
HETATM   25  O   UNL     1      40.442 -15.425   4.875  1.00  0.00    -0.349 OA
BRANCH  25  26
HETATM   26  C   UNL     1      41.332 -16.185   5.688  1.00  0.00     0.171 C 
HETATM   27  C   UNL     1      41.307 -17.619   5.189  1.00  0.00     0.034 C 
ENDBRANCH  25  26
ENDBRANCH   1  25
BRANCH   2  28
HETATM   28  O   UNL     1      40.494 -14.223   2.523  1.00  0.00    -0.272 OA
BRANCH  28  29
HETATM   29  C   UNL     1      41.606 -14.386   1.715  1.00  0.00     0.298 C 
HETATM   30  O   UNL     1      42.158 -13.534   1.037  1.00  0.00    -0.259 OA
BRANCH  29  31
HETATM   31  C   UNL     1      42.108 -15.778   1.868  1.00  0.00     0.040 A 
HETATM   32  C   UNL     1      41.286 -16.830   1.439  1.00  0.00     0.019 A 
HETATM   33  C   UNL     1      41.735 -18.151   1.515  1.00  0.00     0.020 A 
HETATM   34  C   UNL     1      43.003 -18.421   2.027  1.00  0.00     0.011 A 
HETATM   35 BR   UNL     1      43.619 -20.206   2.114  1.00  0.00    -0.051 Br
HETATM   36  C   UNL     1      43.825 -17.386   2.469  1.00  0.00     0.020 A 
HETATM   37  C   UNL     1      43.378 -16.063   2.392  1.00  0.00     0.019 A 
ENDBRANCH  29  31
ENDBRANCH  28  29
ENDBRANCH   2  28
TORSDOF 6
ENDMDL
MODEL 4
REMARK VINA RESULT:      -8.5      5.326      9.475
REMARK  6 active torsions:
REMARK  status: ('A' for Active; 'I' for Inactive)
REMARK    1  A    between atoms: C_2  and  O_3 
REMARK    2  A    between atoms: O_3  and  C_4 
REMARK    3  A    between atoms: C_5  and  O_6 
REMARK    4  A    between atoms: O_6  and  C_7 
REMARK    5  A    between atoms: C_7  and  C_8 
REMARK    6  A    between atoms: C_18  and  C_19 
ROOT
HETATM    1  C   UNL     1      42.720 -15.810   5.783  1.00  0.00     0.103 A 
HETATM    2  C   UNL     1      42.336 -17.157   5.868  1.00  0.00     0.112 A 
HETATM    3  C   UNL     1      41.481 -17.727   4.925  1.00  0.00     0.041 A 
HETATM    4  C   UNL     1      40.999 -16.948   3.877  1.00  0.00     0.014 A 
HETATM    5  C   UNL     1      41.379 -15.601   3.751  1.00  0.00    -0.013 A 
HETATM    6  C   UNL     1      42.233 -15.038   4.722  1.00  0.00     0.050 A 
ENDROOT
BRANCH   5   7
HETATM    7  C   UNL     1      40.954 -14.827   2.526  1.00  0.00     0.219 C 
HETATM    8  N   UNL     1      39.584 -14.401   2.647  1.00  0.00    -0.332 N 
HETATM    9  C   UNL     1      38.915 -13.848   1.587  1.00  0.00     0.256 C 
HETATM   10  H   UNL     1      39.257 -14.103   3.555  1.00  0.00     0.165 HD
HETATM   11  O   UNL     1      37.921 -13.146   1.734  1.00  0.00    -0.267 OA
HETATM   12  C   UNL     1      39.467 -14.171   0.280  1.00  0.00     0.073 A 
HETATM   13  C   UNL     1      40.521 -15.056   0.205  1.00  0.00     0.088 A 
HETATM   14  C   UNL     1      39.070 -13.700  -1.008  1.00  0.00    -0.023 A 
HETATM   15  S   UNL     1      41.011 -15.347  -1.396  1.00  0.00    -0.074 SA
HETATM   16  N   UNL     1      41.091 -15.605   1.306  1.00  0.00    -0.358 N 
HETATM   17  C   UNL     1      39.841 -14.269  -2.006  1.00  0.00     0.018 A 
HETATM   18  C   UNL     1      39.712 -13.972  -3.461  1.00  0.00     0.281 C 
HETATM   19  N   UNL     1      38.402 -13.252  -3.772  1.00  0.00    -0.070 N 
HETATM   20  C   UNL     1      38.096 -12.165  -2.743  1.00  0.00     0.239 C 
HETATM   21  H   UNL     1      38.550 -12.771  -4.667  1.00  0.00     0.279 HD
HETATM   22  C   UNL     1      37.259 -14.201  -3.990  1.00  0.00     0.270 C 
HETATM   23  C   UNL     1      37.967 -12.732  -1.318  1.00  0.00     0.068 C 
HETATM   24  H   UNL     1      41.996 -16.059   1.208  1.00  0.00     0.162 HD
ENDBRANCH   5   7
BRANCH   1  25
HETATM   25  O   UNL     1      43.583 -15.373   6.752  1.00  0.00    -0.349 OA
BRANCH  25  26
HETATM   26  C   UNL     1      44.438 -14.277   6.437  1.00  0.00     0.171 C 
HETATM   27  C   UNL     1      44.777 -13.565   7.735  1.00  0.00     0.034 C 
ENDBRANCH  25  26
ENDBRANCH   1  25
BRANCH   2  28
HETATM   28  O   UNL     1      42.972 -17.942   6.860  1.00  0.00    -0.272 OA
BRANCH  28  29
HETATM   29  C   UNL     1      44.274 -18.392   6.731  1.00  0.00     0.298 C 
HETATM   30  O   UNL     1      45.200 -18.210   7.506  1.00  0.00    -0.259 OA
BRANCH  29  31
HETATM   31  C   UNL     1      44.368 -19.243   5.513  1.00  0.00     0.040 A 
HETATM   32  C   UNL     1      44.423 -20.634   5.680  1.00  0.00     0.019 A 
HETATM   33  C   UNL     1      44.459 -21.476   4.565  1.00  0.00     0.020 A 
HETATM   34  C   UNL     1      44.450 -20.926   3.284  1.00  0.00     0.011 A 
HETATM   35 BR   UNL     1      44.483 -22.065   1.775  1.00  0.00    -0.051 Br
HETATM   36  C   UNL     1      44.411 -19.544   3.105  1.00  0.00     0.020 A 
HETATM   37  C   UNL     1      44.371 -18.700   4.219  1.00  0.00     0.019 A 
ENDBRANCH  29  31
ENDBRANCH  28  29
ENDBRANCH   2  28
TORSDOF 6
ENDMDL
MODEL 5
REMARK VINA RESULT:      -8.4      1.921      2.587
REMARK  6 active torsions:
REMARK  status: ('A' for Active; 'I' for Inactive)
REMARK    1  A    between atoms: C_2  and  O_3 
REMARK    2  A    between atoms: O_3  and  C_4 
REMARK    3  A    between atoms: C_5  and  O_6 
REMARK    4  A    between atoms: O_6  and  C_7 
REMARK    5  A    between atoms: C_7  and  C_8 
REMARK    6  A    between atoms: C_18  and  C_19 
ROOT
HETATM    1  C   UNL     1      40.437 -12.738   4.340  1.00  0.00     0.103 A 
HETATM    2  C   UNL     1      41.340 -13.807   4.234  1.00  0.00     0.112 A 
HETATM    3  C   UNL     1      42.389 -13.960   5.138  1.00  0.00     0.041 A 
HETATM    4  C   UNL     1      42.546 -13.038   6.170  1.00  0.00     0.014 A 
HETATM    5  C   UNL     1      41.648 -11.968   6.318  1.00  0.00    -0.013 A 
HETATM    6  C   UNL     1      40.600 -11.821   5.384  1.00  0.00     0.050 A 
ENDROOT
BRANCH   5   7
HETATM    7  C   UNL     1      41.761 -11.073   7.529  1.00  0.00     0.219 C 
HETATM    8  N   UNL     1      43.016 -11.289   8.202  1.00  0.00    -0.332 N 
HETATM    9  C   UNL     1      43.270 -10.734   9.428  1.00  0.00     0.256 C 
HETATM   10  H   UNL     1      43.835 -11.459   7.636  1.00  0.00     0.165 HD
HETATM   11  O   UNL     1      44.409 -10.573   9.851  1.00  0.00    -0.267 OA
HETATM   12  C   UNL     1      42.085 -10.368  10.190  1.00  0.00     0.073 A 
HETATM   13  C   UNL     1      40.845 -10.685   9.682  1.00  0.00     0.088 A 
HETATM   14  C   UNL     1      41.993  -9.701  11.449  1.00  0.00    -0.023 A 
HETATM   15  S   UNL     1      39.580 -10.220  10.718  1.00  0.00    -0.074 SA
HETATM   16  N   UNL     1      40.683 -11.289   8.479  1.00  0.00    -0.358 N 
HETATM   17  C   UNL     1      40.675  -9.560  11.844  1.00  0.00     0.018 A 
HETATM   18  C   UNL     1      40.223  -8.882  13.092  1.00  0.00     0.281 C 
HETATM   19  N   UNL     1      41.379  -8.682  14.070  1.00  0.00    -0.070 N 
HETATM   20  C   UNL     1      42.644  -8.204  13.360  1.00  0.00     0.239 C 
HETATM   21  H   UNL     1      41.091  -7.919  14.694  1.00  0.00     0.279 HD
HETATM   22  C   UNL     1      41.606  -9.878  14.949  1.00  0.00     0.270 C 
HETATM   23  C   UNL     1      43.128  -9.206  12.296  1.00  0.00     0.068 C 
HETATM   24  H   UNL     1      39.757 -11.288   8.056  1.00  0.00     0.162 HD
ENDBRANCH   5   7
BRANCH   1  25
HETATM   25  O   UNL     1      39.433 -12.709   3.409  1.00  0.00    -0.349 OA
BRANCH  25  26
HETATM   26  C   UNL     1      39.512 -11.732   2.375  1.00  0.00     0.171 C 
HETATM   27  C   UNL     1      38.353 -10.767   2.559  1.00  0.00     0.034 C 
ENDBRANCH  25  26
ENDBRANCH   1  25
BRANCH   2  28
HETATM   28  O   UNL     1      41.048 -14.796   3.264  1.00  0.00    -0.272 OA
BRANCH  28  29
HETATM   29  C   UNL     1      41.853 -15.016   2.161  1.00  0.00     0.298 C 
HETATM   30  O   UNL     1      42.065 -14.248   1.235  1.00  0.00    -0.259 OA
BRANCH  29  31
HETATM   31  C   UNL     1      42.525 -16.336   2.313  1.00  0.00     0.040 A 
HETATM   32  C   UNL     1      42.053 -17.208   3.305  1.00  0.00     0.019 A 
HETATM   33  C   UNL     1      42.617 -18.477   3.452  1.00  0.00     0.020 A 
HETATM   34  C   UNL     1      43.659 -18.872   2.615  1.00  0.00     0.011 A 
HETATM   35 BR   UNL     1      44.412 -20.596   2.802  1.00  0.00    -0.051 Br
HETATM   36  C   UNL     1      44.147 -18.009   1.635  1.00  0.00     0.020 A 
HETATM   37  C   UNL     1      43.582 -16.739   1.483  1.00  0.00     0.019 A 
ENDBRANCH  29  31
ENDBRANCH  28  29
ENDBRANCH   2  28
TORSDOF 6
ENDMDL
MODEL 6
REMARK VINA RESULT:      -8.4      1.954      2.825
REMARK  6 active torsions:
REMARK  status: ('A' for Active; 'I' for Inactive)
REMARK    1  A    between atoms: C_2  and  O_3 
REMARK    2  A    between atoms: O_3  and  C_4 
REMARK    3  A    between atoms: C_5  and  O_6 
REMARK    4  A    between atoms: O_6  and  C_7 
REMARK    5  A    between atoms: C_7  and  C_8 
REMARK    6  A    between atoms: C_18  and  C_19 
ROOT
HETATM    1  C   UNL     1      41.478 -15.467   5.370  1.00  0.00     0.103 A 
HETATM    2  C   UNL     1      41.636 -15.239   3.994  1.00  0.00     0.112 A 
HETATM    3  C   UNL     1      41.613 -13.949   3.467  1.00  0.00     0.041 A 
HETATM    4  C   UNL     1      41.432 -12.863   4.320  1.00  0.00     0.014 A 
HETATM    5  C   UNL     1      41.290 -13.054   5.704  1.00  0.00    -0.013 A 
HETATM    6  C   UNL     1      41.302 -14.368   6.218  1.00  0.00     0.050 A 
ENDROOT
BRANCH   5   7
HETATM    7  C   UNL     1      41.241 -11.849   6.614  1.00  0.00     0.219 C 
HETATM    8  N   UNL     1      42.407 -11.806   7.459  1.00  0.00    -0.332 N 
HETATM    9  C   UNL     1      42.501 -10.916   8.495  1.00  0.00     0.256 C 
HETATM   10  H   UNL     1      43.292 -12.088   7.062  1.00  0.00     0.165 HD
HETATM   11  O   UNL     1      43.577 -10.588   8.982  1.00  0.00    -0.267 OA
HETATM   12  C   UNL     1      41.227 -10.408   8.982  1.00  0.00     0.073 A 
HETATM   13  C   UNL     1      40.062 -10.916   8.448  1.00  0.00     0.088 A 
HETATM   14  C   UNL     1      40.972  -9.418   9.979  1.00  0.00    -0.023 A 
HETATM   15  S   UNL     1      38.674 -10.239   9.157  1.00  0.00    -0.074 SA
HETATM   16  N   UNL     1      40.058 -11.841   7.458  1.00  0.00    -0.358 N 
HETATM   17  C   UNL     1      39.613  -9.236  10.165  1.00  0.00     0.018 A 
HETATM   18  C   UNL     1      39.002  -8.256  11.108  1.00  0.00     0.281 C 
HETATM   19  N   UNL     1      40.026  -7.733  12.112  1.00  0.00    -0.070 N 
HETATM   20  C   UNL     1      41.362  -7.414  11.444  1.00  0.00     0.239 C 
HETATM   21  H   UNL     1      39.653  -6.840  12.456  1.00  0.00     0.279 HD
HETATM   22  C   UNL     1      40.161  -8.620  13.316  1.00  0.00     0.270 C 
HETATM   23  C   UNL     1      41.987  -8.651  10.773  1.00  0.00     0.068 C 
HETATM   24  H   UNL     1      39.191 -12.004   6.950  1.00  0.00     0.162 HD
ENDBRANCH   5   7
BRANCH   1  25
HETATM   25  O   UNL     1      41.544 -16.775   5.769  1.00  0.00    -0.349 OA
BRANCH  25  26
HETATM   26  C   UNL     1      42.093 -17.051   7.055  1.00  0.00     0.171 C 
HETATM   27  C   UNL     1      43.575 -16.718   7.009  1.00  0.00     0.034 C 
ENDBRANCH  25  26
ENDBRANCH   1  25
BRANCH   2  28
HETATM   28  O   UNL     1      41.968 -16.359   3.194  1.00  0.00    -0.272 OA
BRANCH  28  29
HETATM   29  C   UNL     1      43.235 -16.551   2.672  1.00  0.00     0.298 C 
HETATM   30  O   UNL     1      43.991 -15.697   2.234  1.00  0.00    -0.259 OA
BRANCH  29  31
HETATM   31  C   UNL     1      43.597 -17.987   2.810  1.00  0.00     0.040 A 
HETATM   32  C   UNL     1      44.162 -18.414   4.020  1.00  0.00     0.019 A 
HETATM   33  C   UNL     1      44.472 -19.763   4.216  1.00  0.00     0.020 A 
HETATM   34  C   UNL     1      44.224 -20.683   3.199  1.00  0.00     0.011 A 
HETATM   35 BR   UNL     1      44.627 -22.510   3.469  1.00  0.00    -0.051 Br
HETATM   36  C   UNL     1      43.676 -20.269   1.986  1.00  0.00     0.020 A 
HETATM   37  C   UNL     1      43.363 -18.921   1.789  1.00  0.00     0.019 A 
ENDBRANCH  29  31
ENDBRANCH  28  29
ENDBRANCH   2  28
TORSDOF 6
ENDMDL
MODEL 7
REMARK VINA RESULT:      -8.2      6.775     11.237
REMARK  6 active torsions:
REMARK  status: ('A' for Active; 'I' for Inactive)
REMARK    1  A    between atoms: C_2  and  O_3 
REMARK    2  A    between atoms: O_3  and  C_4 
REMARK    3  A    between atoms: C_5  and  O_6 
REMARK    4  A    between atoms: O_6  and  C_7 
REMARK    5  A    between atoms: C_7  and  C_8 
REMARK    6  A    between atoms: C_18  and  C_19 
ROOT
HETATM    1  C   UNL     1      42.365 -14.236   1.851  1.00  0.00     0.103 A 
HETATM    2  C   UNL     1      42.620 -15.615   1.872  1.00  0.00     0.112 A 
HETATM    3  C   UNL     1      42.080 -16.466   0.909  1.00  0.00     0.041 A 
HETATM    4  C   UNL     1      41.275 -15.939  -0.097  1.00  0.00     0.014 A 
HETATM    5  C   UNL     1      41.015 -14.560  -0.160  1.00  0.00    -0.013 A 
HETATM    6  C   UNL     1      41.558 -13.717   0.832  1.00  0.00     0.050 A 
ENDROOT
BRANCH   5   7
HETATM    7  C   UNL     1      40.259 -14.005  -1.344  1.00  0.00     0.219 C 
HETATM    8  N   UNL     1      39.799 -12.669  -1.068  1.00  0.00    -0.332 N 
HETATM    9  C   UNL     1      38.931 -12.028  -1.912  1.00  0.00     0.256 C 
HETATM   10  H   UNL     1      40.405 -12.057  -0.541  1.00  0.00     0.165 HD
HETATM   11  O   UNL     1      38.816 -10.808  -1.930  1.00  0.00    -0.267 OA
HETATM   12  C   UNL     1      38.150 -12.907  -2.768  1.00  0.00     0.073 A 
HETATM   13  C   UNL     1      38.267 -14.270  -2.603  1.00  0.00     0.088 A 
HETATM   14  C   UNL     1      37.228 -12.571  -3.806  1.00  0.00    -0.023 A 
HETATM   15  S   UNL     1      37.257 -15.141  -3.657  1.00  0.00    -0.074 SA
HETATM   16  N   UNL     1      39.113 -14.825  -1.701  1.00  0.00    -0.358 N 
HETATM   17  C   UNL     1      36.674 -13.706  -4.369  1.00  0.00     0.018 A 
HETATM   18  C   UNL     1      35.700 -13.714  -5.497  1.00  0.00     0.281 C 
HETATM   19  N   UNL     1      35.096 -12.331  -5.725  1.00  0.00    -0.070 N 
HETATM   20  C   UNL     1      36.153 -11.232  -5.640  1.00  0.00     0.239 C 
HETATM   21  H   UNL     1      34.752 -12.329  -6.692  1.00  0.00     0.279 HD
HETATM   22  C   UNL     1      33.899 -12.072  -4.855  1.00  0.00     0.270 C 
HETATM   23  C   UNL     1      36.847 -11.195  -4.267  1.00  0.00     0.068 C 
HETATM   24  H   UNL     1      39.327 -15.816  -1.782  1.00  0.00     0.162 HD
ENDBRANCH   5   7
BRANCH   1  25
HETATM   25  O   UNL     1      42.971 -13.501   2.835  1.00  0.00    -0.349 OA
BRANCH  25  26
HETATM   26  C   UNL     1      42.172 -12.570   3.559  1.00  0.00     0.171 C 
HETATM   27  C   UNL     1      42.441 -12.779   5.039  1.00  0.00     0.034 C 
ENDBRANCH  25  26
ENDBRANCH   1  25
BRANCH   2  28
HETATM   28  O   UNL     1      43.564 -16.076   2.821  1.00  0.00    -0.272 OA
BRANCH  28  29
HETATM   29  C   UNL     1      43.194 -16.553   4.067  1.00  0.00     0.298 C 
HETATM   30  O   UNL     1      42.497 -15.990   4.897  1.00  0.00    -0.259 OA
BRANCH  29  31
HETATM   31  C   UNL     1      43.708 -17.941   4.220  1.00  0.00     0.040 A 
HETATM   32  C   UNL     1      43.926 -18.427   5.517  1.00  0.00     0.019 A 
HETATM   33  C   UNL     1      44.359 -19.741   5.714  1.00  0.00     0.020 A 
HETATM   34  C   UNL     1      44.582 -20.567   4.613  1.00  0.00     0.011 A 
HETATM   35 BR   UNL     1      45.152 -22.349   4.879  1.00  0.00    -0.051 Br
HETATM   36  C   UNL     1      44.383 -20.091   3.318  1.00  0.00     0.020 A 
HETATM   37  C   UNL     1      43.947 -18.778   3.119  1.00  0.00     0.019 A 
ENDBRANCH  29  31
ENDBRANCH  28  29
ENDBRANCH   2  28
TORSDOF 6
ENDMDL
MODEL 8
REMARK VINA RESULT:      -8.1      6.616     10.703
REMARK  6 active torsions:
REMARK  status: ('A' for Active; 'I' for Inactive)
REMARK    1  A    between atoms: C_2  and  O_3 
REMARK    2  A    between atoms: O_3  and  C_4 
REMARK    3  A    between atoms: C_5  and  O_6 
REMARK    4  A    between atoms: O_6  and  C_7 
REMARK    5  A    between atoms: C_7  and  C_8 
REMARK    6  A    between atoms: C_18  and  C_19 
ROOT
HETATM    1  C   UNL     1      40.441 -15.415   2.516  1.00  0.00     0.103 A 
HETATM    2  C   UNL     1      41.218 -16.584   2.511  1.00  0.00     0.112 A 
HETATM    3  C   UNL     1      41.751 -17.093   1.328  1.00  0.00     0.041 A 
HETATM    4  C   UNL     1      41.514 -16.430   0.127  1.00  0.00     0.014 A 
HETATM    5  C   UNL     1      40.758 -15.246   0.099  1.00  0.00    -0.013 A 
HETATM    6  C   UNL     1      40.214 -14.754   1.304  1.00  0.00     0.050 A 
ENDROOT
BRANCH   5   7
HETATM    7  C   UNL     1      40.642 -14.476  -1.196  1.00  0.00     0.219 C 
HETATM    8  N   UNL     1      41.870 -13.781  -1.482  1.00  0.00    -0.332 N 
HETATM    9  C   UNL     1      41.949 -12.868  -2.499  1.00  0.00     0.256 C 
HETATM   10  H   UNL     1      42.740 -14.244  -1.260  1.00  0.00     0.165 HD
HETATM   11  O   UNL     1      43.015 -12.548  -3.011  1.00  0.00    -0.267 OA
HETATM   12  C   UNL     1      40.674 -12.298  -2.908  1.00  0.00     0.073 A 
HETATM   13  C   UNL     1      39.539 -12.634  -2.203  1.00  0.00     0.088 A 
HETATM   14  C   UNL     1      40.392 -11.393  -3.977  1.00  0.00    -0.023 A 
HETATM   15  S   UNL     1      38.151 -11.849  -2.792  1.00  0.00    -0.074 SA
HETATM   16  N   UNL     1      39.558 -13.509  -1.167  1.00  0.00    -0.358 N 
HETATM   17  C   UNL     1      39.046 -11.074  -4.018  1.00  0.00     0.018 A 
HETATM   18  C   UNL     1      38.409 -10.182  -5.028  1.00  0.00     0.281 C 
HETATM   19  N   UNL     1      39.450  -9.366  -5.791  1.00  0.00    -0.070 N 
HETATM   20  C   UNL     1      40.659 -10.215  -6.180  1.00  0.00     0.239 C 
HETATM   21  H   UNL     1      38.999  -9.083  -6.668  1.00  0.00     0.279 HD
HETATM   22  C   UNL     1      39.821  -8.095  -5.082  1.00  0.00     0.270 C 
HETATM   23  C   UNL     1      41.371 -10.812  -4.953  1.00  0.00     0.068 C 
HETATM   24  H   UNL     1      38.674 -13.892  -0.840  1.00  0.00     0.162 HD
ENDBRANCH   5   7
BRANCH   1  25
HETATM   25  O   UNL     1      39.995 -15.000   3.742  1.00  0.00    -0.349 OA
BRANCH  25  26
HETATM   26  C   UNL     1      40.467 -13.749   4.234  1.00  0.00     0.171 C 
HETATM   27  C   UNL     1      39.787 -13.488   5.567  1.00  0.00     0.034 C 
ENDBRANCH  25  26
ENDBRANCH   1  25
BRANCH   2  28
HETATM   28  O   UNL     1      41.555 -17.133   3.772  1.00  0.00    -0.272 OA
BRANCH  28  29
HETATM   29  C   UNL     1      42.801 -16.960   4.348  1.00  0.00     0.298 C 
HETATM   30  O   UNL     1      43.291 -15.917   4.752  1.00  0.00    -0.259 OA
BRANCH  29  31
HETATM   31  C   UNL     1      43.449 -18.292   4.497  1.00  0.00     0.040 A 
HETATM   32  C   UNL     1      43.477 -18.875   5.772  1.00  0.00     0.019 A 
HETATM   33  C   UNL     1      44.027 -20.147   5.952  1.00  0.00     0.020 A 
HETATM   34  C   UNL     1      44.557 -20.832   4.859  1.00  0.00     0.011 A 
HETATM   35 BR   UNL     1      45.287 -22.559   5.099  1.00  0.00    -0.051 Br
HETATM   36  C   UNL     1      44.547 -20.257   3.589  1.00  0.00     0.020 A 
HETATM   37  C   UNL     1      43.994 -18.986   3.406  1.00  0.00     0.019 A 
ENDBRANCH  29  31
ENDBRANCH  28  29
ENDBRANCH   2  28
TORSDOF 6
ENDMDL
MODEL 9
REMARK VINA RESULT:      -8.0      6.988     10.071
REMARK  6 active torsions:
REMARK  status: ('A' for Active; 'I' for Inactive)
REMARK    1  A    between atoms: C_2  and  O_3 
REMARK    2  A    between atoms: O_3  and  C_4 
REMARK    3  A    between atoms: C_5  and  O_6 
REMARK    4  A    between atoms: O_6  and  C_7 
REMARK    5  A    between atoms: C_7  and  C_8 
REMARK    6  A    between atoms: C_18  and  C_19 
ROOT
HETATM    1  C   UNL     1      39.726 -14.404  -1.155  1.00  0.00     0.103 A 
HETATM    2  C   UNL     1      38.466 -13.929  -0.763  1.00  0.00     0.112 A 
HETATM    3  C   UNL     1      38.071 -13.943   0.574  1.00  0.00     0.041 A 
HETATM    4  C   UNL     1      38.942 -14.435   1.542  1.00  0.00     0.014 A 
HETATM    5  C   UNL     1      40.219 -14.900   1.187  1.00  0.00    -0.013 A 
HETATM    6  C   UNL     1      40.596 -14.891  -0.173  1.00  0.00     0.050 A 
ENDROOT
BRANCH   5   7
HETATM    7  C   UNL     1      41.191 -15.290   2.275  1.00  0.00     0.219 C 
HETATM    8  N   UNL     1      42.089 -16.314   1.807  1.00  0.00    -0.332 N 
HETATM    9  C   UNL     1      42.935 -16.964   2.666  1.00  0.00     0.256 C 
HETATM   10  H   UNL     1      42.414 -16.260   0.853  1.00  0.00     0.165 HD
HETATM   11  O   UNL     1      43.945 -17.541   2.279  1.00  0.00    -0.267 OA
HETATM   12  C   UNL     1      42.533 -16.928   4.064  1.00  0.00     0.073 A 
HETATM   13  C   UNL     1      41.326 -16.349   4.393  1.00  0.00     0.088 A 
HETATM   14  C   UNL     1      43.219 -17.425   5.214  1.00  0.00    -0.023 A 
HETATM   15  S   UNL     1      41.000 -16.430   6.059  1.00  0.00    -0.074 SA
HETATM   16  N   UNL     1      40.518 -15.775   3.469  1.00  0.00    -0.358 N 
HETATM   17  C   UNL     1      42.483 -17.211   6.365  1.00  0.00     0.018 A 
HETATM   18  C   UNL     1      42.922 -17.579   7.741  1.00  0.00     0.281 C 
HETATM   19  N   UNL     1      44.103 -18.546   7.713  1.00  0.00    -0.070 N 
HETATM   20  C   UNL     1      45.140 -18.141   6.667  1.00  0.00     0.239 C 
HETATM   21  H   UNL     1      44.563 -18.457   8.627  1.00  0.00     0.279 HD
HETATM   22  C   UNL     1      43.673 -19.981   7.599  1.00  0.00     0.270 C 
HETATM   23  C   UNL     1      44.552 -18.113   5.245  1.00  0.00     0.068 C 
HETATM   24  H   UNL     1      39.767 -15.169   3.791  1.00  0.00     0.162 HD
ENDBRANCH   5   7
BRANCH   1  25
HETATM   25  O   UNL     1      40.009 -14.314  -2.492  1.00  0.00    -0.349 OA
BRANCH  25  26
HETATM   26  C   UNL     1      40.512 -15.477  -3.145  1.00  0.00     0.171 C 
HETATM   27  C   UNL     1      39.352 -16.144  -3.863  1.00  0.00     0.034 C 
ENDBRANCH  25  26
ENDBRANCH   1  25
BRANCH   2  28
HETATM   28  O   UNL     1      37.681 -13.301  -1.760  1.00  0.00    -0.272 OA
BRANCH  28  29
HETATM   29  C   UNL     1      37.474 -11.933  -1.793  1.00  0.00     0.298 C 
HETATM   30  O   UNL     1      36.578 -11.308  -1.248  1.00  0.00    -0.259 OA
BRANCH  29  31
HETATM   31  C   UNL     1      38.595 -11.297  -2.537  1.00  0.00     0.040 A 
HETATM   32  C   UNL     1      39.566 -10.601  -1.802  1.00  0.00     0.019 A 
HETATM   33  C   UNL     1      40.665 -10.032  -2.450  1.00  0.00     0.020 A 
HETATM   34  C   UNL     1      40.789 -10.150  -3.834  1.00  0.00     0.011 A 
HETATM   35 BR   UNL     1      42.283  -9.394  -4.710  1.00  0.00    -0.051 Br
HETATM   36  C   UNL     1      39.823 -10.827  -4.577  1.00  0.00     0.020 A 
HETATM   37  C   UNL     1      38.724 -11.401  -3.930  1.00  0.00     0.019 A 
ENDBRANCH  29  31
ENDBRANCH  28  29
ENDBRANCH   2  28
TORSDOF 6
ENDMDL
MODEL 10
REMARK VINA RESULT:      -8.0      7.864     11.044
REMARK  6 active torsions:
REMARK  status: ('A' for Active; 'I' for Inactive)
REMARK    1  A    between atoms: C_2  and  O_3 
REMARK    2  A    between atoms: O_3  and  C_4 
REMARK    3  A    between atoms: C_5  and  O_6 
REMARK    4  A    between atoms: O_6  and  C_7 
REMARK    5  A    between atoms: C_7  and  C_8 
REMARK    6  A    between atoms: C_18  and  C_19 
ROOT
HETATM    1  C   UNL     1      39.342 -14.029  -1.134  1.00  0.00     0.103 A 
HETATM    2  C   UNL     1      38.128 -13.650  -0.542  1.00  0.00     0.112 A 
HETATM    3  C   UNL     1      37.851 -13.943   0.792  1.00  0.00     0.041 A 
HETATM    4  C   UNL     1      38.797 -14.622   1.556  1.00  0.00     0.014 A 
HETATM    5  C   UNL     1      40.031 -14.999   1.000  1.00  0.00    -0.013 A 
HETATM    6  C   UNL     1      40.287 -14.706  -0.356  1.00  0.00     0.050 A 
ENDROOT
BRANCH   5   7
HETATM    7  C   UNL     1      41.088 -15.603   1.894  1.00  0.00     0.219 C 
HETATM    8  N   UNL     1      41.695 -16.743   1.258  1.00  0.00    -0.332 N 
HETATM    9  C   UNL     1      42.545 -17.570   1.943  1.00  0.00     0.256 C 
HETATM   10  H   UNL     1      41.857 -16.702   0.262  1.00  0.00     0.165 HD
HETATM   11  O   UNL     1      43.354 -18.295   1.375  1.00  0.00    -0.267 OA
HETATM   12  C   UNL     1      42.400 -17.532   3.390  1.00  0.00     0.073 A 
HETATM   13  C   UNL     1      41.391 -16.769   3.937  1.00  0.00     0.088 A 
HETATM   14  C   UNL     1      43.172 -18.195   4.392  1.00  0.00    -0.023 A 
HETATM   15  S   UNL     1      41.345 -16.872   5.633  1.00  0.00    -0.074 SA
HETATM   16  N   UNL     1      40.553 -16.020   3.179  1.00  0.00    -0.358 N 
HETATM   17  C   UNL     1      42.694 -17.912   5.659  1.00  0.00     0.018 A 
HETATM   18  C   UNL     1      43.288 -18.416   6.930  1.00  0.00     0.281 C 
HETATM   19  N   UNL     1      44.255 -19.570   6.678  1.00  0.00    -0.070 N 
HETATM   20  C   UNL     1      45.153 -19.302   5.472  1.00  0.00     0.239 C 
HETATM   21  H   UNL     1      44.872 -19.606   7.497  1.00  0.00     0.279 HD
HETATM   22  C   UNL     1      43.562 -20.902   6.618  1.00  0.00     0.270 C 
HETATM   23  C   UNL     1      44.345 -19.104   4.177  1.00  0.00     0.068 C 
HETATM   24  H   UNL     1      39.988 -15.309   3.639  1.00  0.00     0.162 HD
ENDBRANCH   5   7
BRANCH   1  25
HETATM   25  O   UNL     1      39.508 -13.663  -2.443  1.00  0.00    -0.349 OA
BRANCH  25  26
HETATM   26  C   UNL     1      39.923 -14.666  -3.367  1.00  0.00     0.171 C 
HETATM   27  C   UNL     1      38.681 -15.395  -3.850  1.00  0.00     0.034 C 
ENDBRANCH  25  26
ENDBRANCH   1  25
BRANCH   2  28
HETATM   28  O   UNL     1      37.268 -12.832  -1.314  1.00  0.00    -0.272 OA
BRANCH  28  29
HETATM   29  C   UNL     1      37.193 -11.461  -1.142  1.00  0.00     0.298 C 
HETATM   30  O   UNL     1      38.076 -10.642  -1.340  1.00  0.00    -0.259 OA
BRANCH  29  31
HETATM   31  C   UNL     1      35.801 -11.103  -0.756  1.00  0.00     0.040 A 
HETATM   32  C   UNL     1      35.490 -11.034   0.610  1.00  0.00     0.019 A 
HETATM   33  C   UNL     1      34.211 -10.651   1.022  1.00  0.00     0.020 A 
HETATM   34  C   UNL     1      33.240 -10.345   0.069  1.00  0.00     0.011 A 
HETATM   35 BR   UNL     1      31.515  -9.811   0.626  1.00  0.00    -0.051 Br
HETATM   36  C   UNL     1      33.533 -10.423  -1.291  1.00  0.00     0.020 A 
HETATM   37  C   UNL     1      34.813 -10.803  -1.706  1.00  0.00     0.019 A 
ENDBRANCH  29  31
ENDBRANCH  28  29
ENDBRANCH   2  28
TORSDOF 6
ENDMDL
