MODEL 1
REMARK VINA RESULT:      -8.2      0.000      0.000
REMARK  7 active torsions:
REMARK  status: ('A' for Active; 'I' for Inactive)
REMARK    1  A    between atoms: C_2  and  N_3 
REMARK    2  A    between atoms: C_2  and  C_17 
REMARK       I    between atoms: N_3  and  C_4 
REMARK    3  A    between atoms: C_4  and  C_5 
REMARK    4  A    between atoms: C_6  and  N_7 
REMARK    5  A    between atoms: C_17  and  O_18 
REMARK    6  A    between atoms: C_17  and  C_19 
REMARK    7  A    between atoms: C_22  and  O_23 
ROOT
HETATM    1  N   UNL     1      41.994 -18.028   3.104  1.00  0.00    -0.350 N 
HETATM    2  C   UNL     1      43.321 -18.307   2.843  1.00  0.00     0.255 C 
HETATM    3  O   UNL     1      44.182 -17.491   2.550  1.00  0.00    -0.268 OA
HETATM    4  H   UNL     1      41.376 -18.792   3.348  1.00  0.00     0.163 HD
ENDROOT
BRANCH   1   5
HETATM    5  C   UNL     1      41.385 -16.692   2.969  1.00  0.00     0.114 C 
HETATM    6  C   UNL     1      40.245 -16.695   1.945  1.00  0.00     0.035 C 
BRANCH   5   7
HETATM    7  C   UNL     1      41.018 -16.055   4.348  1.00  0.00     0.173 C 
BRANCH   7   8
HETATM    8  O   UNL     1      39.973 -15.091   4.243  1.00  0.00    -0.389 OA
HETATM    9  H   UNL     1      40.370 -14.209   4.327  1.00  0.00     0.210 HD
ENDBRANCH   7   8
BRANCH   7  10
HETATM   10  C   UNL     1      42.211 -15.445   5.066  1.00  0.00    -0.028 A 
HETATM   11  C   UNL     1      43.014 -14.492   4.428  1.00  0.00     0.012 A 
HETATM   12  C   UNL     1      44.095 -13.915   5.101  1.00  0.00     0.037 A 
HETATM   13  C   UNL     1      44.391 -14.269   6.419  1.00  0.00     0.068 A 
HETATM   14  C   UNL     1      43.601 -15.221   7.060  1.00  0.00     0.037 A 
HETATM   15  C   UNL     1      42.521 -15.803   6.389  1.00  0.00     0.012 A 
BRANCH  13  16
HETATM   16  O   UNL     1      45.468 -13.623   6.960  1.00  0.00    -0.356 OA
HETATM   17  C   UNL     1      45.258 -12.956   8.198  1.00  0.00     0.210 C 
ENDBRANCH  13  16
ENDBRANCH   7  10
ENDBRANCH   5   7
ENDBRANCH   1   5
BRANCH   2  18
HETATM   18  C   UNL     1      43.698 -19.726   2.962  1.00  0.00     0.079 A 
HETATM   19  C   UNL     1      44.308 -20.289   4.085  1.00  0.00     0.165 A 
HETATM   20  N   UNL     1      44.788 -21.576   4.053  1.00  0.00    -0.241 NA
HETATM   21  C   UNL     1      44.650 -22.298   2.923  1.00  0.00     0.119 A 
HETATM   22  C   UNL     1      44.047 -21.814   1.781  1.00  0.00     0.020 A 
HETATM   23  C   UNL     1      43.575 -20.507   1.798  1.00  0.00     0.022 A 
BRANCH  19  24
HETATM   24  N   UNL     1      44.430 -19.607   5.348  1.00  0.00    -0.226 N 
HETATM   25  N   UNL     1      43.535 -19.868   6.353  1.00  0.00    -0.179 NA
HETATM   26  C   UNL     1      43.925 -19.107   7.373  1.00  0.00     0.141 A 
HETATM   27  C   UNL     1      45.007 -18.283   7.044  1.00  0.00     0.040 A 
HETATM   28  C   UNL     1      45.284 -18.590   5.734  1.00  0.00     0.122 A 
ENDBRANCH  19  24
ENDBRANCH   2  18
TORSDOF 7
ENDMDL
MODEL 2
REMARK VINA RESULT:      -7.9      1.205      1.560
REMARK  7 active torsions:
REMARK  status: ('A' for Active; 'I' for Inactive)
REMARK    1  A    between atoms: C_2  and  N_3 
REMARK    2  A    between atoms: C_2  and  C_17 
REMARK       I    between atoms: N_3  and  C_4 
REMARK    3  A    between atoms: C_4  and  C_5 
REMARK    4  A    between atoms: C_6  and  N_7 
REMARK    5  A    between atoms: C_17  and  O_18 
REMARK    6  A    between atoms: C_17  and  C_19 
REMARK    7  A    between atoms: C_22  and  O_23 
ROOT
HETATM    1  N   UNL     1      42.283 -17.926   2.231  1.00  0.00    -0.350 N 
HETATM    2  C   UNL     1      43.586 -18.367   2.116  1.00  0.00     0.255 C 
HETATM    3  O   UNL     1      44.515 -17.742   1.626  1.00  0.00    -0.268 OA
HETATM    4  H   UNL     1      41.601 -18.534   2.668  1.00  0.00     0.163 HD
ENDROOT
BRANCH   1   5
HETATM    5  C   UNL     1      41.786 -16.652   1.679  1.00  0.00     0.114 C 
HETATM    6  C   UNL     1      41.196 -16.839   0.278  1.00  0.00     0.035 C 
BRANCH   5   7
HETATM    7  C   UNL     1      40.862 -15.883   2.677  1.00  0.00     0.173 C 
BRANCH   7   8
HETATM    8  O   UNL     1      39.971 -14.988   2.016  1.00  0.00    -0.389 OA
HETATM    9  H   UNL     1      39.064 -15.251   2.239  1.00  0.00     0.210 HD
ENDBRANCH   7   8
BRANCH   7  10
HETATM   10  C   UNL     1      41.628 -15.142   3.759  1.00  0.00    -0.028 A 
HETATM   11  C   UNL     1      41.016 -14.831   4.979  1.00  0.00     0.012 A 
HETATM   12  C   UNL     1      41.731 -14.171   5.982  1.00  0.00     0.037 A 
HETATM   13  C   UNL     1      43.069 -13.815   5.793  1.00  0.00     0.068 A 
HETATM   14  C   UNL     1      43.685 -14.114   4.580  1.00  0.00     0.037 A 
HETATM   15  C   UNL     1      42.971 -14.771   3.573  1.00  0.00     0.012 A 
BRANCH  13  16
HETATM   16  O   UNL     1      43.651 -13.184   6.857  1.00  0.00    -0.356 OA
HETATM   17  C   UNL     1      44.777 -13.825   7.443  1.00  0.00     0.210 C 
ENDBRANCH  13  16
ENDBRANCH   7  10
ENDBRANCH   5   7
ENDBRANCH   1   5
BRANCH   2  18
HETATM   18  C   UNL     1      43.845 -19.707   2.668  1.00  0.00     0.079 A 
HETATM   19  C   UNL     1      44.200 -19.960   3.996  1.00  0.00     0.165 A 
HETATM   20  N   UNL     1      44.596 -21.214   4.391  1.00  0.00    -0.241 NA
HETATM   21  C   UNL     1      44.625 -22.208   3.481  1.00  0.00     0.119 A 
HETATM   22  C   UNL     1      44.276 -22.038   2.157  1.00  0.00     0.020 A 
HETATM   23  C   UNL     1      43.891 -20.768   1.744  1.00  0.00     0.022 A 
BRANCH  19  24
HETATM   24  N   UNL     1      44.128 -18.969   5.038  1.00  0.00    -0.226 N 
HETATM   25  N   UNL     1      42.923 -18.396   5.351  1.00  0.00    -0.179 NA
HETATM   26  C   UNL     1      43.188 -17.553   6.348  1.00  0.00     0.141 A 
HETATM   27  C   UNL     1      44.552 -17.490   6.649  1.00  0.00     0.040 A 
HETATM   28  C   UNL     1      45.137 -18.370   5.771  1.00  0.00     0.122 A 
ENDBRANCH  19  24
ENDBRANCH   2  18
TORSDOF 7
ENDMDL
MODEL 3
REMARK VINA RESULT:      -7.6      1.926      2.398
REMARK  7 active torsions:
REMARK  status: ('A' for Active; 'I' for Inactive)
REMARK    1  A    between atoms: C_2  and  N_3 
REMARK    2  A    between atoms: C_2  and  C_17 
REMARK       I    between atoms: N_3  and  C_4 
REMARK    3  A    between atoms: C_4  and  C_5 
REMARK    4  A    between atoms: C_6  and  N_7 
REMARK    5  A    between atoms: C_17  and  O_18 
REMARK    6  A    between atoms: C_17  and  C_19 
REMARK    7  A    between atoms: C_22  and  O_23 
ROOT
HETATM    1  N   UNL     1      42.052 -17.987   2.317  1.00  0.00    -0.350 N 
HETATM    2  C   UNL     1      43.397 -18.296   2.292  1.00  0.00     0.255 C 
HETATM    3  O   UNL     1      44.300 -17.545   1.956  1.00  0.00    -0.268 OA
HETATM    4  H   UNL     1      41.396 -18.694   2.627  1.00  0.00     0.163 HD
ENDROOT
BRANCH   1   5
HETATM    5  C   UNL     1      41.484 -16.713   1.838  1.00  0.00     0.114 C 
HETATM    6  C   UNL     1      41.328 -16.705   0.314  1.00  0.00     0.035 C 
BRANCH   5   7
HETATM    7  C   UNL     1      40.203 -16.291   2.626  1.00  0.00     0.173 C 
BRANCH   7   8
HETATM    8  O   UNL     1      39.134 -15.907   1.764  1.00  0.00    -0.389 OA
HETATM    9  H   UNL     1      39.110 -14.937   1.732  1.00  0.00     0.210 HD
ENDBRANCH   7   8
BRANCH   7  10
HETATM   10  C   UNL     1      40.457 -15.197   3.649  1.00  0.00    -0.028 A 
HETATM   11  C   UNL     1      39.895 -13.925   3.486  1.00  0.00     0.012 A 
HETATM   12  C   UNL     1      40.110 -12.929   4.442  1.00  0.00     0.037 A 
HETATM   13  C   UNL     1      40.881 -13.181   5.579  1.00  0.00     0.068 A 
HETATM   14  C   UNL     1      41.449 -14.442   5.748  1.00  0.00     0.037 A 
HETATM   15  C   UNL     1      41.239 -15.440   4.791  1.00  0.00     0.012 A 
BRANCH  13  16
HETATM   16  O   UNL     1      41.004 -12.123   6.437  1.00  0.00    -0.356 OA
HETATM   17  C   UNL     1      39.797 -11.567   6.943  1.00  0.00     0.210 C 
ENDBRANCH  13  16
ENDBRANCH   7  10
ENDBRANCH   5   7
ENDBRANCH   1   5
BRANCH   2  18
HETATM   18  C   UNL     1      43.735 -19.658   2.741  1.00  0.00     0.079 A 
HETATM   19  C   UNL     1      44.182 -19.977   4.026  1.00  0.00     0.165 A 
HETATM   20  N   UNL     1      44.644 -21.238   4.316  1.00  0.00    -0.241 NA
HETATM   21  C   UNL     1      44.649 -22.172   3.344  1.00  0.00     0.119 A 
HETATM   22  C   UNL     1      44.211 -21.935   2.058  1.00  0.00     0.020 A 
HETATM   23  C   UNL     1      43.758 -20.657   1.751  1.00  0.00     0.022 A 
BRANCH  19  24
HETATM   24  N   UNL     1      44.143 -19.056   5.132  1.00  0.00    -0.226 N 
HETATM   25  N   UNL     1      45.312 -18.578   5.663  1.00  0.00    -0.179 NA
HETATM   26  C   UNL     1      44.939 -17.751   6.638  1.00  0.00     0.141 A 
HETATM   27  C   UNL     1      43.553 -17.730   6.823  1.00  0.00     0.040 A 
HETATM   28  C   UNL     1      43.069 -18.604   5.879  1.00  0.00     0.122 A 
ENDBRANCH  19  24
ENDBRANCH   2  18
TORSDOF 7
ENDMDL
MODEL 4
REMARK VINA RESULT:      -7.4      2.439      4.717
REMARK  7 active torsions:
REMARK  status: ('A' for Active; 'I' for Inactive)
REMARK    1  A    between atoms: C_2  and  N_3 
REMARK    2  A    between atoms: C_2  and  C_17 
REMARK       I    between atoms: N_3  and  C_4 
REMARK    3  A    between atoms: C_4  and  C_5 
REMARK    4  A    between atoms: C_6  and  N_7 
REMARK    5  A    between atoms: C_17  and  O_18 
REMARK    6  A    between atoms: C_17  and  C_19 
REMARK    7  A    between atoms: C_22  and  O_23 
ROOT
HETATM    1  N   UNL     1      42.568 -17.965   3.042  1.00  0.00    -0.350 N 
HETATM    2  C   UNL     1      43.704 -18.559   2.531  1.00  0.00     0.255 C 
HETATM    3  O   UNL     1      44.486 -18.051   1.741  1.00  0.00    -0.268 OA
HETATM    4  H   UNL     1      42.002 -18.486   3.701  1.00  0.00     0.163 HD
ENDROOT
BRANCH   1   5
HETATM    5  C   UNL     1      42.065 -16.642   2.629  1.00  0.00     0.114 C 
HETATM    6  C   UNL     1      43.056 -15.529   2.984  1.00  0.00     0.035 C 
BRANCH   5   7
HETATM    7  C   UNL     1      41.568 -16.622   1.148  1.00  0.00     0.173 C 
BRANCH   7   8
HETATM    8  O   UNL     1      42.635 -16.465   0.216  1.00  0.00    -0.389 OA
HETATM    9  H   UNL     1      43.010 -17.343   0.040  1.00  0.00     0.210 HD
ENDBRANCH   7   8
BRANCH   7  10
HETATM   10  C   UNL     1      40.496 -15.578   0.885  1.00  0.00    -0.028 A 
HETATM   11  C   UNL     1      40.566 -14.757  -0.246  1.00  0.00     0.012 A 
HETATM   12  C   UNL     1      39.565 -13.814  -0.498  1.00  0.00     0.037 A 
HETATM   13  C   UNL     1      38.476 -13.676   0.366  1.00  0.00     0.068 A 
HETATM   14  C   UNL     1      38.401 -14.484   1.498  1.00  0.00     0.037 A 
HETATM   15  C   UNL     1      39.403 -15.426   1.755  1.00  0.00     0.012 A 
BRANCH  13  16
HETATM   16  O   UNL     1      37.567 -12.723  -0.003  1.00  0.00    -0.356 OA
HETATM   17  C   UNL     1      37.593 -12.307  -1.363  1.00  0.00     0.210 C 
ENDBRANCH  13  16
ENDBRANCH   7  10
ENDBRANCH   5   7
ENDBRANCH   1   5
BRANCH   2  18
HETATM   18  C   UNL     1      43.976 -19.920   3.023  1.00  0.00     0.079 A 
HETATM   19  C   UNL     1      44.360 -20.225   4.331  1.00  0.00     0.165 A 
HETATM   20  N   UNL     1      44.765 -21.493   4.668  1.00  0.00    -0.241 NA
HETATM   21  C   UNL     1      44.775 -22.450   3.719  1.00  0.00     0.119 A 
HETATM   22  C   UNL     1      44.396 -22.228   2.411  1.00  0.00     0.020 A 
HETATM   23  C   UNL     1      44.001 -20.943   2.058  1.00  0.00     0.022 A 
BRANCH  19  24
HETATM   24  N   UNL     1      44.311 -19.276   5.414  1.00  0.00    -0.226 N 
HETATM   25  N   UNL     1      43.114 -18.990   6.016  1.00  0.00    -0.179 NA
HETATM   26  C   UNL     1      43.407 -18.109   6.971  1.00  0.00     0.141 A 
HETATM   27  C   UNL     1      44.755 -17.738   6.964  1.00  0.00     0.040 A 
HETATM   28  C   UNL     1      45.304 -18.463   5.934  1.00  0.00     0.122 A 
ENDBRANCH  19  24
ENDBRANCH   2  18
TORSDOF 7
ENDMDL
MODEL 5
REMARK VINA RESULT:      -7.3      2.771      7.156
REMARK  7 active torsions:
REMARK  status: ('A' for Active; 'I' for Inactive)
REMARK    1  A    between atoms: C_2  and  N_3 
REMARK    2  A    between atoms: C_2  and  C_17 
REMARK       I    between atoms: N_3  and  C_4 
REMARK    3  A    between atoms: C_4  and  C_5 
REMARK    4  A    between atoms: C_6  and  N_7 
REMARK    5  A    between atoms: C_17  and  O_18 
REMARK    6  A    between atoms: C_17  and  C_19 
REMARK    7  A    between atoms: C_22  and  O_23 
ROOT
HETATM    1  N   UNL     1      42.674 -14.839   5.056  1.00  0.00    -0.350 N 
HETATM    2  C   UNL     1      42.969 -13.858   4.130  1.00  0.00     0.255 C 
HETATM    3  O   UNL     1      44.073 -13.618   3.665  1.00  0.00    -0.268 OA
HETATM    4  H   UNL     1      41.715 -14.948   5.359  1.00  0.00     0.163 HD
ENDROOT
BRANCH   1   5
HETATM    5  C   UNL     1      43.683 -15.696   5.707  1.00  0.00     0.114 C 
HETATM    6  C   UNL     1      44.350 -14.981   6.886  1.00  0.00     0.035 C 
BRANCH   5   7
HETATM    7  C   UNL     1      43.139 -17.123   6.034  1.00  0.00     0.173 C 
BRANCH   7   8
HETATM    8  O   UNL     1      43.424 -17.521   7.373  1.00  0.00    -0.389 OA
HETATM    9  H   UNL     1      44.386 -17.485   7.498  1.00  0.00     0.210 HD
ENDBRANCH   7   8
BRANCH   7  10
HETATM   10  C   UNL     1      43.623 -18.190   5.066  1.00  0.00    -0.028 A 
HETATM   11  C   UNL     1      44.497 -19.196   5.495  1.00  0.00     0.012 A 
HETATM   12  C   UNL     1      44.920 -20.190   4.608  1.00  0.00     0.037 A 
HETATM   13  C   UNL     1      44.478 -20.205   3.283  1.00  0.00     0.068 A 
HETATM   14  C   UNL     1      43.613 -19.204   2.846  1.00  0.00     0.037 A 
HETATM   15  C   UNL     1      43.191 -18.206   3.729  1.00  0.00     0.012 A 
BRANCH  13  16
HETATM   16  O   UNL     1      44.962 -21.237   2.527  1.00  0.00    -0.356 OA
HETATM   17  C   UNL     1      44.051 -21.846   1.621  1.00  0.00     0.210 C 
ENDBRANCH  13  16
ENDBRANCH   7  10
ENDBRANCH   5   7
ENDBRANCH   1   5
BRANCH   2  18
HETATM   18  C   UNL     1      41.817 -13.064   3.671  1.00  0.00     0.079 A 
HETATM   19  C   UNL     1      40.963 -13.441   2.631  1.00  0.00     0.165 A 
HETATM   20  N   UNL     1      40.020 -12.569   2.145  1.00  0.00    -0.241 NA
HETATM   21  C   UNL     1      39.919 -11.342   2.694  1.00  0.00     0.119 A 
HETATM   22  C   UNL     1      40.717 -10.904   3.730  1.00  0.00     0.020 A 
HETATM   23  C   UNL     1      41.685 -11.774   4.217  1.00  0.00     0.022 A 
BRANCH  19  24
HETATM   24  N   UNL     1      40.963 -14.755   2.041  1.00  0.00    -0.226 N 
HETATM   25  N   UNL     1      40.321 -15.786   2.674  1.00  0.00    -0.179 NA
HETATM   26  C   UNL     1      40.488 -16.841   1.878  1.00  0.00     0.141 A 
HETATM   27  C   UNL     1      41.296 -16.556   0.773  1.00  0.00     0.040 A 
HETATM   28  C   UNL     1      41.623 -15.229   0.921  1.00  0.00     0.122 A 
ENDBRANCH  19  24
ENDBRANCH   2  18
TORSDOF 7
ENDMDL
MODEL 6
REMARK VINA RESULT:      -7.3      2.490      4.897
REMARK  7 active torsions:
REMARK  status: ('A' for Active; 'I' for Inactive)
REMARK    1  A    between atoms: C_2  and  N_3 
REMARK    2  A    between atoms: C_2  and  C_17 
REMARK       I    between atoms: N_3  and  C_4 
REMARK    3  A    between atoms: C_4  and  C_5 
REMARK    4  A    between atoms: C_6  and  N_7 
REMARK    5  A    between atoms: C_17  and  O_18 
REMARK    6  A    between atoms: C_17  and  C_19 
REMARK    7  A    between atoms: C_22  and  O_23 
ROOT
HETATM    1  N   UNL     1      42.844 -16.350   3.351  1.00  0.00    -0.350 N 
HETATM    2  C   UNL     1      42.372 -17.498   3.956  1.00  0.00     0.255 C 
HETATM    3  O   UNL     1      41.434 -17.565   4.735  1.00  0.00    -0.268 OA
HETATM    4  H   UNL     1      43.626 -16.423   2.713  1.00  0.00     0.163 HD
ENDROOT
BRANCH   1   5
HETATM    5  C   UNL     1      42.338 -14.994   3.637  1.00  0.00     0.114 C 
HETATM    6  C   UNL     1      43.432 -13.937   3.458  1.00  0.00     0.035 C 
BRANCH   5   7
HETATM    7  C   UNL     1      41.002 -14.680   2.889  1.00  0.00     0.173 C 
BRANCH   7   8
HETATM    8  O   UNL     1      39.906 -15.443   3.387  1.00  0.00    -0.389 OA
HETATM    9  H   UNL     1      39.294 -14.833   3.830  1.00  0.00     0.210 HD
ENDBRANCH   7   8
BRANCH   7  10
HETATM   10  C   UNL     1      41.101 -14.845   1.382  1.00  0.00    -0.028 A 
HETATM   11  C   UNL     1      41.106 -16.120   0.804  1.00  0.00     0.012 A 
HETATM   12  C   UNL     1      41.173 -16.268  -0.584  1.00  0.00     0.037 A 
HETATM   13  C   UNL     1      41.228 -15.151  -1.422  1.00  0.00     0.068 A 
HETATM   14  C   UNL     1      41.230 -13.878  -0.856  1.00  0.00     0.037 A 
HETATM   15  C   UNL     1      41.168 -13.727   0.533  1.00  0.00     0.012 A 
BRANCH  13  16
HETATM   16  O   UNL     1      41.281 -15.437  -2.758  1.00  0.00    -0.356 OA
HETATM   17  C   UNL     1      40.056 -15.800  -3.383  1.00  0.00     0.210 C 
ENDBRANCH  13  16
ENDBRANCH   7  10
ENDBRANCH   5   7
ENDBRANCH   1   5
BRANCH   2  18
HETATM   18  C   UNL     1      43.078 -18.736   3.586  1.00  0.00     0.079 A 
HETATM   19  C   UNL     1      44.025 -19.376   4.390  1.00  0.00     0.165 A 
HETATM   20  N   UNL     1      44.766 -20.425   3.904  1.00  0.00    -0.241 NA
HETATM   21  C   UNL     1      44.560 -20.841   2.638  1.00  0.00     0.119 A 
HETATM   22  C   UNL     1      43.635 -20.268   1.791  1.00  0.00     0.020 A 
HETATM   23  C   UNL     1      42.892 -19.195   2.269  1.00  0.00     0.022 A 
BRANCH  19  24
HETATM   24  N   UNL     1      44.254 -19.035   5.771  1.00  0.00    -0.226 N 
HETATM   25  N   UNL     1      45.249 -18.152   6.099  1.00  0.00    -0.179 NA
HETATM   26  C   UNL     1      45.189 -18.038   7.424  1.00  0.00     0.141 A 
HETATM   27  C   UNL     1      44.235 -18.887   7.994  1.00  0.00     0.040 A 
HETATM   28  C   UNL     1      43.680 -19.546   6.922  1.00  0.00     0.122 A 
ENDBRANCH  19  24
ENDBRANCH   2  18
TORSDOF 7
ENDMDL
MODEL 7
REMARK VINA RESULT:      -7.2      2.408      4.686
REMARK  7 active torsions:
REMARK  status: ('A' for Active; 'I' for Inactive)
REMARK    1  A    between atoms: C_2  and  N_3 
REMARK    2  A    between atoms: C_2  and  C_17 
REMARK       I    between atoms: N_3  and  C_4 
REMARK    3  A    between atoms: C_4  and  C_5 
REMARK    4  A    between atoms: C_6  and  N_7 
REMARK    5  A    between atoms: C_17  and  O_18 
REMARK    6  A    between atoms: C_17  and  C_19 
REMARK    7  A    between atoms: C_22  and  O_23 
ROOT
HETATM    1  N   UNL     1      43.263 -16.531   3.590  1.00  0.00    -0.350 N 
HETATM    2  C   UNL     1      42.492 -17.665   3.747  1.00  0.00     0.255 C 
HETATM    3  O   UNL     1      41.318 -17.694   4.084  1.00  0.00    -0.268 OA
HETATM    4  H   UNL     1      44.226 -16.635   3.295  1.00  0.00     0.163 HD
ENDROOT
BRANCH   1   5
HETATM    5  C   UNL     1      42.804 -15.165   3.905  1.00  0.00     0.114 C 
HETATM    6  C   UNL     1      43.458 -14.634   5.184  1.00  0.00     0.035 C 
BRANCH   5   7
HETATM    7  C   UNL     1      42.896 -14.201   2.679  1.00  0.00     0.173 C 
BRANCH   7   8
HETATM    8  O   UNL     1      43.250 -12.873   3.055  1.00  0.00    -0.389 OA
HETATM    9  H   UNL     1      42.653 -12.595   3.769  1.00  0.00     0.210 HD
ENDBRANCH   7   8
BRANCH   7  10
HETATM   10  C   UNL     1      41.633 -14.177   1.834  1.00  0.00    -0.028 A 
HETATM   11  C   UNL     1      40.423 -14.657   2.350  1.00  0.00     0.012 A 
HETATM   12  C   UNL     1      39.258 -14.610   1.579  1.00  0.00     0.037 A 
HETATM   13  C   UNL     1      39.275 -14.081   0.286  1.00  0.00     0.068 A 
HETATM   14  C   UNL     1      40.475 -13.608  -0.238  1.00  0.00     0.037 A 
HETATM   15  C   UNL     1      41.643 -13.656   0.529  1.00  0.00     0.012 A 
BRANCH  13  16
HETATM   16  O   UNL     1      38.065 -14.088  -0.353  1.00  0.00    -0.356 OA
HETATM   17  C   UNL     1      38.078 -13.808  -1.747  1.00  0.00     0.210 C 
ENDBRANCH  13  16
ENDBRANCH   7  10
ENDBRANCH   5   7
ENDBRANCH   1   5
BRANCH   2  18
HETATM   18  C   UNL     1      43.178 -18.934   3.452  1.00  0.00     0.079 A 
HETATM   19  C   UNL     1      44.090 -19.557   4.308  1.00  0.00     0.165 A 
HETATM   20  N   UNL     1      44.819 -20.643   3.890  1.00  0.00    -0.241 NA
HETATM   21  C   UNL     1      44.633 -21.113   2.640  1.00  0.00     0.119 A 
HETATM   22  C   UNL     1      43.742 -20.561   1.744  1.00  0.00     0.020 A 
HETATM   23  C   UNL     1      43.013 -19.450   2.154  1.00  0.00     0.022 A 
BRANCH  19  24
HETATM   24  N   UNL     1      44.294 -19.157   5.677  1.00  0.00    -0.226 N 
HETATM   25  N   UNL     1      43.502 -19.681   6.665  1.00  0.00    -0.179 NA
HETATM   26  C   UNL     1      43.949 -19.135   7.795  1.00  0.00     0.141 A 
HETATM   27  C   UNL     1      44.962 -18.197   7.574  1.00  0.00     0.040 A 
HETATM   28  C   UNL     1      45.136 -18.197   6.210  1.00  0.00     0.122 A 
ENDBRANCH  19  24
ENDBRANCH   2  18
TORSDOF 7
ENDMDL
MODEL 8
REMARK VINA RESULT:      -7.2      2.088      4.751
REMARK  7 active torsions:
REMARK  status: ('A' for Active; 'I' for Inactive)
REMARK    1  A    between atoms: C_2  and  N_3 
REMARK    2  A    between atoms: C_2  and  C_17 
REMARK       I    between atoms: N_3  and  C_4 
REMARK    3  A    between atoms: C_4  and  C_5 
REMARK    4  A    between atoms: C_6  and  N_7 
REMARK    5  A    between atoms: C_17  and  O_18 
REMARK    6  A    between atoms: C_17  and  C_19 
REMARK    7  A    between atoms: C_22  and  O_23 
ROOT
HETATM    1  N   UNL     1      43.582 -16.914   5.300  1.00  0.00    -0.350 N 
HETATM    2  C   UNL     1      42.794 -17.954   4.848  1.00  0.00     0.255 C 
HETATM    3  O   UNL     1      41.612 -18.124   5.107  1.00  0.00    -0.268 OA
HETATM    4  H   UNL     1      44.550 -16.875   5.007  1.00  0.00     0.163 HD
ENDROOT
BRANCH   1   5
HETATM    5  C   UNL     1      43.133 -15.890   6.261  1.00  0.00     0.114 C 
HETATM    6  C   UNL     1      43.765 -16.097   7.641  1.00  0.00     0.035 C 
BRANCH   5   7
HETATM    7  C   UNL     1      43.263 -14.438   5.698  1.00  0.00     0.173 C 
BRANCH   7   8
HETATM    8  O   UNL     1      43.218 -13.449   6.723  1.00  0.00    -0.389 OA
HETATM    9  H   UNL     1      42.632 -13.773   7.426  1.00  0.00     0.210 HD
ENDBRANCH   7   8
BRANCH   7  10
HETATM   10  C   UNL     1      42.237 -14.113   4.625  1.00  0.00    -0.028 A 
HETATM   11  C   UNL     1      42.570 -13.277   3.552  1.00  0.00     0.012 A 
HETATM   12  C   UNL     1      41.632 -13.001   2.553  1.00  0.00     0.037 A 
HETATM   13  C   UNL     1      40.351 -13.556   2.600  1.00  0.00     0.068 A 
HETATM   14  C   UNL     1      40.008 -14.384   3.666  1.00  0.00     0.037 A 
HETATM   15  C   UNL     1      40.943 -14.659   4.669  1.00  0.00     0.012 A 
BRANCH  13  16
HETATM   16  O   UNL     1      39.537 -13.211   1.556  1.00  0.00    -0.356 OA
HETATM   17  C   UNL     1      38.451 -14.085   1.277  1.00  0.00     0.210 C 
ENDBRANCH  13  16
ENDBRANCH   7  10
ENDBRANCH   5   7
ENDBRANCH   1   5
BRANCH   2  18
HETATM   18  C   UNL     1      43.470 -18.911   3.956  1.00  0.00     0.079 A 
HETATM   19  C   UNL     1      43.288 -18.965   2.572  1.00  0.00     0.165 A 
HETATM   20  N   UNL     1      43.817 -19.995   1.833  1.00  0.00    -0.241 NA
HETATM   21  C   UNL     1      44.529 -20.952   2.461  1.00  0.00     0.119 A 
HETATM   22  C   UNL     1      44.762 -20.958   3.820  1.00  0.00     0.020 A 
HETATM   23  C   UNL     1      44.216 -19.929   4.578  1.00  0.00     0.022 A 
BRANCH  19  24
HETATM   24  N   UNL     1      42.600 -17.946   1.822  1.00  0.00    -0.226 N 
HETATM   25  N   UNL     1      43.270 -16.816   1.434  1.00  0.00    -0.179 NA
HETATM   26  C   UNL     1      42.377 -16.097   0.756  1.00  0.00     0.141 A 
HETATM   27  C   UNL     1      41.107 -16.682   0.755  1.00  0.00     0.040 A 
HETATM   28  C   UNL     1      41.263 -17.840   1.478  1.00  0.00     0.122 A 
ENDBRANCH  19  24
ENDBRANCH   2  18
TORSDOF 7
ENDMDL
MODEL 9
REMARK VINA RESULT:      -7.0      2.255      4.220
REMARK  7 active torsions:
REMARK  status: ('A' for Active; 'I' for Inactive)
REMARK    1  A    between atoms: C_2  and  N_3 
REMARK    2  A    between atoms: C_2  and  C_17 
REMARK       I    between atoms: N_3  and  C_4 
REMARK    3  A    between atoms: C_4  and  C_5 
REMARK    4  A    between atoms: C_6  and  N_7 
REMARK    5  A    between atoms: C_17  and  O_18 
REMARK    6  A    between atoms: C_17  and  C_19 
REMARK    7  A    between atoms: C_22  and  O_23 
ROOT
HETATM    1  N   UNL     1      42.497 -15.907   4.816  1.00  0.00    -0.350 N 
HETATM    2  C   UNL     1      41.938 -17.170   4.782  1.00  0.00     0.255 C 
HETATM    3  O   UNL     1      40.886 -17.504   5.305  1.00  0.00    -0.268 OA
HETATM    4  H   UNL     1      43.372 -15.750   4.333  1.00  0.00     0.163 HD
ENDROOT
BRANCH   1   5
HETATM    5  C   UNL     1      41.946 -14.777   5.587  1.00  0.00     0.114 C 
HETATM    6  C   UNL     1      43.029 -13.750   5.931  1.00  0.00     0.035 C 
BRANCH   5   7
HETATM    7  C   UNL     1      40.661 -14.173   4.936  1.00  0.00     0.173 C 
BRANCH   7   8
HETATM    8  O   UNL     1      39.466 -14.788   5.413  1.00  0.00    -0.389 OA
HETATM    9  H   UNL     1      39.528 -14.848   6.380  1.00  0.00     0.210 HD
ENDBRANCH   7   8
BRANCH   7  10
HETATM   10  C   UNL     1      40.684 -14.204   3.417  1.00  0.00    -0.028 A 
HETATM   11  C   UNL     1      41.517 -13.337   2.700  1.00  0.00     0.012 A 
HETATM   12  C   UNL     1      41.555 -13.384   1.304  1.00  0.00     0.037 A 
HETATM   13  C   UNL     1      40.769 -14.298   0.597  1.00  0.00     0.068 A 
HETATM   14  C   UNL     1      39.932 -15.161   1.300  1.00  0.00     0.037 A 
HETATM   15  C   UNL     1      39.890 -15.113   2.697  1.00  0.00     0.012 A 
BRANCH  13  16
HETATM   16  O   UNL     1      40.909 -14.244  -0.763  1.00  0.00    -0.356 OA
HETATM   17  C   UNL     1      41.941 -13.405  -1.267  1.00  0.00     0.210 C 
ENDBRANCH  13  16
ENDBRANCH   7  10
ENDBRANCH   5   7
ENDBRANCH   1   5
BRANCH   2  18
HETATM   18  C   UNL     1      42.700 -18.171   4.016  1.00  0.00     0.079 A 
HETATM   19  C   UNL     1      43.635 -19.046   4.573  1.00  0.00     0.165 A 
HETATM   20  N   UNL     1      44.430 -19.828   3.771  1.00  0.00    -0.241 NA
HETATM   21  C   UNL     1      44.287 -19.750   2.433  1.00  0.00     0.119 A 
HETATM   22  C   UNL     1      43.377 -18.921   1.812  1.00  0.00     0.020 A 
HETATM   23  C   UNL     1      42.580 -18.113   2.615  1.00  0.00     0.022 A 
BRANCH  19  24
HETATM   24  N   UNL     1      43.799 -19.237   5.991  1.00  0.00    -0.226 N 
HETATM   25  N   UNL     1      44.254 -18.205   6.769  1.00  0.00    -0.179 NA
HETATM   26  C   UNL     1      44.275 -18.688   8.010  1.00  0.00     0.141 A 
HETATM   27  C   UNL     1      43.924 -20.040   8.065  1.00  0.00     0.040 A 
HETATM   28  C   UNL     1      43.667 -20.380   6.759  1.00  0.00     0.122 A 
ENDBRANCH  19  24
ENDBRANCH   2  18
TORSDOF 7
ENDMDL
MODEL 10
REMARK VINA RESULT:      -7.0      2.473      2.895
REMARK  7 active torsions:
REMARK  status: ('A' for Active; 'I' for Inactive)
REMARK    1  A    between atoms: C_2  and  N_3 
REMARK    2  A    between atoms: C_2  and  C_17 
REMARK       I    between atoms: N_3  and  C_4 
REMARK    3  A    between atoms: C_4  and  C_5 
REMARK    4  A    between atoms: C_6  and  N_7 
REMARK    5  A    between atoms: C_17  and  O_18 
REMARK    6  A    between atoms: C_17  and  C_19 
REMARK    7  A    between atoms: C_22  and  O_23 
ROOT
HETATM    1  N   UNL     1      42.022 -17.255   3.668  1.00  0.00    -0.350 N 
HETATM    2  C   UNL     1      43.214 -17.596   3.060  1.00  0.00     0.255 C 
HETATM    3  O   UNL     1      43.998 -16.823   2.532  1.00  0.00    -0.268 OA
HETATM    4  H   UNL     1      41.460 -17.989   4.081  1.00  0.00     0.163 HD
ENDROOT
BRANCH   1   5
HETATM    5  C   UNL     1      41.460 -15.892   3.684  1.00  0.00     0.114 C 
HETATM    6  C   UNL     1      40.320 -15.742   2.672  1.00  0.00     0.035 C 
BRANCH   5   7
HETATM    7  C   UNL     1      41.118 -15.400   5.127  1.00  0.00     0.173 C 
BRANCH   7   8
HETATM    8  O   UNL     1      40.029 -16.116   5.704  1.00  0.00    -0.389 OA
HETATM    9  H   UNL     1      39.527 -15.498   6.260  1.00  0.00     0.210 HD
ENDBRANCH   7   8
BRANCH   7  10
HETATM   10  C   UNL     1      40.852 -13.906   5.208  1.00  0.00    -0.028 A 
HETATM   11  C   UNL     1      41.806 -12.988   4.754  1.00  0.00     0.012 A 
HETATM   12  C   UNL     1      41.548 -11.615   4.807  1.00  0.00     0.037 A 
HETATM   13  C   UNL     1      40.335 -11.132   5.304  1.00  0.00     0.068 A 
HETATM   14  C   UNL     1      39.381 -12.038   5.763  1.00  0.00     0.037 A 
HETATM   15  C   UNL     1      39.638 -13.412   5.715  1.00  0.00     0.012 A 
BRANCH  13  16
HETATM   16  O   UNL     1      40.209  -9.770   5.290  1.00  0.00    -0.356 OA
HETATM   17  C   UNL     1      39.263  -9.207   6.190  1.00  0.00     0.210 C 
ENDBRANCH  13  16
ENDBRANCH   7  10
ENDBRANCH   5   7
ENDBRANCH   1   5
BRANCH   2  18
HETATM   18  C   UNL     1      43.544 -19.031   3.091  1.00  0.00     0.079 A 
HETATM   19  C   UNL     1      44.142 -19.681   4.174  1.00  0.00     0.165 A 
HETATM   20  N   UNL     1      44.579 -20.978   4.062  1.00  0.00    -0.241 NA
HETATM   21  C   UNL     1      44.411 -21.626   2.892  1.00  0.00     0.119 A 
HETATM   22  C   UNL     1      43.818 -21.056   1.785  1.00  0.00     0.020 A 
HETATM   23  C   UNL     1      43.389 -19.738   1.884  1.00  0.00     0.022 A 
BRANCH  19  24
HETATM   24  N   UNL     1      44.293 -19.080   5.474  1.00  0.00    -0.226 N 
HETATM   25  N   UNL     1      45.446 -18.407   5.784  1.00  0.00    -0.179 NA
HETATM   26  C   UNL     1      45.267 -17.964   7.027  1.00  0.00     0.141 A 
HETATM   27  C   UNL     1      44.058 -18.397   7.582  1.00  0.00     0.040 A 
HETATM   28  C   UNL     1      43.473 -19.143   6.587  1.00  0.00     0.122 A 
ENDBRANCH  19  24
ENDBRANCH   2  18
TORSDOF 7
ENDMDL
