MODEL 1
REMARK VINA RESULT:      -7.3      0.000      0.000
REMARK  9 active torsions:
REMARK  status: ('A' for Active; 'I' for Inactive)
REMARK    1  A    between atoms: C_2  and  C_3 
REMARK    2  A    between atoms: C_3  and  N_4 
REMARK    3  A    between atoms: C_7  and  C_8 
REMARK       I    between atoms: C_8  and  N_9 
REMARK    4  A    between atoms: N_9  and  C_10 
REMARK    5  A    between atoms: C_10  and  C_11 
REMARK    6  A    between atoms: C_13  and  O_14 
REMARK    7  A    between atoms: O_14  and  C_15 
REMARK    8  A    between atoms: C_15  and  C_16 
REMARK       I    between atoms: C_16  and  N_17 
REMARK    9  A    between atoms: C_23  and  C_24 
ROOT
HETATM    1  C   UNL     1      43.537 -16.801   7.441  1.00  0.00     0.255 C 
HETATM    2  N   UNL     1      43.949 -15.494   7.474  1.00  0.00    -0.353 N 
HETATM    3  O   UNL     1      43.002 -17.263   8.447  1.00  0.00    -0.268 OA
HETATM    4  H   UNL     1      43.753 -15.044   8.359  1.00  0.00     0.163 HD
ENDROOT
BRANCH   2   5
HETATM    5  C   UNL     1      44.599 -14.695   6.456  1.00  0.00     0.161 C 
BRANCH   5   6
HETATM    6  C   UNL     1      43.613 -13.956   5.578  1.00  0.00    -0.038 A 
HETATM    7  C   UNL     1      42.581 -13.164   6.106  1.00  0.00     0.045 A 
HETATM    8  C   UNL     1      41.694 -12.469   5.276  1.00  0.00     0.070 A 
HETATM    9  C   UNL     1      41.844 -12.553   3.893  1.00  0.00     0.037 A 
HETATM   10  C   UNL     1      42.875 -13.324   3.351  1.00  0.00     0.003 A 
HETATM   11  C   UNL     1      43.755 -14.016   4.185  1.00  0.00     0.009 A 
BRANCH   8  12
HETATM   12  O   UNL     1      40.740 -11.750   5.942  1.00  0.00    -0.342 OA
BRANCH  12  13
HETATM   13  C   UNL     1      39.689 -12.487   6.561  1.00  0.00     0.278 C 
BRANCH  13  14
HETATM   14  C   UNL     1      39.207 -11.790   7.833  1.00  0.00     0.239 C 
HETATM   15  N   UNL     1      38.900 -12.605   8.883  1.00  0.00    -0.368 N 
HETATM   16  H   UNL     1      39.083 -13.600   8.832  1.00  0.00     0.159 HD
HETATM   17  H   UNL     1      38.611 -12.189   9.758  1.00  0.00     0.159 HD
HETATM   18  O   UNL     1      39.080 -10.572   7.918  1.00  0.00    -0.271 OA
ENDBRANCH  13  14
ENDBRANCH  12  13
ENDBRANCH   8  12
ENDBRANCH   5   6
ENDBRANCH   2   5
BRANCH   1  19
HETATM   19  C   UNL     1      43.780 -17.583   6.246  1.00  0.00     0.075 A 
HETATM   20  C   UNL     1      44.999 -18.209   5.896  1.00  0.00     0.158 A 
HETATM   21  N   UNL     1      44.949 -18.841   4.728  1.00  0.00    -0.183 NA
HETATM   22  N   UNL     1      43.670 -18.687   4.333  1.00  0.00    -0.268 N 
HETATM   23  C   UNL     1      42.917 -17.932   5.212  1.00  0.00     0.052 A 
BRANCH  22  24
HETATM   24  C   UNL     1      43.227 -19.304   3.082  1.00  0.00     0.106 C 
HETATM   25  C   UNL     1      44.134 -20.448   2.611  1.00  0.00     0.034 C 
BRANCH  24  26
HETATM   26  C   UNL     1      42.982 -18.260   1.975  1.00  0.00     0.022 C 
HETATM   27  C   UNL     1      44.139 -17.302   1.720  1.00  0.00     0.007 C 
ENDBRANCH  24  26
ENDBRANCH  22  24
BRANCH  23  28
HETATM   28  C   UNL     1      41.446 -17.574   4.980  1.00  0.00     0.038 A 
HETATM   29  C   UNL     1      40.819 -16.396   5.684  1.00  0.00     0.011 A 
HETATM   30  C   UNL     1      41.071 -16.326   4.215  1.00  0.00     0.011 A 
ENDBRANCH  23  28
ENDBRANCH   1  19
TORSDOF 9
ENDMDL
MODEL 2
REMARK VINA RESULT:      -7.2      2.215      3.395
REMARK  9 active torsions:
REMARK  status: ('A' for Active; 'I' for Inactive)
REMARK    1  A    between atoms: C_2  and  C_3 
REMARK    2  A    between atoms: C_3  and  N_4 
REMARK    3  A    between atoms: C_7  and  C_8 
REMARK       I    between atoms: C_8  and  N_9 
REMARK    4  A    between atoms: N_9  and  C_10 
REMARK    5  A    between atoms: C_10  and  C_11 
REMARK    6  A    between atoms: C_13  and  O_14 
REMARK    7  A    between atoms: O_14  and  C_15 
REMARK    8  A    between atoms: C_15  and  C_16 
REMARK       I    between atoms: C_16  and  N_17 
REMARK    9  A    between atoms: C_23  and  C_24 
ROOT
HETATM    1  C   UNL     1      43.532 -16.776   7.401  1.00  0.00     0.255 C 
HETATM    2  N   UNL     1      43.913 -15.459   7.416  1.00  0.00    -0.353 N 
HETATM    3  O   UNL     1      43.008 -17.236   8.413  1.00  0.00    -0.268 OA
HETATM    4  H   UNL     1      43.707 -15.002   8.295  1.00  0.00     0.163 HD
ENDROOT
BRANCH   2   5
HETATM    5  C   UNL     1      44.545 -14.659   6.387  1.00  0.00     0.161 C 
BRANCH   5   6
HETATM    6  C   UNL     1      43.544 -13.922   5.526  1.00  0.00    -0.038 A 
HETATM    7  C   UNL     1      43.627 -13.904   4.123  1.00  0.00     0.045 A 
HETATM    8  C   UNL     1      42.676 -13.237   3.343  1.00  0.00     0.070 A 
HETATM    9  C   UNL     1      41.615 -12.585   3.968  1.00  0.00     0.037 A 
HETATM   10  C   UNL     1      41.509 -12.605   5.360  1.00  0.00     0.003 A 
HETATM   11  C   UNL     1      42.461 -13.272   6.133  1.00  0.00     0.009 A 
BRANCH   8  12
HETATM   12  O   UNL     1      42.901 -13.304   1.996  1.00  0.00    -0.342 OA
BRANCH  12  13
HETATM   13  C   UNL     1      41.772 -13.136   1.141  1.00  0.00     0.278 C 
BRANCH  13  14
HETATM   14  C   UNL     1      41.243 -14.486   0.660  1.00  0.00     0.239 C 
HETATM   15  N   UNL     1      41.908 -15.051  -0.388  1.00  0.00    -0.368 N 
HETATM   16  H   UNL     1      42.757 -14.630  -0.746  1.00  0.00     0.159 HD
HETATM   17  H   UNL     1      41.618 -15.961  -0.720  1.00  0.00     0.159 HD
HETATM   18  O   UNL     1      40.269 -15.038   1.163  1.00  0.00    -0.271 OA
ENDBRANCH  13  14
ENDBRANCH  12  13
ENDBRANCH   8  12
ENDBRANCH   5   6
ENDBRANCH   2   5
BRANCH   1  19
HETATM   19  C   UNL     1      43.793 -17.568   6.217  1.00  0.00     0.075 A 
HETATM   20  C   UNL     1      45.030 -18.162   5.872  1.00  0.00     0.158 A 
HETATM   21  N   UNL     1      44.994 -18.813   4.713  1.00  0.00    -0.183 NA
HETATM   22  N   UNL     1      43.709 -18.705   4.322  1.00  0.00    -0.268 N 
HETATM   23  C   UNL     1      42.937 -17.959   5.193  1.00  0.00     0.052 A 
BRANCH  22  24
HETATM   24  C   UNL     1      43.280 -19.354   3.083  1.00  0.00     0.106 C 
HETATM   25  C   UNL     1      44.196 -20.506   2.648  1.00  0.00     0.034 C 
BRANCH  24  26
HETATM   26  C   UNL     1      43.040 -18.339   1.948  1.00  0.00     0.022 C 
HETATM   27  C   UNL     1      44.123 -17.280   1.787  1.00  0.00     0.007 C 
ENDBRANCH  24  26
ENDBRANCH  22  24
BRANCH  23  28
HETATM   28  C   UNL     1      41.455 -17.651   4.963  1.00  0.00     0.038 A 
HETATM   29  C   UNL     1      40.763 -16.563   5.748  1.00  0.00     0.011 A 
HETATM   30  C   UNL     1      41.034 -16.363   4.294  1.00  0.00     0.011 A 
ENDBRANCH  23  28
ENDBRANCH   1  19
TORSDOF 9
ENDMDL
MODEL 3
REMARK VINA RESULT:      -7.2      3.111      6.910
REMARK  9 active torsions:
REMARK  status: ('A' for Active; 'I' for Inactive)
REMARK    1  A    between atoms: C_2  and  C_3 
REMARK    2  A    between atoms: C_3  and  N_4 
REMARK    3  A    between atoms: C_7  and  C_8 
REMARK       I    between atoms: C_8  and  N_9 
REMARK    4  A    between atoms: N_9  and  C_10 
REMARK    5  A    between atoms: C_10  and  C_11 
REMARK    6  A    between atoms: C_13  and  O_14 
REMARK    7  A    between atoms: O_14  and  C_15 
REMARK    8  A    between atoms: C_15  and  C_16 
REMARK       I    between atoms: C_16  and  N_17 
REMARK    9  A    between atoms: C_23  and  C_24 
ROOT
HETATM    1  C   UNL     1      41.173 -16.856   2.024  1.00  0.00     0.255 C 
HETATM    2  N   UNL     1      42.001 -17.795   1.466  1.00  0.00    -0.353 N 
HETATM    3  O   UNL     1      39.972 -16.926   1.775  1.00  0.00    -0.268 OA
HETATM    4  H   UNL     1      41.504 -18.465   0.894  1.00  0.00     0.163 HD
ENDROOT
BRANCH   2   5
HETATM    5  C   UNL     1      43.436 -17.959   1.580  1.00  0.00     0.161 C 
BRANCH   5   6
HETATM    6  C   UNL     1      43.823 -19.257   2.253  1.00  0.00    -0.038 A 
HETATM    7  C   UNL     1      44.241 -19.314   3.593  1.00  0.00     0.045 A 
HETATM    8  C   UNL     1      44.571 -20.528   4.205  1.00  0.00     0.070 A 
HETATM    9  C   UNL     1      44.472 -21.711   3.475  1.00  0.00     0.037 A 
HETATM   10  C   UNL     1      44.043 -21.674   2.146  1.00  0.00     0.003 A 
HETATM   11  C   UNL     1      43.717 -20.459   1.541  1.00  0.00     0.009 A 
BRANCH   8  12
HETATM   12  O   UNL     1      44.969 -20.415   5.509  1.00  0.00    -0.342 OA
BRANCH  12  13
HETATM   13  C   UNL     1      44.455 -19.311   6.249  1.00  0.00     0.278 C 
BRANCH  13  14
HETATM   14  C   UNL     1      43.907 -19.767   7.602  1.00  0.00     0.239 C 
HETATM   15  N   UNL     1      43.951 -18.845   8.607  1.00  0.00    -0.368 N 
HETATM   16  H   UNL     1      44.241 -17.893   8.419  1.00  0.00     0.159 HD
HETATM   17  H   UNL     1      43.568 -19.087   9.511  1.00  0.00     0.159 HD
HETATM   18  O   UNL     1      43.466 -20.896   7.797  1.00  0.00    -0.271 OA
ENDBRANCH  13  14
ENDBRANCH  12  13
ENDBRANCH   8  12
ENDBRANCH   5   6
ENDBRANCH   2   5
BRANCH   1  19
HETATM   19  C   UNL     1      41.750 -15.812   2.845  1.00  0.00     0.075 A 
HETATM   20  C   UNL     1      42.551 -14.741   2.385  1.00  0.00     0.158 A 
HETATM   21  N   UNL     1      42.969 -13.941   3.361  1.00  0.00    -0.183 NA
HETATM   22  N   UNL     1      42.388 -14.449   4.465  1.00  0.00    -0.268 N 
HETATM   23  C   UNL     1      41.640 -15.584   4.213  1.00  0.00     0.052 A 
BRANCH  22  24
HETATM   24  C   UNL     1      42.592 -13.785   5.753  1.00  0.00     0.106 C 
HETATM   25  C   UNL     1      41.948 -12.394   5.831  1.00  0.00     0.034 C 
BRANCH  24  26
HETATM   26  C   UNL     1      44.077 -13.764   6.168  1.00  0.00     0.022 C 
HETATM   27  C   UNL     1      44.507 -14.893   7.095  1.00  0.00     0.007 C 
ENDBRANCH  24  26
ENDBRANCH  22  24
BRANCH  23  28
HETATM   28  C   UNL     1      40.910 -16.379   5.299  1.00  0.00     0.038 A 
HETATM   29  C   UNL     1      41.064 -17.877   5.393  1.00  0.00     0.011 A 
HETATM   30  C   UNL     1      41.679 -17.008   6.438  1.00  0.00     0.011 A 
ENDBRANCH  23  28
ENDBRANCH   1  19
TORSDOF 9
ENDMDL
MODEL 4
REMARK VINA RESULT:      -7.1      2.605      3.694
REMARK  9 active torsions:
REMARK  status: ('A' for Active; 'I' for Inactive)
REMARK    1  A    between atoms: C_2  and  C_3 
REMARK    2  A    between atoms: C_3  and  N_4 
REMARK    3  A    between atoms: C_7  and  C_8 
REMARK       I    between atoms: C_8  and  N_9 
REMARK    4  A    between atoms: N_9  and  C_10 
REMARK    5  A    between atoms: C_10  and  C_11 
REMARK    6  A    between atoms: C_13  and  O_14 
REMARK    7  A    between atoms: O_14  and  C_15 
REMARK    8  A    between atoms: C_15  and  C_16 
REMARK       I    between atoms: C_16  and  N_17 
REMARK    9  A    between atoms: C_23  and  C_24 
ROOT
HETATM    1  C   UNL     1      42.840 -16.513   6.863  1.00  0.00     0.255 C 
HETATM    2  N   UNL     1      43.670 -15.547   7.371  1.00  0.00    -0.353 N 
HETATM    3  O   UNL     1      42.105 -17.111   7.645  1.00  0.00    -0.268 OA
HETATM    4  H   UNL     1      43.572 -15.434   8.372  1.00  0.00     0.163 HD
ENDROOT
BRANCH   2   5
HETATM    5  C   UNL     1      44.629 -14.694   6.700  1.00  0.00     0.161 C 
BRANCH   5   6
HETATM    6  C   UNL     1      45.079 -13.535   7.559  1.00  0.00    -0.038 A 
HETATM    7  C   UNL     1      44.337 -13.084   8.664  1.00  0.00     0.045 A 
HETATM    8  C   UNL     1      44.784 -12.024   9.462  1.00  0.00     0.070 A 
HETATM    9  C   UNL     1      45.997 -11.408   9.163  1.00  0.00     0.037 A 
HETATM   10  C   UNL     1      46.755 -11.853   8.078  1.00  0.00     0.003 A 
HETATM   11  C   UNL     1      46.303 -12.910   7.286  1.00  0.00     0.009 A 
BRANCH   8  12
HETATM   12  O   UNL     1      43.945 -11.699  10.492  1.00  0.00    -0.342 OA
BRANCH  12  13
HETATM   13  C   UNL     1      43.307 -10.425  10.430  1.00  0.00     0.278 C 
BRANCH  13  14
HETATM   14  C   UNL     1      42.232 -10.403   9.344  1.00  0.00     0.239 C 
HETATM   15  N   UNL     1      41.054 -11.015   9.655  1.00  0.00    -0.368 N 
HETATM   16  H   UNL     1      40.889 -11.369  10.590  1.00  0.00     0.159 HD
HETATM   17  H   UNL     1      40.299 -10.996   8.983  1.00  0.00     0.159 HD
HETATM   18  O   UNL     1      42.406  -9.885   8.245  1.00  0.00    -0.271 OA
ENDBRANCH  13  14
ENDBRANCH  12  13
ENDBRANCH   8  12
ENDBRANCH   5   6
ENDBRANCH   2   5
BRANCH   1  19
HETATM   19  C   UNL     1      42.892 -16.807   5.446  1.00  0.00     0.075 A 
HETATM   20  C   UNL     1      42.177 -16.129   4.430  1.00  0.00     0.158 A 
HETATM   21  N   UNL     1      42.393 -16.625   3.216  1.00  0.00    -0.183 NA
HETATM   22  N   UNL     1      43.305 -17.595   3.421  1.00  0.00    -0.268 N 
HETATM   23  C   UNL     1      43.643 -17.751   4.752  1.00  0.00     0.052 A 
BRANCH  22  24
HETATM   24  C   UNL     1      43.825 -18.344   2.277  1.00  0.00     0.106 C 
HETATM   25  C   UNL     1      43.857 -17.529   0.977  1.00  0.00     0.034 C 
BRANCH  24  26
HETATM   26  C   UNL     1      43.110 -19.699   2.097  1.00  0.00     0.022 C 
HETATM   27  C   UNL     1      44.024 -20.917   2.087  1.00  0.00     0.007 C 
ENDBRANCH  24  26
ENDBRANCH  22  24
BRANCH  23  28
HETATM   28  C   UNL     1      44.626 -18.808   5.261  1.00  0.00     0.038 A 
HETATM   29  C   UNL     1      44.706 -19.144   6.730  1.00  0.00     0.011 A 
HETATM   30  C   UNL     1      44.125 -20.136   5.779  1.00  0.00     0.011 A 
ENDBRANCH  23  28
ENDBRANCH   1  19
TORSDOF 9
ENDMDL
MODEL 5
REMARK VINA RESULT:      -7.0      3.008      6.779
REMARK  9 active torsions:
REMARK  status: ('A' for Active; 'I' for Inactive)
REMARK    1  A    between atoms: C_2  and  C_3 
REMARK    2  A    between atoms: C_3  and  N_4 
REMARK    3  A    between atoms: C_7  and  C_8 
REMARK       I    between atoms: C_8  and  N_9 
REMARK    4  A    between atoms: N_9  and  C_10 
REMARK    5  A    between atoms: C_10  and  C_11 
REMARK    6  A    between atoms: C_13  and  O_14 
REMARK    7  A    between atoms: O_14  and  C_15 
REMARK    8  A    between atoms: C_15  and  C_16 
REMARK       I    between atoms: C_16  and  N_17 
REMARK    9  A    between atoms: C_23  and  C_24 
ROOT
HETATM    1  C   UNL     1      41.187 -17.132   2.235  1.00  0.00     0.255 C 
HETATM    2  N   UNL     1      42.074 -17.831   1.460  1.00  0.00    -0.353 N 
HETATM    3  O   UNL     1      40.002 -17.143   1.908  1.00  0.00    -0.268 OA
HETATM    4  H   UNL     1      41.631 -18.296   0.679  1.00  0.00     0.163 HD
ENDROOT
BRANCH   2   5
HETATM    5  C   UNL     1      43.508 -17.995   1.600  1.00  0.00     0.161 C 
BRANCH   5   6
HETATM    6  C   UNL     1      43.881 -19.271   2.320  1.00  0.00    -0.038 A 
HETATM    7  C   UNL     1      44.185 -19.300   3.691  1.00  0.00     0.045 A 
HETATM    8  C   UNL     1      44.505 -20.496   4.344  1.00  0.00     0.070 A 
HETATM    9  C   UNL     1      44.510 -21.688   3.623  1.00  0.00     0.037 A 
HETATM   10  C   UNL     1      44.195 -21.680   2.262  1.00  0.00     0.003 A 
HETATM   11  C   UNL     1      43.879 -20.483   1.617  1.00  0.00     0.009 A 
BRANCH   8  12
HETATM   12  O   UNL     1      44.785 -20.357   5.675  1.00  0.00    -0.342 OA
BRANCH  12  13
HETATM   13  C   UNL     1      43.772 -19.778   6.493  1.00  0.00     0.278 C 
BRANCH  13  14
HETATM   14  C   UNL     1      44.326 -18.607   7.305  1.00  0.00     0.239 C 
HETATM   15  N   UNL     1      44.045 -18.618   8.640  1.00  0.00    -0.368 N 
HETATM   16  H   UNL     1      43.580 -19.413   9.061  1.00  0.00     0.159 HD
HETATM   17  H   UNL     1      44.420 -17.884   9.226  1.00  0.00     0.159 HD
HETATM   18  O   UNL     1      44.973 -17.693   6.802  1.00  0.00    -0.271 OA
ENDBRANCH  13  14
ENDBRANCH  12  13
ENDBRANCH   8  12
ENDBRANCH   5   6
ENDBRANCH   2   5
BRANCH   1  19
HETATM   19  C   UNL     1      41.684 -16.389   3.374  1.00  0.00     0.075 A 
HETATM   20  C   UNL     1      41.695 -16.835   4.717  1.00  0.00     0.158 A 
HETATM   21  N   UNL     1      42.185 -15.937   5.566  1.00  0.00    -0.183 NA
HETATM   22  N   UNL     1      42.562 -14.916   4.771  1.00  0.00    -0.268 N 
HETATM   23  C   UNL     1      42.280 -15.133   3.436  1.00  0.00     0.052 A 
BRANCH  22  24
HETATM   24  C   UNL     1      43.200 -13.742   5.367  1.00  0.00     0.106 C 
HETATM   25  C   UNL     1      44.418 -14.084   6.237  1.00  0.00     0.034 C 
BRANCH  24  26
HETATM   26  C   UNL     1      42.189 -12.844   6.109  1.00  0.00     0.022 C 
HETATM   27  C   UNL     1      41.532 -11.767   5.255  1.00  0.00     0.007 C 
ENDBRANCH  24  26
ENDBRANCH  22  24
BRANCH  23  28
HETATM   28  C   UNL     1      42.569 -14.114   2.330  1.00  0.00     0.038 A 
HETATM   29  C   UNL     1      41.789 -14.136   1.039  1.00  0.00     0.011 A 
HETATM   30  C   UNL     1      41.572 -13.024   2.011  1.00  0.00     0.011 A 
ENDBRANCH  23  28
ENDBRANCH   1  19
TORSDOF 9
ENDMDL
MODEL 6
REMARK VINA RESULT:      -7.0      4.844      6.508
REMARK  9 active torsions:
REMARK  status: ('A' for Active; 'I' for Inactive)
REMARK    1  A    between atoms: C_2  and  C_3 
REMARK    2  A    between atoms: C_3  and  N_4 
REMARK    3  A    between atoms: C_7  and  C_8 
REMARK       I    between atoms: C_8  and  N_9 
REMARK    4  A    between atoms: N_9  and  C_10 
REMARK    5  A    between atoms: C_10  and  C_11 
REMARK    6  A    between atoms: C_13  and  O_14 
REMARK    7  A    between atoms: O_14  and  C_15 
REMARK    8  A    between atoms: C_15  and  C_16 
REMARK       I    between atoms: C_16  and  N_17 
REMARK    9  A    between atoms: C_23  and  C_24 
ROOT
HETATM    1  C   UNL     1      43.049 -14.825   2.919  1.00  0.00     0.255 C 
HETATM    2  N   UNL     1      41.759 -14.362   2.870  1.00  0.00    -0.353 N 
HETATM    3  O   UNL     1      43.940 -14.021   3.184  1.00  0.00    -0.268 OA
HETATM    4  H   UNL     1      41.690 -13.372   3.069  1.00  0.00     0.163 HD
ENDROOT
BRANCH   2   5
HETATM    5  C   UNL     1      40.525 -15.067   2.587  1.00  0.00     0.161 C 
BRANCH   5   6
HETATM    6  C   UNL     1      39.869 -14.601   1.307  1.00  0.00    -0.038 A 
HETATM    7  C   UNL     1      40.430 -14.843   0.042  1.00  0.00     0.045 A 
HETATM    8  C   UNL     1      39.795 -14.425  -1.133  1.00  0.00     0.070 A 
HETATM    9  C   UNL     1      38.571 -13.764  -1.049  1.00  0.00     0.037 A 
HETATM   10  C   UNL     1      37.991 -13.529   0.199  1.00  0.00     0.003 A 
HETATM   11  C   UNL     1      38.631 -13.947   1.367  1.00  0.00     0.009 A 
BRANCH   8  12
HETATM   12  O   UNL     1      40.472 -14.727  -2.282  1.00  0.00    -0.342 OA
BRANCH  12  13
HETATM   13  C   UNL     1      39.788 -14.511  -3.513  1.00  0.00     0.278 C 
BRANCH  13  14
HETATM   14  C   UNL     1      38.990 -15.750  -3.921  1.00  0.00     0.239 C 
HETATM   15  N   UNL     1      39.501 -16.950  -3.522  1.00  0.00    -0.368 N 
HETATM   16  H   UNL     1      40.308 -16.987  -2.910  1.00  0.00     0.159 HD
HETATM   17  H   UNL     1      38.991 -17.796  -3.736  1.00  0.00     0.159 HD
HETATM   18  O   UNL     1      37.958 -15.690  -4.583  1.00  0.00    -0.271 OA
ENDBRANCH  13  14
ENDBRANCH  12  13
ENDBRANCH   8  12
ENDBRANCH   5   6
ENDBRANCH   2   5
BRANCH   1  19
HETATM   19  C   UNL     1      43.305 -16.219   2.625  1.00  0.00     0.075 A 
HETATM   20  C   UNL     1      43.684 -16.747   1.368  1.00  0.00     0.158 A 
HETATM   21  N   UNL     1      43.829 -18.068   1.375  1.00  0.00    -0.183 NA
HETATM   22  N   UNL     1      43.607 -18.410   2.659  1.00  0.00    -0.268 N 
HETATM   23  C   UNL     1      43.283 -17.331   3.461  1.00  0.00     0.052 A 
BRANCH  22  24
HETATM   24  C   UNL     1      43.728 -19.812   3.060  1.00  0.00     0.106 C 
HETATM   25  C   UNL     1      45.029 -20.122   3.812  1.00  0.00     0.034 C 
BRANCH  24  26
HETATM   26  C   UNL     1      43.493 -20.775   1.879  1.00  0.00     0.022 C 
HETATM   27  C   UNL     1      44.417 -21.985   1.836  1.00  0.00     0.007 C 
ENDBRANCH  24  26
ENDBRANCH  22  24
BRANCH  23  28
HETATM   28  C   UNL     1      42.946 -17.450   4.949  1.00  0.00     0.038 A 
HETATM   29  C   UNL     1      42.106 -16.401   5.635  1.00  0.00     0.011 A 
HETATM   30  C   UNL     1      41.535 -17.758   5.394  1.00  0.00     0.011 A 
ENDBRANCH  23  28
ENDBRANCH   1  19
TORSDOF 9
ENDMDL
MODEL 7
REMARK VINA RESULT:      -6.9      2.480      4.238
REMARK  9 active torsions:
REMARK  status: ('A' for Active; 'I' for Inactive)
REMARK    1  A    between atoms: C_2  and  C_3 
REMARK    2  A    between atoms: C_3  and  N_4 
REMARK    3  A    between atoms: C_7  and  C_8 
REMARK       I    between atoms: C_8  and  N_9 
REMARK    4  A    between atoms: N_9  and  C_10 
REMARK    5  A    between atoms: C_10  and  C_11 
REMARK    6  A    between atoms: C_13  and  O_14 
REMARK    7  A    between atoms: O_14  and  C_15 
REMARK    8  A    between atoms: C_15  and  C_16 
REMARK       I    between atoms: C_16  and  N_17 
REMARK    9  A    between atoms: C_23  and  C_24 
ROOT
HETATM    1  C   UNL     1      41.340 -16.478   6.062  1.00  0.00     0.255 C 
HETATM    2  N   UNL     1      41.931 -15.334   6.533  1.00  0.00    -0.353 N 
HETATM    3  O   UNL     1      40.506 -17.031   6.775  1.00  0.00    -0.268 OA
HETATM    4  H   UNL     1      41.594 -15.067   7.449  1.00  0.00     0.163 HD
ENDROOT
BRANCH   2   5
HETATM    5  C   UNL     1      42.932 -14.482   5.923  1.00  0.00     0.161 C 
BRANCH   5   6
HETATM    6  C   UNL     1      42.343 -13.520   4.916  1.00  0.00    -0.038 A 
HETATM    7  C   UNL     1      42.692 -13.546   3.556  1.00  0.00     0.045 A 
HETATM    8  C   UNL     1      42.117 -12.663   2.635  1.00  0.00     0.070 A 
HETATM    9  C   UNL     1      41.166 -11.743   3.073  1.00  0.00     0.037 A 
HETATM   10  C   UNL     1      40.796 -11.713   4.419  1.00  0.00     0.003 A 
HETATM   11  C   UNL     1      41.374 -12.596   5.332  1.00  0.00     0.009 A 
BRANCH   8  12
HETATM   12  O   UNL     1      42.568 -12.809   1.352  1.00  0.00    -0.342 OA
BRANCH  12  13
HETATM   13  C   UNL     1      41.585 -12.994   0.337  1.00  0.00     0.278 C 
BRANCH  13  14
HETATM   14  C   UNL     1      41.036 -14.420   0.360  1.00  0.00     0.239 C 
HETATM   15  N   UNL     1      41.886 -15.396  -0.072  1.00  0.00    -0.368 N 
HETATM   16  H   UNL     1      42.849 -15.177  -0.296  1.00  0.00     0.159 HD
HETATM   17  H   UNL     1      41.581 -16.360  -0.043  1.00  0.00     0.159 HD
HETATM   18  O   UNL     1      39.895 -14.691   0.725  1.00  0.00    -0.271 OA
ENDBRANCH  13  14
ENDBRANCH  12  13
ENDBRANCH   8  12
ENDBRANCH   5   6
ENDBRANCH   2   5
BRANCH   1  19
HETATM   19  C   UNL     1      41.747 -16.997   4.773  1.00  0.00     0.075 A 
HETATM   20  C   UNL     1      41.060 -16.815   3.550  1.00  0.00     0.158 A 
HETATM   21  N   UNL     1      41.644 -17.425   2.523  1.00  0.00    -0.183 NA
HETATM   22  N   UNL     1      42.759 -17.960   3.058  1.00  0.00    -0.268 N 
HETATM   23  C   UNL     1      42.872 -17.735   4.417  1.00  0.00     0.052 A 
BRANCH  22  24
HETATM   24  C   UNL     1      43.692 -18.685   2.195  1.00  0.00     0.106 C 
HETATM   25  C   UNL     1      44.044 -17.928   0.907  1.00  0.00     0.034 C 
BRANCH  24  26
HETATM   26  C   UNL     1      43.224 -20.127   1.915  1.00  0.00     0.022 C 
HETATM   27  C   UNL     1      44.235 -21.214   2.257  1.00  0.00     0.007 C 
ENDBRANCH  24  26
ENDBRANCH  22  24
BRANCH  23  28
HETATM   28  C   UNL     1      44.023 -18.268   5.274  1.00  0.00     0.038 A 
HETATM   29  C   UNL     1      43.802 -18.633   6.721  1.00  0.00     0.011 A 
HETATM   30  C   UNL     1      44.043 -19.712   5.719  1.00  0.00     0.011 A 
ENDBRANCH  23  28
ENDBRANCH   1  19
TORSDOF 9
ENDMDL
MODEL 8
REMARK VINA RESULT:      -6.9      3.054      6.762
REMARK  9 active torsions:
REMARK  status: ('A' for Active; 'I' for Inactive)
REMARK    1  A    between atoms: C_2  and  C_3 
REMARK    2  A    between atoms: C_3  and  N_4 
REMARK    3  A    between atoms: C_7  and  C_8 
REMARK       I    between atoms: C_8  and  N_9 
REMARK    4  A    between atoms: N_9  and  C_10 
REMARK    5  A    between atoms: C_10  and  C_11 
REMARK    6  A    between atoms: C_13  and  O_14 
REMARK    7  A    between atoms: O_14  and  C_15 
REMARK    8  A    between atoms: C_15  and  C_16 
REMARK       I    between atoms: C_16  and  N_17 
REMARK    9  A    between atoms: C_23  and  C_24 
ROOT
HETATM    1  C   UNL     1      40.580 -14.056   5.473  1.00  0.00     0.255 C 
HETATM    2  N   UNL     1      40.610 -15.129   6.326  1.00  0.00    -0.353 N 
HETATM    3  O   UNL     1      40.560 -12.930   5.964  1.00  0.00    -0.268 OA
HETATM    4  H   UNL     1      40.615 -14.855   7.300  1.00  0.00     0.163 HD
ENDROOT
BRANCH   2   5
HETATM    5  C   UNL     1      40.638 -16.549   6.039  1.00  0.00     0.161 C 
BRANCH   5   6
HETATM    6  C   UNL     1      42.044 -17.097   5.944  1.00  0.00    -0.038 A 
HETATM    7  C   UNL     1      42.471 -17.891   4.868  1.00  0.00     0.045 A 
HETATM    8  C   UNL     1      43.785 -18.368   4.787  1.00  0.00     0.070 A 
HETATM    9  C   UNL     1      44.694 -18.040   5.789  1.00  0.00     0.037 A 
HETATM   10  C   UNL     1      44.290 -17.238   6.860  1.00  0.00     0.003 A 
HETATM   11  C   UNL     1      42.979 -16.767   6.935  1.00  0.00     0.009 A 
BRANCH   8  12
HETATM   12  O   UNL     1      44.041 -19.135   3.683  1.00  0.00    -0.342 OA
BRANCH  12  13
HETATM   13  C   UNL     1      44.623 -20.417   3.906  1.00  0.00     0.278 C 
BRANCH  13  14
HETATM   14  C   UNL     1      44.266 -21.383   2.778  1.00  0.00     0.239 C 
HETATM   15  N   UNL     1      43.547 -20.859   1.744  1.00  0.00    -0.368 N 
HETATM   16  H   UNL     1      43.358 -19.865   1.702  1.00  0.00     0.159 HD
HETATM   17  H   UNL     1      43.317 -21.449   0.957  1.00  0.00     0.159 HD
HETATM   18  O   UNL     1      44.584 -22.569   2.790  1.00  0.00    -0.271 OA
ENDBRANCH  13  14
ENDBRANCH  12  13
ENDBRANCH   8  12
ENDBRANCH   5   6
ENDBRANCH   2   5
BRANCH   1  19
HETATM   19  C   UNL     1      40.539 -14.296   4.046  1.00  0.00     0.075 A 
HETATM   20  C   UNL     1      39.398 -14.675   3.300  1.00  0.00     0.158 A 
HETATM   21  N   UNL     1      39.651 -14.854   2.007  1.00  0.00    -0.183 NA
HETATM   22  N   UNL     1      40.953 -14.529   1.886  1.00  0.00    -0.268 N 
HETATM   23  C   UNL     1      41.543 -14.186   3.088  1.00  0.00     0.052 A 
BRANCH  22  24
HETATM   24  C   UNL     1      41.581 -14.566   0.565  1.00  0.00     0.106 C 
HETATM   25  C   UNL     1      40.998 -13.541  -0.417  1.00  0.00     0.034 C 
BRANCH  24  26
HETATM   26  C   UNL     1      41.607 -15.990  -0.026  1.00  0.00     0.022 C 
HETATM   27  C   UNL     1      42.347 -17.025   0.810  1.00  0.00     0.007 C 
ENDBRANCH  24  26
ENDBRANCH  22  24
BRANCH  23  28
HETATM   28  C   UNL     1      43.020 -13.814   3.234  1.00  0.00     0.038 A 
HETATM   29  C   UNL     1      43.740 -14.016   4.545  1.00  0.00     0.011 A 
HETATM   30  C   UNL     1      44.071 -14.890   3.382  1.00  0.00     0.011 A 
ENDBRANCH  23  28
ENDBRANCH   1  19
TORSDOF 9
ENDMDL
MODEL 9
REMARK VINA RESULT:      -6.7      1.993      3.269
REMARK  9 active torsions:
REMARK  status: ('A' for Active; 'I' for Inactive)
REMARK    1  A    between atoms: C_2  and  C_3 
REMARK    2  A    between atoms: C_3  and  N_4 
REMARK    3  A    between atoms: C_7  and  C_8 
REMARK       I    between atoms: C_8  and  N_9 
REMARK    4  A    between atoms: N_9  and  C_10 
REMARK    5  A    between atoms: C_10  and  C_11 
REMARK    6  A    between atoms: C_13  and  O_14 
REMARK    7  A    between atoms: O_14  and  C_15 
REMARK    8  A    between atoms: C_15  and  C_16 
REMARK       I    between atoms: C_16  and  N_17 
REMARK    9  A    between atoms: C_23  and  C_24 
ROOT
HETATM    1  C   UNL     1      41.041 -16.638   2.246  1.00  0.00     0.255 C 
HETATM    2  N   UNL     1      41.230 -15.300   2.017  1.00  0.00    -0.353 N 
HETATM    3  O   UNL     1      39.934 -17.114   2.007  1.00  0.00    -0.268 OA
HETATM    4  H   UNL     1      40.401 -14.843   1.660  1.00  0.00     0.163 HD
ENDROOT
BRANCH   2   5
HETATM    5  C   UNL     1      42.408 -14.478   2.204  1.00  0.00     0.161 C 
BRANCH   5   6
HETATM    6  C   UNL     1      42.511 -13.918   3.605  1.00  0.00    -0.038 A 
HETATM    7  C   UNL     1      41.557 -13.033   4.134  1.00  0.00     0.045 A 
HETATM    8  C   UNL     1      41.657 -12.544   5.441  1.00  0.00     0.070 A 
HETATM    9  C   UNL     1      42.720 -12.953   6.243  1.00  0.00     0.037 A 
HETATM   10  C   UNL     1      43.670 -13.844   5.739  1.00  0.00     0.003 A 
HETATM   11  C   UNL     1      43.565 -14.326   4.433  1.00  0.00     0.009 A 
BRANCH   8  12
HETATM   12  O   UNL     1      40.656 -11.687   5.803  1.00  0.00    -0.342 OA
BRANCH  12  13
HETATM   13  C   UNL     1      40.712 -11.145   7.121  1.00  0.00     0.278 C 
BRANCH  13  14
HETATM   14  C   UNL     1      39.465 -11.522   7.921  1.00  0.00     0.239 C 
HETATM   15  N   UNL     1      39.105 -12.837   7.886  1.00  0.00    -0.368 N 
HETATM   16  H   UNL     1      39.699 -13.520   7.432  1.00  0.00     0.159 HD
HETATM   17  H   UNL     1      38.309 -13.142   8.428  1.00  0.00     0.159 HD
HETATM   18  O   UNL     1      38.803 -10.701   8.551  1.00  0.00    -0.271 OA
ENDBRANCH  13  14
ENDBRANCH  12  13
ENDBRANCH   8  12
ENDBRANCH   5   6
ENDBRANCH   2   5
BRANCH   1  19
HETATM   19  C   UNL     1      42.135 -17.418   2.788  1.00  0.00     0.075 A 
HETATM   20  C   UNL     1      43.279 -17.851   2.077  1.00  0.00     0.158 A 
HETATM   21  N   UNL     1      44.114 -18.575   2.816  1.00  0.00    -0.183 NA
HETATM   22  N   UNL     1      43.551 -18.566   4.040  1.00  0.00    -0.268 N 
HETATM   23  C   UNL     1      42.350 -17.883   4.082  1.00  0.00     0.052 A 
BRANCH  22  24
HETATM   24  C   UNL     1      44.230 -19.241   5.147  1.00  0.00     0.106 C 
HETATM   25  C   UNL     1      45.138 -18.311   5.963  1.00  0.00     0.034 C 
BRANCH  24  26
HETATM   26  C   UNL     1      44.965 -20.516   4.686  1.00  0.00     0.022 C 
HETATM   27  C   UNL     1      44.619 -21.779   5.462  1.00  0.00     0.007 C 
ENDBRANCH  24  26
ENDBRANCH  22  24
BRANCH  23  28
HETATM   28  C   UNL     1      41.488 -17.756   5.341  1.00  0.00     0.038 A 
HETATM   29  C   UNL     1      41.972 -16.964   6.530  1.00  0.00     0.011 A 
HETATM   30  C   UNL     1      40.848 -16.436   5.703  1.00  0.00     0.011 A 
ENDBRANCH  23  28
ENDBRANCH   1  19
TORSDOF 9
ENDMDL
MODEL 10
REMARK VINA RESULT:      -6.7      2.727      6.600
REMARK  9 active torsions:
REMARK  status: ('A' for Active; 'I' for Inactive)
REMARK    1  A    between atoms: C_2  and  C_3 
REMARK    2  A    between atoms: C_3  and  N_4 
REMARK    3  A    between atoms: C_7  and  C_8 
REMARK       I    between atoms: C_8  and  N_9 
REMARK    4  A    between atoms: N_9  and  C_10 
REMARK    5  A    between atoms: C_10  and  C_11 
REMARK    6  A    between atoms: C_13  and  O_14 
REMARK    7  A    between atoms: O_14  and  C_15 
REMARK    8  A    between atoms: C_15  and  C_16 
REMARK       I    between atoms: C_16  and  N_17 
REMARK    9  A    between atoms: C_23  and  C_24 
ROOT
HETATM    1  C   UNL     1      41.274 -15.063   5.768  1.00  0.00     0.255 C 
HETATM    2  N   UNL     1      42.355 -15.089   6.609  1.00  0.00    -0.353 N 
HETATM    3  O   UNL     1      40.231 -14.564   6.185  1.00  0.00    -0.268 OA
HETATM    4  H   UNL     1      42.160 -14.674   7.512  1.00  0.00     0.163 HD
ENDROOT
BRANCH   2   5
HETATM    5  C   UNL     1      43.692 -15.605   6.395  1.00  0.00     0.161 C 
BRANCH   5   6
HETATM    6  C   UNL     1      43.744 -17.116   6.419  1.00  0.00    -0.038 A 
HETATM    7  C   UNL     1      43.878 -17.883   5.250  1.00  0.00     0.045 A 
HETATM    8  C   UNL     1      43.949 -19.281   5.296  1.00  0.00     0.070 A 
HETATM    9  C   UNL     1      43.897 -19.927   6.529  1.00  0.00     0.037 A 
HETATM   10  C   UNL     1      43.779 -19.179   7.703  1.00  0.00     0.003 A 
HETATM   11  C   UNL     1      43.708 -17.786   7.649  1.00  0.00     0.009 A 
BRANCH   8  12
HETATM   12  O   UNL     1      44.070 -19.882   4.074  1.00  0.00    -0.342 OA
BRANCH  12  13
HETATM   13  C   UNL     1      45.175 -20.764   3.892  1.00  0.00     0.278 C 
BRANCH  13  14
HETATM   14  C   UNL     1      44.700 -22.162   3.499  1.00  0.00     0.239 C 
HETATM   15  N   UNL     1      44.725 -23.103   4.487  1.00  0.00    -0.368 N 
HETATM   16  H   UNL     1      44.954 -22.843   5.438  1.00  0.00     0.159 HD
HETATM   17  H   UNL     1      44.387 -24.034   4.286  1.00  0.00     0.159 HD
HETATM   18  O   UNL     1      44.330 -22.447   2.363  1.00  0.00    -0.271 OA
ENDBRANCH  13  14
ENDBRANCH  12  13
ENDBRANCH   8  12
ENDBRANCH   5   6
ENDBRANCH   2   5
BRANCH   1  19
HETATM   19  C   UNL     1      41.396 -15.649   4.450  1.00  0.00     0.075 A 
HETATM   20  C   UNL     1      40.879 -16.903   4.047  1.00  0.00     0.158 A 
HETATM   21  N   UNL     1      41.161 -17.207   2.784  1.00  0.00    -0.183 NA
HETATM   22  N   UNL     1      41.813 -16.119   2.329  1.00  0.00    -0.268 N 
HETATM   23  C   UNL     1      41.986 -15.146   3.295  1.00  0.00     0.052 A 
BRANCH  22  24
HETATM   24  C   UNL     1      42.248 -16.076   0.933  1.00  0.00     0.106 C 
HETATM   25  C   UNL     1      41.091 -15.901  -0.061  1.00  0.00     0.034 C 
BRANCH  24  26
HETATM   26  C   UNL     1      43.153 -17.270   0.568  1.00  0.00     0.022 C 
HETATM   27  C   UNL     1      44.350 -17.478   1.487  1.00  0.00     0.007 C 
ENDBRANCH  24  26
ENDBRANCH  22  24
BRANCH  23  28
HETATM   28  C   UNL     1      42.729 -13.829   3.050  1.00  0.00     0.038 A 
HETATM   29  C   UNL     1      42.211 -12.826   2.049  1.00  0.00     0.011 A 
HETATM   30  C   UNL     1      42.135 -12.517   3.507  1.00  0.00     0.011 A 
ENDBRANCH  23  28
ENDBRANCH   1  19
TORSDOF 9
ENDMDL
