MODEL 1
REMARK VINA RESULT:      -8.0      0.000      0.000
REMARK  5 active torsions:
REMARK  status: ('A' for Active; 'I' for Inactive)
REMARK    1  A    between atoms: C_2  and  C_3 
REMARK    2  A    between atoms: C_3  and  N_4 
REMARK    3  A    between atoms: C_3  and  C_18 
REMARK    4  A    between atoms: N_4  and  C_7 
REMARK    5  A    between atoms: C_7  and  C_8 
ROOT
HETATM    1  N   UNL     1      43.959 -19.036   5.432  1.00  0.00    -0.056 N 
HETATM    2  H   UNL     1      42.936 -19.112   5.386  1.00  0.00     0.278 HD
HETATM    3  H   UNL     1      44.242 -19.840   6.004  1.00  0.00     0.278 HD
ENDROOT
BRANCH   1   4
HETATM    4  C   UNL     1      44.507 -19.245   4.047  1.00  0.00     0.292 C 
BRANCH   4   5
HETATM    5  C   UNL     1      43.696 -18.533   2.979  1.00  0.00    -0.020 A 
HETATM    6  C   UNL     1      44.361 -17.918   1.901  1.00  0.00     0.011 A 
HETATM    7  C   UNL     1      43.643 -17.234   0.915  1.00  0.00     0.024 A 
HETATM    8  C   UNL     1      42.256 -17.155   0.992  1.00  0.00     0.034 A 
HETATM    9  C   UNL     1      41.578 -17.758   2.049  1.00  0.00     0.024 A 
HETATM   10 CL   UNL     1      41.377 -16.314  -0.220  1.00  0.00    -0.084 Cl
HETATM   11  C   UNL     1      42.290 -18.441   3.038  1.00  0.00     0.011 A 
ENDBRANCH   4   5
BRANCH   4  12
HETATM   12  C   UNL     1      44.513 -20.700   3.669  1.00  0.00     0.190 A 
HETATM   13  N   UNL     1      44.450 -21.133   2.405  1.00  0.00    -0.109 NA
HETATM   14  O   UNL     1      44.544 -22.522   2.541  1.00  0.00    -0.205 OA
HETATM   15  C   UNL     1      44.695 -22.769   3.869  1.00  0.00     0.288 A 
HETATM   16  N   UNL     1      44.714 -21.686   4.613  1.00  0.00    -0.215 NA
ENDBRANCH   4  12
ENDBRANCH   1   4
BRANCH   1  17
HETATM   17  C   UNL     1      44.357 -17.779   6.105  1.00  0.00     0.272 C 
BRANCH  17  18
HETATM   18  C   UNL     1      43.245 -16.774   6.038  1.00  0.00    -0.030 A 
HETATM   19  C   UNL     1      43.504 -15.458   5.624  1.00  0.00     0.048 A 
HETATM   20  C   UNL     1      42.463 -14.534   5.517  1.00  0.00     0.102 A 
HETATM   21  C   UNL     1      41.159 -14.907   5.843  1.00  0.00     0.102 A 
HETATM   22  O   UNL     1      42.804 -13.278   5.091  1.00  0.00    -0.346 OA
HETATM   23  O   UNL     1      40.098 -14.044   5.795  1.00  0.00    -0.346 OA
HETATM   24  C   UNL     1      40.887 -16.215   6.234  1.00  0.00     0.040 A 
HETATM   25  C   UNL     1      40.537 -12.680   5.754  1.00  0.00     0.202 C 
HETATM   26  C   UNL     1      41.647 -12.507   4.730  1.00  0.00     0.202 C 
HETATM   27  C   UNL     1      41.923 -17.147   6.331  1.00  0.00     0.012 A 
ENDBRANCH  17  18
ENDBRANCH   1  17
TORSDOF 5
ENDMDL
MODEL 2
REMARK VINA RESULT:      -7.8      3.241      6.936
REMARK  5 active torsions:
REMARK  status: ('A' for Active; 'I' for Inactive)
REMARK    1  A    between atoms: C_2  and  C_3 
REMARK    2  A    between atoms: C_3  and  N_4 
REMARK    3  A    between atoms: C_3  and  C_18 
REMARK    4  A    between atoms: N_4  and  C_7 
REMARK    5  A    between atoms: C_7  and  C_8 
ROOT
HETATM    1  N   UNL     1      42.359 -17.238   1.663  1.00  0.00    -0.056 N 
HETATM    2  H   UNL     1      41.801 -17.981   2.101  1.00  0.00     0.278 HD
HETATM    3  H   UNL     1      41.879 -17.060   0.774  1.00  0.00     0.278 HD
ENDROOT
BRANCH   1   4
HETATM    4  C   UNL     1      42.233 -16.000   2.507  1.00  0.00     0.292 C 
BRANCH   4   5
HETATM    5  C   UNL     1      42.446 -16.269   3.986  1.00  0.00    -0.020 A 
HETATM    6  C   UNL     1      43.467 -15.587   4.673  1.00  0.00     0.011 A 
HETATM    7  C   UNL     1      43.704 -15.831   6.030  1.00  0.00     0.024 A 
HETATM    8  C   UNL     1      42.926 -16.760   6.715  1.00  0.00     0.034 A 
HETATM    9  C   UNL     1      41.909 -17.445   6.055  1.00  0.00     0.024 A 
HETATM   10 CL   UNL     1      43.219 -17.060   8.381  1.00  0.00    -0.084 Cl
HETATM   11  C   UNL     1      41.670 -17.206   4.700  1.00  0.00     0.011 A 
ENDBRANCH   4   5
BRANCH   4  12
HETATM   12  C   UNL     1      40.865 -15.386   2.387  1.00  0.00     0.190 A 
HETATM   13  N   UNL     1      39.815 -16.024   1.859  1.00  0.00    -0.109 NA
HETATM   14  O   UNL     1      38.774 -15.102   2.014  1.00  0.00    -0.205 OA
HETATM   15  C   UNL     1      39.305 -14.027   2.655  1.00  0.00     0.288 A 
HETATM   16  N   UNL     1      40.581 -14.154   2.939  1.00  0.00    -0.215 NA
ENDBRANCH   4  12
ENDBRANCH   1   4
BRANCH   1  17
HETATM   17  C   UNL     1      43.738 -17.709   1.404  1.00  0.00     0.272 C 
BRANCH  17  18
HETATM   18  C   UNL     1      43.978 -19.027   2.079  1.00  0.00    -0.030 A 
HETATM   19  C   UNL     1      44.243 -19.080   3.456  1.00  0.00     0.048 A 
HETATM   20  C   UNL     1      44.421 -20.309   4.094  1.00  0.00     0.102 A 
HETATM   21  C   UNL     1      44.359 -21.494   3.361  1.00  0.00     0.102 A 
HETATM   22  O   UNL     1      44.661 -20.267   5.442  1.00  0.00    -0.346 OA
HETATM   23  O   UNL     1      44.558 -22.730   3.915  1.00  0.00    -0.346 OA
HETATM   24  C   UNL     1      44.075 -21.456   1.999  1.00  0.00     0.040 A 
HETATM   25  C   UNL     1      45.199 -22.631   5.193  1.00  0.00     0.202 C 
HETATM   26  C   UNL     1      44.530 -21.564   6.045  1.00  0.00     0.202 C 
HETATM   27  C   UNL     1      43.884 -20.229   1.357  1.00  0.00     0.012 A 
ENDBRANCH  17  18
ENDBRANCH   1  17
TORSDOF 5
ENDMDL
MODEL 3
REMARK VINA RESULT:      -7.6      3.668      5.789
REMARK  5 active torsions:
REMARK  status: ('A' for Active; 'I' for Inactive)
REMARK    1  A    between atoms: C_2  and  C_3 
REMARK    2  A    between atoms: C_3  and  N_4 
REMARK    3  A    between atoms: C_3  and  C_18 
REMARK    4  A    between atoms: N_4  and  C_7 
REMARK    5  A    between atoms: C_7  and  C_8 
ROOT
HETATM    1  N   UNL     1      42.060 -15.835   3.519  1.00  0.00    -0.056 N 
HETATM    2  H   UNL     1      41.851 -16.339   2.649  1.00  0.00     0.278 HD
HETATM    3  H   UNL     1      41.227 -15.985   4.099  1.00  0.00     0.278 HD
ENDROOT
BRANCH   1   4
HETATM    4  C   UNL     1      43.215 -16.522   4.193  1.00  0.00     0.292 C 
BRANCH   4   5
HETATM    5  C   UNL     1      43.511 -17.891   3.605  1.00  0.00    -0.020 A 
HETATM    6  C   UNL     1      42.952 -18.246   2.363  1.00  0.00     0.011 A 
HETATM    7  C   UNL     1      43.186 -19.507   1.807  1.00  0.00     0.024 A 
HETATM    8  C   UNL     1      43.978 -20.429   2.484  1.00  0.00     0.034 A 
HETATM    9  C   UNL     1      44.543 -20.099   3.713  1.00  0.00     0.024 A 
HETATM   10 CL   UNL     1      44.264 -21.979   1.800  1.00  0.00    -0.084 Cl
HETATM   11  C   UNL     1      44.312 -18.840   4.273  1.00  0.00     0.011 A 
ENDBRANCH   4   5
BRANCH   4  12
HETATM   12  C   UNL     1      42.949 -16.745   5.656  1.00  0.00     0.190 A 
HETATM   13  N   UNL     1      41.844 -17.335   6.123  1.00  0.00    -0.109 NA
HETATM   14  O   UNL     1      42.065 -17.374   7.504  1.00  0.00    -0.205 OA
HETATM   15  C   UNL     1      43.297 -16.839   7.712  1.00  0.00     0.288 A 
HETATM   16  N   UNL     1      43.905 -16.460   6.610  1.00  0.00    -0.215 NA
ENDBRANCH   4  12
ENDBRANCH   1   4
BRANCH   1  17
HETATM   17  C   UNL     1      42.232 -14.389   3.253  1.00  0.00     0.272 C 
BRANCH  17  18
HETATM   18  C   UNL     1      42.039 -14.097   1.794  1.00  0.00    -0.030 A 
HETATM   19  C   UNL     1      41.719 -15.131   0.900  1.00  0.00     0.048 A 
HETATM   20  C   UNL     1      41.494 -14.853  -0.449  1.00  0.00     0.102 A 
HETATM   21  C   UNL     1      41.608 -13.546  -0.923  1.00  0.00     0.102 A 
HETATM   22  O   UNL     1      41.173 -15.920  -1.246  1.00  0.00    -0.346 OA
HETATM   23  O   UNL     1      41.435 -13.208  -2.239  1.00  0.00    -0.346 OA
HETATM   24  C   UNL     1      41.903 -12.509  -0.042  1.00  0.00     0.040 A 
HETATM   25  C   UNL     1      41.513 -14.361  -3.087  1.00  0.00     0.202 C 
HETATM   26  C   UNL     1      40.674 -15.496  -2.524  1.00  0.00     0.202 C 
HETATM   27  C   UNL     1      42.117 -12.780   1.312  1.00  0.00     0.012 A 
ENDBRANCH  17  18
ENDBRANCH   1  17
TORSDOF 5
ENDMDL
MODEL 4
REMARK VINA RESULT:      -7.6      3.601      5.379
REMARK  5 active torsions:
REMARK  status: ('A' for Active; 'I' for Inactive)
REMARK    1  A    between atoms: C_2  and  C_3 
REMARK    2  A    between atoms: C_3  and  N_4 
REMARK    3  A    between atoms: C_3  and  C_18 
REMARK    4  A    between atoms: N_4  and  C_7 
REMARK    5  A    between atoms: C_7  and  C_8 
ROOT
HETATM    1  N   UNL     1      41.689 -16.292   3.844  1.00  0.00    -0.056 N 
HETATM    2  H   UNL     1      41.436 -16.801   2.989  1.00  0.00     0.278 HD
HETATM    3  H   UNL     1      41.040 -16.657   4.550  1.00  0.00     0.278 HD
ENDROOT
BRANCH   1   4
HETATM    4  C   UNL     1      43.079 -16.707   4.241  1.00  0.00     0.292 C 
BRANCH   4   5
HETATM    5  C   UNL     1      43.480 -18.053   3.665  1.00  0.00    -0.020 A 
HETATM    6  C   UNL     1      42.952 -18.460   2.426  1.00  0.00     0.011 A 
HETATM    7  C   UNL     1      43.283 -19.704   1.880  1.00  0.00     0.024 A 
HETATM    8  C   UNL     1      44.144 -20.556   2.564  1.00  0.00     0.034 A 
HETATM    9  C   UNL     1      44.681 -20.173   3.791  1.00  0.00     0.024 A 
HETATM   10 CL   UNL     1      44.550 -22.084   1.893  1.00  0.00    -0.084 Cl
HETATM   11  C   UNL     1      44.352 -18.931   4.341  1.00  0.00     0.011 A 
ENDBRANCH   4   5
BRANCH   4  12
HETATM   12  C   UNL     1      43.212 -16.835   5.734  1.00  0.00     0.190 A 
HETATM   13  N   UNL     1      44.136 -16.186   6.450  1.00  0.00    -0.109 NA
HETATM   14  O   UNL     1      43.838 -16.561   7.765  1.00  0.00    -0.205 OA
HETATM   15  C   UNL     1      42.742 -17.362   7.698  1.00  0.00     0.288 A 
HETATM   16  N   UNL     1      42.291 -17.545   6.477  1.00  0.00    -0.215 NA
ENDBRANCH   4  12
ENDBRANCH   1   4
BRANCH   1  17
HETATM   17  C   UNL     1      41.472 -14.839   3.668  1.00  0.00     0.272 C 
BRANCH  17  18
HETATM   18  C   UNL     1      41.514 -14.474   2.212  1.00  0.00    -0.030 A 
HETATM   19  C   UNL     1      42.003 -13.221   1.810  1.00  0.00     0.048 A 
HETATM   20  C   UNL     1      42.087 -12.899   0.455  1.00  0.00     0.102 A 
HETATM   21  C   UNL     1      41.664 -13.813  -0.510  1.00  0.00     0.102 A 
HETATM   22  O   UNL     1      42.589 -11.661   0.152  1.00  0.00    -0.346 OA
HETATM   23  O   UNL     1      41.686 -13.549  -1.853  1.00  0.00    -0.346 OA
HETATM   24  C   UNL     1      41.199 -15.067  -0.125  1.00  0.00     0.040 A 
HETATM   25  C   UNL     1      41.815 -12.144  -2.107  1.00  0.00     0.202 C 
HETATM   26  C   UNL     1      42.912 -11.545  -1.241  1.00  0.00     0.202 C 
HETATM   27  C   UNL     1      41.124 -15.400   1.231  1.00  0.00     0.012 A 
ENDBRANCH  17  18
ENDBRANCH   1  17
TORSDOF 5
ENDMDL
MODEL 5
REMARK VINA RESULT:      -7.3      3.013      4.179
REMARK  5 active torsions:
REMARK  status: ('A' for Active; 'I' for Inactive)
REMARK    1  A    between atoms: C_2  and  C_3 
REMARK    2  A    between atoms: C_3  and  N_4 
REMARK    3  A    between atoms: C_3  and  C_18 
REMARK    4  A    between atoms: N_4  and  C_7 
REMARK    5  A    between atoms: C_7  and  C_8 
ROOT
HETATM    1  N   UNL     1      42.495 -15.960   3.413  1.00  0.00    -0.056 N 
HETATM    2  H   UNL     1      42.449 -16.358   2.467  1.00  0.00     0.278 HD
HETATM    3  H   UNL     1      41.590 -16.206   3.829  1.00  0.00     0.278 HD
ENDROOT
BRANCH   1   4
HETATM    4  C   UNL     1      43.564 -16.691   4.176  1.00  0.00     0.292 C 
BRANCH   4   5
HETATM    5  C   UNL     1      43.821 -18.089   3.641  1.00  0.00    -0.020 A 
HETATM    6  C   UNL     1      43.296 -18.456   2.388  1.00  0.00     0.011 A 
HETATM    7  C   UNL     1      43.493 -19.744   1.879  1.00  0.00     0.024 A 
HETATM    8  C   UNL     1      44.216 -20.678   2.614  1.00  0.00     0.034 A 
HETATM    9  C   UNL     1      44.747 -20.336   3.855  1.00  0.00     0.024 A 
HETATM   10 CL   UNL     1      44.458 -22.259   1.988  1.00  0.00    -0.084 Cl
HETATM   11  C   UNL     1      44.551 -19.051   4.369  1.00  0.00     0.011 A 
ENDBRANCH   4   5
BRANCH   4  12
HETATM   12  C   UNL     1      43.192 -16.859   5.624  1.00  0.00     0.190 A 
HETATM   13  N   UNL     1      42.041 -17.406   6.031  1.00  0.00    -0.109 NA
HETATM   14  O   UNL     1      42.166 -17.406   7.424  1.00  0.00    -0.205 OA
HETATM   15  C   UNL     1      43.396 -16.897   7.700  1.00  0.00     0.288 A 
HETATM   16  N   UNL     1      44.088 -16.570   6.633  1.00  0.00    -0.215 NA
ENDBRANCH   4  12
ENDBRANCH   1   4
BRANCH   1  17
HETATM   17  C   UNL     1      42.634 -14.488   3.351  1.00  0.00     0.272 C 
BRANCH  17  18
HETATM   18  C   UNL     1      41.711 -13.831   4.335  1.00  0.00    -0.030 A 
HETATM   19  C   UNL     1      42.034 -12.581   4.884  1.00  0.00     0.048 A 
HETATM   20  C   UNL     1      41.154 -11.948   5.764  1.00  0.00     0.102 A 
HETATM   21  C   UNL     1      39.956 -12.565   6.121  1.00  0.00     0.102 A 
HETATM   22  O   UNL     1      41.543 -10.724   6.240  1.00  0.00    -0.346 OA
HETATM   23  O   UNL     1      39.064 -12.018   7.004  1.00  0.00    -0.346 OA
HETATM   24  C   UNL     1      39.614 -13.795   5.566  1.00  0.00     0.040 A 
HETATM   25  C   UNL     1      39.671 -10.975   7.779  1.00  0.00     0.202 C 
HETATM   26  C   UNL     1      40.460 -10.035   6.882  1.00  0.00     0.202 C 
HETATM   27  C   UNL     1      40.485 -14.428   4.675  1.00  0.00     0.012 A 
ENDBRANCH  17  18
ENDBRANCH   1  17
TORSDOF 5
ENDMDL
MODEL 6
REMARK VINA RESULT:      -7.3      3.424      7.149
REMARK  5 active torsions:
REMARK  status: ('A' for Active; 'I' for Inactive)
REMARK    1  A    between atoms: C_2  and  C_3 
REMARK    2  A    between atoms: C_3  and  N_4 
REMARK    3  A    between atoms: C_3  and  C_18 
REMARK    4  A    between atoms: N_4  and  C_7 
REMARK    5  A    between atoms: C_7  and  C_8 
ROOT
HETATM    1  N   UNL     1      41.838 -16.928   1.343  1.00  0.00    -0.056 N 
HETATM    2  H   UNL     1      41.428 -17.382   2.168  1.00  0.00     0.278 HD
HETATM    3  H   UNL     1      41.187 -17.160   0.584  1.00  0.00     0.278 HD
ENDROOT
BRANCH   1   4
HETATM    4  C   UNL     1      41.784 -15.440   1.553  1.00  0.00     0.292 C 
BRANCH   4   5
HETATM    5  C   UNL     1      42.332 -15.015   2.904  1.00  0.00    -0.020 A 
HETATM    6  C   UNL     1      41.679 -15.433   4.078  1.00  0.00     0.011 A 
HETATM    7  C   UNL     1      42.145 -15.038   5.336  1.00  0.00     0.024 A 
HETATM    8  C   UNL     1      43.266 -14.221   5.436  1.00  0.00     0.034 A 
HETATM    9  C   UNL     1      43.929 -13.796   4.288  1.00  0.00     0.024 A 
HETATM   10 CL   UNL     1      43.836 -13.735   6.982  1.00  0.00    -0.084 Cl
HETATM   11  C   UNL     1      43.467 -14.187   3.029  1.00  0.00     0.011 A 
ENDBRANCH   4   5
BRANCH   4  12
HETATM   12  C   UNL     1      40.373 -14.924   1.492  1.00  0.00     0.190 A 
HETATM   13  N   UNL     1      39.299 -15.683   1.738  1.00  0.00    -0.109 NA
HETATM   14  O   UNL     1      38.239 -14.777   1.625  1.00  0.00    -0.205 OA
HETATM   15  C   UNL     1      38.795 -13.564   1.364  1.00  0.00     0.288 A 
HETATM   16  N   UNL     1      40.107 -13.584   1.300  1.00  0.00    -0.215 NA
ENDBRANCH   4  12
ENDBRANCH   1   4
BRANCH   1  17
HETATM   17  C   UNL     1      43.173 -17.494   1.048  1.00  0.00     0.272 C 
BRANCH  17  18
HETATM   18  C   UNL     1      43.593 -18.442   2.132  1.00  0.00    -0.030 A 
HETATM   19  C   UNL     1      43.672 -19.820   1.877  1.00  0.00     0.048 A 
HETATM   20  C   UNL     1      44.108 -20.698   2.871  1.00  0.00     0.102 A 
HETATM   21  C   UNL     1      44.447 -20.213   4.134  1.00  0.00     0.102 A 
HETATM   22  O   UNL     1      44.167 -22.023   2.531  1.00  0.00    -0.346 OA
HETATM   23  O   UNL     1      44.848 -21.020   5.165  1.00  0.00    -0.346 OA
HETATM   24  C   UNL     1      44.395 -18.846   4.392  1.00  0.00     0.040 A 
HETATM   25  C   UNL     1      44.509 -22.390   4.916  1.00  0.00     0.202 C 
HETATM   26  C   UNL     1      44.899 -22.788   3.501  1.00  0.00     0.202 C 
HETATM   27  C   UNL     1      43.971 -17.961   3.397  1.00  0.00     0.012 A 
ENDBRANCH  17  18
ENDBRANCH   1  17
TORSDOF 5
ENDMDL
MODEL 7
REMARK VINA RESULT:      -7.3      3.246      6.859
REMARK  5 active torsions:
REMARK  status: ('A' for Active; 'I' for Inactive)
REMARK    1  A    between atoms: C_2  and  C_3 
REMARK    2  A    between atoms: C_3  and  N_4 
REMARK    3  A    between atoms: C_3  and  C_18 
REMARK    4  A    between atoms: N_4  and  C_7 
REMARK    5  A    between atoms: C_7  and  C_8 
ROOT
HETATM    1  N   UNL     1      40.940 -15.128   6.230  1.00  0.00    -0.056 N 
HETATM    2  H   UNL     1      41.896 -15.003   5.875  1.00  0.00     0.278 HD
HETATM    3  H   UNL     1      40.947 -14.645   7.135  1.00  0.00     0.278 HD
ENDROOT
BRANCH   1   4
HETATM    4  C   UNL     1      40.002 -14.382   5.321  1.00  0.00     0.292 C 
BRANCH   4   5
HETATM    5  C   UNL     1      40.459 -14.383   3.873  1.00  0.00    -0.020 A 
HETATM    6  C   UNL     1      39.503 -14.487   2.846  1.00  0.00     0.011 A 
HETATM    7  C   UNL     1      39.894 -14.516   1.503  1.00  0.00     0.024 A 
HETATM    8  C   UNL     1      41.243 -14.441   1.171  1.00  0.00     0.034 A 
HETATM    9  C   UNL     1      42.207 -14.335   2.170  1.00  0.00     0.024 A 
HETATM   10 CL   UNL     1      41.722 -14.476  -0.478  1.00  0.00    -0.084 Cl
HETATM   11  C   UNL     1      41.821 -14.308   3.513  1.00  0.00     0.011 A 
ENDBRANCH   4   5
BRANCH   4  12
HETATM   12  C   UNL     1      39.878 -12.938   5.719  1.00  0.00     0.190 A 
HETATM   13  N   UNL     1      38.725 -12.261   5.689  1.00  0.00    -0.109 NA
HETATM   14  O   UNL     1      39.082 -11.005   6.193  1.00  0.00    -0.205 OA
HETATM   15  C   UNL     1      40.402 -11.078   6.509  1.00  0.00     0.288 A 
HETATM   16  N   UNL     1      40.942 -12.252   6.269  1.00  0.00    -0.215 NA
ENDBRANCH   4  12
ENDBRANCH   1   4
BRANCH   1  17
HETATM   17  C   UNL     1      40.644 -16.564   6.430  1.00  0.00     0.272 C 
BRANCH  17  18
HETATM   18  C   UNL     1      41.780 -17.409   5.933  1.00  0.00    -0.030 A 
HETATM   19  C   UNL     1      41.798 -17.861   4.605  1.00  0.00     0.048 A 
HETATM   20  C   UNL     1      42.877 -18.608   4.128  1.00  0.00     0.102 A 
HETATM   21  C   UNL     1      43.936 -18.929   4.977  1.00  0.00     0.102 A 
HETATM   22  O   UNL     1      42.818 -18.995   2.816  1.00  0.00    -0.346 OA
HETATM   23  O   UNL     1      45.007 -19.687   4.586  1.00  0.00    -0.346 OA
HETATM   24  C   UNL     1      43.940 -18.468   6.291  1.00  0.00     0.040 A 
HETATM   25  C   UNL     1      44.726 -20.404   3.378  1.00  0.00     0.202 C 
HETATM   26  C   UNL     1      44.085 -19.485   2.350  1.00  0.00     0.202 C 
HETATM   27  C   UNL     1      42.868 -17.709   6.770  1.00  0.00     0.012 A 
ENDBRANCH  17  18
ENDBRANCH   1  17
TORSDOF 5
ENDMDL
MODEL 8
REMARK VINA RESULT:      -7.3      3.959      5.815
REMARK  5 active torsions:
REMARK  status: ('A' for Active; 'I' for Inactive)
REMARK    1  A    between atoms: C_2  and  C_3 
REMARK    2  A    between atoms: C_3  and  N_4 
REMARK    3  A    between atoms: C_3  and  C_18 
REMARK    4  A    between atoms: N_4  and  C_7 
REMARK    5  A    between atoms: C_7  and  C_8 
ROOT
HETATM    1  N   UNL     1      42.135 -17.426   2.073  1.00  0.00    -0.056 N 
HETATM    2  H   UNL     1      42.255 -18.379   1.710  1.00  0.00     0.278 HD
HETATM    3  H   UNL     1      41.189 -17.429   2.470  1.00  0.00     0.278 HD
ENDROOT
BRANCH   1   4
HETATM    4  C   UNL     1      43.106 -17.230   3.204  1.00  0.00     0.292 C 
BRANCH   4   5
HETATM    5  C   UNL     1      43.705 -18.534   3.700  1.00  0.00    -0.020 A 
HETATM    6  C   UNL     1      43.878 -19.602   2.800  1.00  0.00     0.011 A 
HETATM    7  C   UNL     1      44.404 -20.824   3.232  1.00  0.00     0.024 A 
HETATM    8  C   UNL     1      44.761 -20.994   4.566  1.00  0.00     0.034 A 
HETATM    9  C   UNL     1      44.601 -19.950   5.474  1.00  0.00     0.024 A 
HETATM   10 CL   UNL     1      45.406 -22.496   5.095  1.00  0.00    -0.084 Cl
HETATM   11  C   UNL     1      44.074 -18.728   5.047  1.00  0.00     0.011 A 
ENDBRANCH   4   5
BRANCH   4  12
HETATM   12  C   UNL     1      42.445 -16.593   4.396  1.00  0.00     0.190 A 
HETATM   13  N   UNL     1      42.900 -15.482   4.985  1.00  0.00    -0.109 NA
HETATM   14  O   UNL     1      41.950 -15.241   5.983  1.00  0.00    -0.205 OA
HETATM   15  C   UNL     1      41.006 -16.212   5.858  1.00  0.00     0.288 A 
HETATM   16  N   UNL     1      41.239 -17.057   4.879  1.00  0.00    -0.215 NA
ENDBRANCH   4  12
ENDBRANCH   1   4
BRANCH   1  17
HETATM   17  C   UNL     1      42.213 -16.438   0.973  1.00  0.00     0.272 C 
BRANCH  17  18
HETATM   18  C   UNL     1      40.949 -15.633   0.900  1.00  0.00    -0.030 A 
HETATM   19  C   UNL     1      40.710 -14.786  -0.193  1.00  0.00     0.048 A 
HETATM   20  C   UNL     1      39.514 -14.072  -0.286  1.00  0.00     0.102 A 
HETATM   21  C   UNL     1      38.555 -14.179   0.722  1.00  0.00     0.102 A 
HETATM   22  O   UNL     1      39.360 -13.281  -1.393  1.00  0.00    -0.346 OA
HETATM   23  O   UNL     1      37.377 -13.481   0.713  1.00  0.00    -0.346 OA
HETATM   24  C   UNL     1      38.771 -15.033   1.800  1.00  0.00     0.040 A 
HETATM   25  C   UNL     1      37.427 -12.385  -0.210  1.00  0.00     0.202 C 
HETATM   26  C   UNL     1      38.004 -12.836  -1.543  1.00  0.00     0.202 C 
HETATM   27  C   UNL     1      39.961 -15.759   1.891  1.00  0.00     0.012 A 
ENDBRANCH  17  18
ENDBRANCH   1  17
TORSDOF 5
ENDMDL
MODEL 9
REMARK VINA RESULT:      -7.2      4.047      6.193
REMARK  5 active torsions:
REMARK  status: ('A' for Active; 'I' for Inactive)
REMARK    1  A    between atoms: C_2  and  C_3 
REMARK    2  A    between atoms: C_3  and  N_4 
REMARK    3  A    between atoms: C_3  and  C_18 
REMARK    4  A    between atoms: N_4  and  C_7 
REMARK    5  A    between atoms: C_7  and  C_8 
ROOT
HETATM    1  N   UNL     1      42.643 -16.330   2.207  1.00  0.00    -0.056 N 
HETATM    2  H   UNL     1      43.253 -16.438   1.388  1.00  0.00     0.278 HD
HETATM    3  H   UNL     1      41.857 -16.961   2.015  1.00  0.00     0.278 HD
ENDROOT
BRANCH   1   4
HETATM    4  C   UNL     1      43.375 -16.862   3.408  1.00  0.00     0.292 C 
BRANCH   4   5
HETATM    5  C   UNL     1      43.693 -18.343   3.297  1.00  0.00    -0.020 A 
HETATM    6  C   UNL     1      44.335 -18.995   4.366  1.00  0.00     0.011 A 
HETATM    7  C   UNL     1      44.663 -20.351   4.284  1.00  0.00     0.024 A 
HETATM    8  C   UNL     1      44.356 -21.072   3.134  1.00  0.00     0.034 A 
HETATM    9  C   UNL     1      43.719 -20.449   2.065  1.00  0.00     0.024 A 
HETATM   10 CL   UNL     1      44.760 -22.739   3.034  1.00  0.00    -0.084 Cl
HETATM   11  C   UNL     1      43.390 -19.092   2.142  1.00  0.00     0.011 A 
ENDBRANCH   4   5
BRANCH   4  12
HETATM   12  C   UNL     1      42.564 -16.702   4.664  1.00  0.00     0.190 A 
HETATM   13  N   UNL     1      42.936 -15.927   5.689  1.00  0.00    -0.109 NA
HETATM   14  O   UNL     1      41.864 -16.043   6.580  1.00  0.00    -0.205 OA
HETATM   15  C   UNL     1      40.946 -16.844   5.976  1.00  0.00     0.288 A 
HETATM   16  N   UNL     1      41.306 -17.257   4.781  1.00  0.00    -0.215 NA
ENDBRANCH   4  12
ENDBRANCH   1   4
BRANCH   1  17
HETATM   17  C   UNL     1      42.155 -14.937   2.310  1.00  0.00     0.272 C 
BRANCH  17  18
HETATM   18  C   UNL     1      41.401 -14.552   1.070  1.00  0.00    -0.030 A 
HETATM   19  C   UNL     1      41.544 -15.302  -0.108  1.00  0.00     0.048 A 
HETATM   20  C   UNL     1      40.809 -14.972  -1.247  1.00  0.00     0.102 A 
HETATM   21  C   UNL     1      39.942 -13.880  -1.230  1.00  0.00     0.102 A 
HETATM   22  O   UNL     1      41.000 -15.767  -2.347  1.00  0.00    -0.346 OA
HETATM   23  O   UNL     1      39.218 -13.480  -2.321  1.00  0.00    -0.346 OA
HETATM   24  C   UNL     1      39.775 -13.142  -0.061  1.00  0.00     0.040 A 
HETATM   25  C   UNL     1      39.736 -14.051  -3.529  1.00  0.00     0.202 C 
HETATM   26  C   UNL     1      39.996 -15.538  -3.348  1.00  0.00     0.202 C 
HETATM   27  C   UNL     1      40.500 -13.475   1.086  1.00  0.00     0.012 A 
ENDBRANCH  17  18
ENDBRANCH   1  17
TORSDOF 5
ENDMDL
MODEL 10
REMARK VINA RESULT:      -7.2      3.741      6.876
REMARK  5 active torsions:
REMARK  status: ('A' for Active; 'I' for Inactive)
REMARK    1  A    between atoms: C_2  and  C_3 
REMARK    2  A    between atoms: C_3  and  N_4 
REMARK    3  A    between atoms: C_3  and  C_18 
REMARK    4  A    between atoms: N_4  and  C_7 
REMARK    5  A    between atoms: C_7  and  C_8 
ROOT
HETATM    1  N   UNL     1      42.347 -17.016   0.959  1.00  0.00    -0.056 N 
HETATM    2  H   UNL     1      41.729 -17.304   1.727  1.00  0.00     0.278 HD
HETATM    3  H   UNL     1      41.828 -17.276   0.113  1.00  0.00     0.278 HD
ENDROOT
BRANCH   1   4
HETATM    4  C   UNL     1      42.458 -15.517   0.985  1.00  0.00     0.292 C 
BRANCH   4   5
HETATM    5  C   UNL     1      41.911 -14.907   2.264  1.00  0.00    -0.020 A 
HETATM    6  C   UNL     1      40.595 -15.203   2.663  1.00  0.00     0.011 A 
HETATM    7  C   UNL     1      40.055 -14.638   3.823  1.00  0.00     0.024 A 
HETATM    8  C   UNL     1      40.821 -13.770   4.595  1.00  0.00     0.034 A 
HETATM    9  C   UNL     1      42.127 -13.465   4.220  1.00  0.00     0.024 A 
HETATM   10 CL   UNL     1      40.156 -13.076   6.019  1.00  0.00    -0.084 Cl
HETATM   11  C   UNL     1      42.670 -14.026   3.061  1.00  0.00     0.011 A 
ENDBRANCH   4   5
BRANCH   4  12
HETATM   12  C   UNL     1      41.687 -14.886  -0.142  1.00  0.00     0.190 A 
HETATM   13  N   UNL     1      40.922 -15.580  -0.991  1.00  0.00    -0.109 NA
HETATM   14  O   UNL     1      40.371 -14.586  -1.806  1.00  0.00    -0.205 OA
HETATM   15  C   UNL     1      40.833 -13.399  -1.332  1.00  0.00     0.288 A 
HETATM   16  N   UNL     1      41.624 -13.515  -0.289  1.00  0.00    -0.215 NA
ENDBRANCH   4  12
ENDBRANCH   1   4
BRANCH   1  17
HETATM   17  C   UNL     1      43.624 -17.762   1.012  1.00  0.00     0.272 C 
BRANCH  17  18
HETATM   18  C   UNL     1      43.803 -18.403   2.357  1.00  0.00    -0.030 A 
HETATM   19  C   UNL     1      44.114 -19.768   2.455  1.00  0.00     0.048 A 
HETATM   20  C   UNL     1      44.327 -20.355   3.704  1.00  0.00     0.102 A 
HETATM   21  C   UNL     1      44.210 -19.592   4.866  1.00  0.00     0.102 A 
HETATM   22  O   UNL     1      44.639 -21.688   3.705  1.00  0.00    -0.346 OA
HETATM   23  O   UNL     1      44.370 -20.110   6.122  1.00  0.00    -0.346 OA
HETATM   24  C   UNL     1      43.924 -18.232   4.779  1.00  0.00     0.040 A 
HETATM   25  C   UNL     1      44.283 -21.541   6.112  1.00  0.00     0.202 C 
HETATM   26  C   UNL     1      45.126 -22.118   4.986  1.00  0.00     0.202 C 
HETATM   27  C   UNL     1      43.722 -17.637   3.531  1.00  0.00     0.012 A 
ENDBRANCH  17  18
ENDBRANCH   1  17
TORSDOF 5
ENDMDL
