MODEL 1
REMARK VINA RESULT:      -9.3      0.000      0.000
REMARK  5 active torsions:
REMARK  status: ('A' for Active; 'I' for Inactive)
REMARK    1  A    between atoms: C_2  and  C_3 
REMARK    2  A    between atoms: C_8  and  C_9 
REMARK       I    between atoms: C_9  and  N_10 
REMARK    3  A    between atoms: N_10  and  C_11 
REMARK    4  A    between atoms: C_11  and  C_12 
REMARK    5  A    between atoms: C_19  and  C_20 
ROOT
HETATM    1  C   UNL     1      41.820 -17.301   4.895  1.00  0.00     0.118 C 
HETATM    2  N   UNL     1      42.516 -16.945   6.126  1.00  0.00    -0.366 N 
HETATM    3  C   UNL     1      43.269 -15.827   6.222  1.00  0.00     0.123 A 
HETATM    4  N   UNL     1      43.326 -14.910   5.207  1.00  0.00    -0.240 N 
HETATM    5  N   UNL     1      44.181 -13.901   5.442  1.00  0.00    -0.165 NA
HETATM    6  C   UNL     1      44.620 -14.134   6.699  1.00  0.00     0.148 A 
HETATM    7  C   UNL     1      44.085 -15.347   7.212  1.00  0.00     0.088 A 
HETATM    8  C   UNL     1      42.652 -15.079   3.932  1.00  0.00     0.221 C 
HETATM    9  C   UNL     1      41.460 -16.042   4.093  1.00  0.00     0.066 C 
HETATM   10  H   UNL     1      42.590 -17.686   6.823  1.00  0.00     0.161 HD
ENDROOT
BRANCH   6  11
HETATM   11  C   UNL     1      45.528 -13.208   7.395  1.00  0.00     0.272 C 
HETATM   12  N   UNL     1      45.048 -12.787   8.614  1.00  0.00    -0.353 N 
HETATM   13  H   UNL     1      44.085 -13.038   8.822  1.00  0.00     0.162 HD
HETATM   14  O   UNL     1      46.612 -12.860   6.935  1.00  0.00    -0.266 OA
BRANCH  12  15
HETATM   15  C   UNL     1      45.752 -11.855   9.468  1.00  0.00     0.155 C 
BRANCH  15  16
HETATM   16  C   UNL     1      44.886 -10.663   9.879  1.00  0.00     0.139 C 
HETATM   17  O   UNL     1      43.680 -10.613   9.089  1.00  0.00    -0.384 OA
HETATM   18  C   UNL     1      42.612 -10.138   9.922  1.00  0.00     0.168 C 
HETATM   19  C   UNL     1      43.190  -9.875  11.298  1.00  0.00     0.029 C 
HETATM   20  C   UNL     1      44.413 -10.756  11.319  1.00  0.00     0.035 C 
ENDBRANCH  15  16
ENDBRANCH  12  15
ENDBRANCH   6  11
BRANCH   8  21
HETATM   21  C   UNL     1      42.165 -13.764   3.363  1.00  0.00     0.409 C 
HETATM   22  F   UNL     1      43.099 -13.109   2.642  1.00  0.00    -0.169 F 
HETATM   23  F   UNL     1      41.127 -13.994   2.512  1.00  0.00    -0.169 F 
HETATM   24  F   UNL     1      41.698 -12.927   4.318  1.00  0.00    -0.169 F 
ENDBRANCH   8  21
BRANCH   1  25
HETATM   25  C   UNL     1      42.578 -18.337   4.077  1.00  0.00    -0.034 A 
HETATM   26  C   UNL     1      42.446 -18.461   2.685  1.00  0.00     0.011 A 
HETATM   27  C   UNL     1      43.170 -19.428   1.979  1.00  0.00     0.026 A 
HETATM   28  C   UNL     1      44.037 -20.292   2.650  1.00  0.00     0.055 A 
HETATM   29  C   UNL     1      44.175 -20.191   4.036  1.00  0.00     0.056 A 
HETATM   30 CL   UNL     1      44.904 -21.454   1.712  1.00  0.00    -0.083 Cl
HETATM   31  C   UNL     1      43.448 -19.222   4.740  1.00  0.00     0.034 A 
HETATM   32 CL   UNL     1      45.224 -21.221   4.943  1.00  0.00    -0.083 Cl
ENDBRANCH   1  25
TORSDOF 5
ENDMDL
MODEL 2
REMARK VINA RESULT:      -8.5      4.947      8.102
REMARK  5 active torsions:
REMARK  status: ('A' for Active; 'I' for Inactive)
REMARK    1  A    between atoms: C_2  and  C_3 
REMARK    2  A    between atoms: C_8  and  C_9 
REMARK       I    between atoms: C_9  and  N_10 
REMARK    3  A    between atoms: N_10  and  C_11 
REMARK    4  A    between atoms: C_11  and  C_12 
REMARK    5  A    between atoms: C_19  and  C_20 
ROOT
HETATM    1  C   UNL     1      43.812 -16.655   3.578  1.00  0.00     0.118 C 
HETATM    2  N   UNL     1      43.330 -15.966   2.387  1.00  0.00    -0.366 N 
HETATM    3  C   UNL     1      42.027 -15.646   2.227  1.00  0.00     0.123 A 
HETATM    4  N   UNL     1      41.110 -15.845   3.224  1.00  0.00    -0.240 N 
HETATM    5  N   UNL     1      39.852 -15.541   2.865  1.00  0.00    -0.165 NA
HETATM    6  C   UNL     1      39.983 -15.039   1.617  1.00  0.00     0.148 A 
HETATM    7  C   UNL     1      41.331 -15.109   1.176  1.00  0.00     0.088 A 
HETATM    8  C   UNL     1      41.429 -16.470   4.495  1.00  0.00     0.221 C 
HETATM    9  C   UNL     1      42.934 -16.318   4.791  1.00  0.00     0.066 C 
HETATM   10  H   UNL     1      43.973 -15.946   1.595  1.00  0.00     0.161 HD
ENDROOT
BRANCH   6  11
HETATM   11  C   UNL     1      38.837 -14.496   0.868  1.00  0.00     0.272 C 
HETATM   12  N   UNL     1      39.134 -14.200  -0.442  1.00  0.00    -0.353 N 
HETATM   13  H   UNL     1      40.118 -14.246  -0.696  1.00  0.00     0.162 HD
HETATM   14  O   UNL     1      37.725 -14.340   1.365  1.00  0.00    -0.266 OA
BRANCH  12  15
HETATM   15  C   UNL     1      38.177 -13.632  -1.366  1.00  0.00     0.155 C 
BRANCH  15  16
HETATM   16  C   UNL     1      38.432 -14.056  -2.814  1.00  0.00     0.139 C 
HETATM   17  O   UNL     1      39.754 -14.617  -2.955  1.00  0.00    -0.384 OA
HETATM   18  C   UNL     1      39.695 -15.677  -3.921  1.00  0.00     0.168 C 
HETATM   19  C   UNL     1      38.262 -15.772  -4.407  1.00  0.00     0.029 C 
HETATM   20  C   UNL     1      37.486 -15.151  -3.275  1.00  0.00     0.035 C 
ENDBRANCH  15  16
ENDBRANCH  12  15
ENDBRANCH   6  11
BRANCH   8  21
HETATM   21  C   UNL     1      40.628 -15.883   5.638  1.00  0.00     0.409 C 
HETATM   22  F   UNL     1      39.894 -16.796   6.307  1.00  0.00    -0.169 F 
HETATM   23  F   UNL     1      41.475 -15.338   6.553  1.00  0.00    -0.169 F 
HETATM   24  F   UNL     1      39.807 -14.887   5.237  1.00  0.00    -0.169 F 
ENDBRANCH   8  21
BRANCH   1  25
HETATM   25  C   UNL     1      43.982 -18.151   3.357  1.00  0.00    -0.034 A 
HETATM   26  C   UNL     1      43.926 -18.750   2.089  1.00  0.00     0.011 A 
HETATM   27  C   UNL     1      44.093 -20.131   1.940  1.00  0.00     0.026 A 
HETATM   28  C   UNL     1      44.315 -20.941   3.055  1.00  0.00     0.055 A 
HETATM   29  C   UNL     1      44.365 -20.365   4.326  1.00  0.00     0.056 A 
HETATM   30 CL   UNL     1      44.522 -22.635   2.793  1.00  0.00    -0.083 Cl
HETATM   31  C   UNL     1      44.196 -18.982   4.472  1.00  0.00     0.034 A 
HETATM   32 CL   UNL     1      44.634 -21.295   5.757  1.00  0.00    -0.083 Cl
ENDBRANCH   1  25
TORSDOF 5
ENDMDL
MODEL 3
REMARK VINA RESULT:      -8.4      5.411      8.434
REMARK  5 active torsions:
REMARK  status: ('A' for Active; 'I' for Inactive)
REMARK    1  A    between atoms: C_2  and  C_3 
REMARK    2  A    between atoms: C_8  and  C_9 
REMARK       I    between atoms: C_9  and  N_10 
REMARK    3  A    between atoms: N_10  and  C_11 
REMARK    4  A    between atoms: C_11  and  C_12 
REMARK    5  A    between atoms: C_19  and  C_20 
ROOT
HETATM    1  C   UNL     1      41.649 -16.982   4.714  1.00  0.00     0.118 C 
HETATM    2  N   UNL     1      40.653 -16.268   3.923  1.00  0.00    -0.366 N 
HETATM    3  C   UNL     1      40.828 -16.028   2.604  1.00  0.00     0.123 A 
HETATM    4  N   UNL     1      41.894 -16.543   1.916  1.00  0.00    -0.240 N 
HETATM    5  N   UNL     1      41.951 -16.141   0.636  1.00  0.00    -0.165 NA
HETATM    6  C   UNL     1      40.823 -15.414   0.473  1.00  0.00     0.148 A 
HETATM    7  C   UNL     1      40.105 -15.304   1.694  1.00  0.00     0.088 A 
HETATM    8  C   UNL     1      42.952 -17.321   2.536  1.00  0.00     0.221 C 
HETATM    9  C   UNL     1      42.433 -17.967   3.836  1.00  0.00     0.066 C 
HETATM   10  H   UNL     1      39.940 -15.769   4.454  1.00  0.00     0.161 HD
ENDROOT
BRANCH   6  11
HETATM   11  C   UNL     1      40.440 -14.843  -0.829  1.00  0.00     0.272 C 
HETATM   12  N   UNL     1      41.394 -15.025  -1.804  1.00  0.00    -0.353 N 
HETATM   13  H   UNL     1      42.289 -15.389  -1.488  1.00  0.00     0.162 HD
HETATM   14  O   UNL     1      39.370 -14.275  -1.023  1.00  0.00    -0.266 OA
BRANCH  12  15
HETATM   15  C   UNL     1      41.254 -14.529  -3.156  1.00  0.00     0.155 C 
BRANCH  15  16
HETATM   16  C   UNL     1      41.789 -13.105  -3.319  1.00  0.00     0.139 C 
HETATM   17  O   UNL     1      40.737 -12.139  -3.108  1.00  0.00    -0.384 OA
HETATM   18  C   UNL     1      41.302 -10.989  -2.460  1.00  0.00     0.168 C 
HETATM   19  C   UNL     1      42.781 -11.256  -2.266  1.00  0.00     0.029 C 
HETATM   20  C   UNL     1      42.854 -12.761  -2.293  1.00  0.00     0.035 C 
ENDBRANCH  15  16
ENDBRANCH  12  15
ENDBRANCH   6  11
BRANCH   8  21
HETATM   21  C   UNL     1      43.485 -18.397   1.615  1.00  0.00     0.409 C 
HETATM   22  F   UNL     1      43.920 -17.926   0.429  1.00  0.00    -0.169 F 
HETATM   23  F   UNL     1      44.559 -19.000   2.196  1.00  0.00    -0.169 F 
HETATM   24  F   UNL     1      42.580 -19.374   1.381  1.00  0.00    -0.169 F 
ENDBRANCH   8  21
BRANCH   1  25
HETATM   25  C   UNL     1      42.543 -16.041   5.509  1.00  0.00    -0.034 A 
HETATM   26  C   UNL     1      43.743 -16.451   6.112  1.00  0.00     0.011 A 
HETATM   27  C   UNL     1      44.532 -15.545   6.828  1.00  0.00     0.026 A 
HETATM   28  C   UNL     1      44.137 -14.213   6.959  1.00  0.00     0.055 A 
HETATM   29  C   UNL     1      42.942 -13.787   6.374  1.00  0.00     0.056 A 
HETATM   30 CL   UNL     1      45.166 -13.150   7.849  1.00  0.00    -0.083 Cl
HETATM   31  C   UNL     1      42.153 -14.698   5.659  1.00  0.00     0.034 A 
HETATM   32 CL   UNL     1      42.380 -12.158   6.490  1.00  0.00    -0.083 Cl
ENDBRANCH   1  25
TORSDOF 5
ENDMDL
MODEL 4
REMARK VINA RESULT:      -8.4      2.285      2.905
REMARK  5 active torsions:
REMARK  status: ('A' for Active; 'I' for Inactive)
REMARK    1  A    between atoms: C_2  and  C_3 
REMARK    2  A    between atoms: C_8  and  C_9 
REMARK       I    between atoms: C_9  and  N_10 
REMARK    3  A    between atoms: N_10  and  C_11 
REMARK    4  A    between atoms: C_11  and  C_12 
REMARK    5  A    between atoms: C_19  and  C_20 
ROOT
HETATM    1  C   UNL     1      40.523 -16.450   2.732  1.00  0.00     0.118 C 
HETATM    2  N   UNL     1      40.240 -15.774   3.993  1.00  0.00    -0.366 N 
HETATM    3  C   UNL     1      40.710 -14.536   4.259  1.00  0.00     0.123 A 
HETATM    4  N   UNL     1      41.377 -13.802   3.316  1.00  0.00    -0.240 N 
HETATM    5  N   UNL     1      41.838 -12.627   3.776  1.00  0.00    -0.165 NA
HETATM    6  C   UNL     1      41.365 -12.566   5.041  1.00  0.00     0.148 A 
HETATM    7  C   UNL     1      40.671 -13.756   5.386  1.00  0.00     0.088 A 
HETATM    8  C   UNL     1      41.698 -14.299   1.990  1.00  0.00     0.221 C 
HETATM    9  C   UNL     1      40.722 -15.428   1.604  1.00  0.00     0.066 C 
HETATM   10  H   UNL     1      39.871 -16.364   4.739  1.00  0.00     0.161 HD
ENDROOT
BRANCH   6  11
HETATM   11  C   UNL     1      41.571 -11.386   5.898  1.00  0.00     0.272 C 
HETATM   12  N   UNL     1      41.971 -11.703   7.175  1.00  0.00    -0.353 N 
HETATM   13  H   UNL     1      41.936 -12.690   7.419  1.00  0.00     0.162 HD
HETATM   14  O   UNL     1      41.413 -10.235   5.501  1.00  0.00    -0.266 OA
BRANCH  12  15
HETATM   15  C   UNL     1      42.210 -10.714   8.203  1.00  0.00     0.155 C 
BRANCH  15  16
HETATM   16  C   UNL     1      43.144 -11.221   9.304  1.00  0.00     0.139 C 
HETATM   17  O   UNL     1      44.521 -11.136   8.882  1.00  0.00    -0.384 OA
HETATM   18  C   UNL     1      45.323 -10.797  10.023  1.00  0.00     0.168 C 
HETATM   19  C   UNL     1      44.394 -10.672  11.214  1.00  0.00     0.029 C 
HETATM   20  C   UNL     1      43.063 -10.382  10.567  1.00  0.00     0.035 C 
ENDBRANCH  15  16
ENDBRANCH  12  15
ENDBRANCH   6  11
BRANCH   8  21
HETATM   21  C   UNL     1      41.649 -13.208   0.942  1.00  0.00     0.409 C 
HETATM   22  F   UNL     1      42.625 -12.286   1.076  1.00  0.00    -0.169 F 
HETATM   23  F   UNL     1      41.817 -13.756  -0.293  1.00  0.00    -0.169 F 
HETATM   24  F   UNL     1      40.458 -12.568   0.916  1.00  0.00    -0.169 F 
ENDBRANCH   8  21
BRANCH   1  25
HETATM   25  C   UNL     1      41.667 -17.446   2.849  1.00  0.00    -0.034 A 
HETATM   26  C   UNL     1      42.304 -18.015   1.735  1.00  0.00     0.011 A 
HETATM   27  C   UNL     1      43.356 -18.923   1.898  1.00  0.00     0.026 A 
HETATM   28  C   UNL     1      43.789 -19.283   3.175  1.00  0.00     0.055 A 
HETATM   29  C   UNL     1      43.162 -18.735   4.295  1.00  0.00     0.056 A 
HETATM   30 CL   UNL     1      45.098 -20.403   3.298  1.00  0.00    -0.083 Cl
HETATM   31  C   UNL     1      42.108 -17.826   4.130  1.00  0.00     0.034 A 
HETATM   32 CL   UNL     1      43.634 -19.128   5.910  1.00  0.00    -0.083 Cl
ENDBRANCH   1  25
TORSDOF 5
ENDMDL
MODEL 5
REMARK VINA RESULT:      -8.4      6.638      9.491
REMARK  5 active torsions:
REMARK  status: ('A' for Active; 'I' for Inactive)
REMARK    1  A    between atoms: C_2  and  C_3 
REMARK    2  A    between atoms: C_8  and  C_9 
REMARK       I    between atoms: C_9  and  N_10 
REMARK    3  A    between atoms: N_10  and  C_11 
REMARK    4  A    between atoms: C_11  and  C_12 
REMARK    5  A    between atoms: C_19  and  C_20 
ROOT
HETATM    1  C   UNL     1      39.740 -14.572  -2.373  1.00  0.00     0.118 C 
HETATM    2  N   UNL     1      40.646 -15.590  -1.853  1.00  0.00    -0.366 N 
HETATM    3  C   UNL     1      40.934 -15.682  -0.536  1.00  0.00     0.123 A 
HETATM    4  N   UNL     1      40.303 -14.900   0.394  1.00  0.00    -0.240 N 
HETATM    5  N   UNL     1      40.767 -15.071   1.643  1.00  0.00    -0.165 NA
HETATM    6  C   UNL     1      41.669 -16.070   1.520  1.00  0.00     0.148 A 
HETATM    7  C   UNL     1      41.816 -16.464   0.163  1.00  0.00     0.088 A 
HETATM    8  C   UNL     1      39.334 -13.873   0.056  1.00  0.00     0.221 C 
HETATM    9  C   UNL     1      38.700 -14.182  -1.314  1.00  0.00     0.066 C 
HETATM   10  H   UNL     1      41.217 -16.072  -2.547  1.00  0.00     0.161 HD
ENDROOT
BRANCH   6  11
HETATM   11  C   UNL     1      42.370 -16.639   2.684  1.00  0.00     0.272 C 
HETATM   12  N   UNL     1      42.775 -17.940   2.493  1.00  0.00    -0.353 N 
HETATM   13  H   UNL     1      42.424 -18.396   1.654  1.00  0.00     0.162 HD
HETATM   14  O   UNL     1      42.582 -16.005   3.714  1.00  0.00    -0.266 OA
BRANCH  12  15
HETATM   15  C   UNL     1      43.458 -18.717   3.504  1.00  0.00     0.155 C 
BRANCH  15  16
HETATM   16  C   UNL     1      44.268 -19.872   2.912  1.00  0.00     0.139 C 
HETATM   17  O   UNL     1      44.523 -20.880   3.912  1.00  0.00    -0.384 OA
HETATM   18  C   UNL     1      44.487 -22.167   3.277  1.00  0.00     0.168 C 
HETATM   19  C   UNL     1      44.201 -21.942   1.806  1.00  0.00     0.029 C 
HETATM   20  C   UNL     1      43.526 -20.595   1.802  1.00  0.00     0.035 C 
ENDBRANCH  15  16
ENDBRANCH  12  15
ENDBRANCH   6  11
BRANCH   8  21
HETATM   21  C   UNL     1      38.245 -13.748   1.100  1.00  0.00     0.409 C 
HETATM   22  F   UNL     1      37.126 -13.149   0.643  1.00  0.00    -0.169 F 
HETATM   23  F   UNL     1      37.865 -14.989   1.510  1.00  0.00    -0.169 F 
HETATM   24  F   UNL     1      38.661 -13.091   2.206  1.00  0.00    -0.169 F 
ENDBRANCH   8  21
BRANCH   1  25
HETATM   25  C   UNL     1      40.481 -13.378  -2.957  1.00  0.00    -0.034 A 
HETATM   26  C   UNL     1      41.873 -13.220  -2.868  1.00  0.00     0.011 A 
HETATM   27  C   UNL     1      42.505 -12.105  -3.427  1.00  0.00     0.026 A 
HETATM   28  C   UNL     1      41.760 -11.123  -4.081  1.00  0.00     0.055 A 
HETATM   29  C   UNL     1      40.373 -11.257  -4.172  1.00  0.00     0.056 A 
HETATM   30 CL   UNL     1      42.610  -9.779  -4.754  1.00  0.00    -0.083 Cl
HETATM   31  C   UNL     1      39.742 -12.374  -3.611  1.00  0.00     0.034 A 
HETATM   32 CL   UNL     1      39.377 -10.087  -4.963  1.00  0.00    -0.083 Cl
ENDBRANCH   1  25
TORSDOF 5
ENDMDL
MODEL 6
REMARK VINA RESULT:      -7.8      4.815      7.570
REMARK  5 active torsions:
REMARK  status: ('A' for Active; 'I' for Inactive)
REMARK    1  A    between atoms: C_2  and  C_3 
REMARK    2  A    between atoms: C_8  and  C_9 
REMARK       I    between atoms: C_9  and  N_10 
REMARK    3  A    between atoms: N_10  and  C_11 
REMARK    4  A    between atoms: C_11  and  C_12 
REMARK    5  A    between atoms: C_19  and  C_20 
ROOT
HETATM    1  C   UNL     1      44.344 -17.512   4.542  1.00  0.00     0.118 C 
HETATM    2  N   UNL     1      43.955 -16.855   3.300  1.00  0.00    -0.366 N 
HETATM    3  C   UNL     1      42.680 -16.475   3.062  1.00  0.00     0.123 A 
HETATM    4  N   UNL     1      41.708 -16.582   4.021  1.00  0.00    -0.240 N 
HETATM    5  N   UNL     1      40.486 -16.231   3.588  1.00  0.00    -0.165 NA
HETATM    6  C   UNL     1      40.702 -15.793   2.327  1.00  0.00     0.148 A 
HETATM    7  C   UNL     1      42.064 -15.952   1.956  1.00  0.00     0.088 A 
HETATM    8  C   UNL     1      41.933 -17.164   5.332  1.00  0.00     0.221 C 
HETATM    9  C   UNL     1      43.428 -17.075   5.695  1.00  0.00     0.066 C 
HETATM   10  H   UNL     1      44.635 -16.903   2.541  1.00  0.00     0.161 HD
ENDROOT
BRANCH   6  11
HETATM   11  C   UNL     1      39.623 -15.227   1.500  1.00  0.00     0.272 C 
HETATM   12  N   UNL     1      40.082 -14.568   0.383  1.00  0.00    -0.353 N 
HETATM   13  H   UNL     1      41.087 -14.421   0.336  1.00  0.00     0.162 HD
HETATM   14  O   UNL     1      38.433 -15.348   1.777  1.00  0.00    -0.266 OA
BRANCH  12  15
HETATM   15  C   UNL     1      39.211 -13.908  -0.566  1.00  0.00     0.155 C 
BRANCH  15  16
HETATM   16  C   UNL     1      39.609 -14.178  -2.018  1.00  0.00     0.139 C 
HETATM   17  O   UNL     1      40.137 -12.983  -2.631  1.00  0.00    -0.384 OA
HETATM   18  C   UNL     1      41.185 -13.364  -3.536  1.00  0.00     0.168 C 
HETATM   19  C   UNL     1      41.307 -14.873  -3.483  1.00  0.00     0.029 C 
HETATM   20  C   UNL     1      40.720 -15.207  -2.135  1.00  0.00     0.035 C 
ENDBRANCH  15  16
ENDBRANCH  12  15
ENDBRANCH   6  11
BRANCH   8  21
HETATM   21  C   UNL     1      41.112 -16.485   6.407  1.00  0.00     0.409 C 
HETATM   22  F   UNL     1      39.875 -17.005   6.551  1.00  0.00    -0.169 F 
HETATM   23  F   UNL     1      41.726 -16.638   7.612  1.00  0.00    -0.169 F 
HETATM   24  F   UNL     1      40.994 -15.153   6.206  1.00  0.00    -0.169 F 
ENDBRANCH   8  21
BRANCH   1  25
HETATM   25  C   UNL     1      44.443 -19.023   4.394  1.00  0.00    -0.034 A 
HETATM   26  C   UNL     1      44.679 -19.885   5.477  1.00  0.00     0.011 A 
HETATM   27  C   UNL     1      44.757 -21.269   5.287  1.00  0.00     0.026 A 
HETATM   28  C   UNL     1      44.605 -21.818   4.013  1.00  0.00     0.055 A 
HETATM   29  C   UNL     1      44.379 -20.977   2.922  1.00  0.00     0.056 A 
HETATM   30 CL   UNL     1      44.705 -23.535   3.857  1.00  0.00    -0.083 Cl
HETATM   31  C   UNL     1      44.303 -19.591   3.114  1.00  0.00     0.034 A 
HETATM   32 CL   UNL     1      44.183 -21.574   1.313  1.00  0.00    -0.083 Cl
ENDBRANCH   1  25
TORSDOF 5
ENDMDL
MODEL 7
REMARK VINA RESULT:      -7.7      5.106      8.392
REMARK  5 active torsions:
REMARK  status: ('A' for Active; 'I' for Inactive)
REMARK    1  A    between atoms: C_2  and  C_3 
REMARK    2  A    between atoms: C_8  and  C_9 
REMARK       I    between atoms: C_9  and  N_10 
REMARK    3  A    between atoms: N_10  and  C_11 
REMARK    4  A    between atoms: C_11  and  C_12 
REMARK    5  A    between atoms: C_19  and  C_20 
ROOT
HETATM    1  C   UNL     1      43.249 -14.545   4.282  1.00  0.00     0.118 C 
HETATM    2  N   UNL     1      42.825 -14.578   2.887  1.00  0.00    -0.366 N 
HETATM    3  C   UNL     1      41.543 -14.352   2.526  1.00  0.00     0.123 A 
HETATM    4  N   UNL     1      40.596 -13.966   3.438  1.00  0.00    -0.240 N 
HETATM    5  N   UNL     1      39.362 -13.861   2.918  1.00  0.00    -0.165 NA
HETATM    6  C   UNL     1      39.543 -14.100   1.600  1.00  0.00     0.148 A 
HETATM    7  C   UNL     1      40.895 -14.433   1.321  1.00  0.00     0.088 A 
HETATM    8  C   UNL     1      40.858 -13.831   4.859  1.00  0.00     0.221 C 
HETATM    9  C   UNL     1      42.362 -13.590   5.094  1.00  0.00     0.066 C 
HETATM   10  H   UNL     1      43.485 -14.999   2.233  1.00  0.00     0.161 HD
ENDROOT
BRANCH   6  11
HETATM   11  C   UNL     1      38.440 -14.003   0.629  1.00  0.00     0.272 C 
HETATM   12  N   UNL     1      38.822 -13.459  -0.576  1.00  0.00    -0.353 N 
HETATM   13  H   UNL     1      39.757 -13.061  -0.607  1.00  0.00     0.162 HD
HETATM   14  O   UNL     1      37.299 -14.385   0.871  1.00  0.00    -0.266 OA
BRANCH  12  15
HETATM   15  C   UNL     1      37.908 -13.240  -1.676  1.00  0.00     0.155 C 
BRANCH  15  16
HETATM   16  C   UNL     1      38.383 -13.891  -2.976  1.00  0.00     0.139 C 
HETATM   17  O   UNL     1      39.727 -14.395  -2.832  1.00  0.00    -0.384 OA
HETATM   18  C   UNL     1      39.841 -15.606  -3.594  1.00  0.00     0.168 C 
HETATM   19  C   UNL     1      38.498 -15.861  -4.248  1.00  0.00     0.029 C 
HETATM   20  C   UNL     1      37.546 -15.099  -3.361  1.00  0.00     0.035 C 
ENDBRANCH  15  16
ENDBRANCH  12  15
ENDBRANCH   6  11
BRANCH   8  21
HETATM   21  C   UNL     1      40.062 -12.705   5.483  1.00  0.00     0.409 C 
HETATM   22  F   UNL     1      38.824 -13.070   5.873  1.00  0.00    -0.169 F 
HETATM   23  F   UNL     1      40.697 -12.269   6.606  1.00  0.00    -0.169 F 
HETATM   24  F   UNL     1      39.954 -11.632   4.666  1.00  0.00    -0.169 F 
ENDBRANCH   8  21
BRANCH   1  25
HETATM   25  C   UNL     1      43.350 -15.935   4.893  1.00  0.00    -0.034 A 
HETATM   26  C   UNL     1      43.428 -17.107   4.124  1.00  0.00     0.011 A 
HETATM   27  C   UNL     1      43.525 -18.361   4.735  1.00  0.00     0.026 A 
HETATM   28  C   UNL     1      43.543 -18.470   6.127  1.00  0.00     0.055 A 
HETATM   29  C   UNL     1      43.458 -17.317   6.909  1.00  0.00     0.056 A 
HETATM   30 CL   UNL     1      43.674 -20.050   6.810  1.00  0.00    -0.083 Cl
HETATM   31  C   UNL     1      43.359 -16.062   6.294  1.00  0.00     0.034 A 
HETATM   32 CL   UNL     1      43.471 -17.364   8.636  1.00  0.00    -0.083 Cl
ENDBRANCH   1  25
TORSDOF 5
ENDMDL
MODEL 8
REMARK VINA RESULT:      -7.6      2.760      3.294
REMARK  5 active torsions:
REMARK  status: ('A' for Active; 'I' for Inactive)
REMARK    1  A    between atoms: C_2  and  C_3 
REMARK    2  A    between atoms: C_8  and  C_9 
REMARK       I    between atoms: C_9  and  N_10 
REMARK    3  A    between atoms: N_10  and  C_11 
REMARK    4  A    between atoms: C_11  and  C_12 
REMARK    5  A    between atoms: C_19  and  C_20 
ROOT
HETATM    1  C   UNL     1      40.689 -16.693   3.466  1.00  0.00     0.118 C 
HETATM    2  N   UNL     1      40.395 -15.912   4.661  1.00  0.00    -0.366 N 
HETATM    3  C   UNL     1      40.830 -14.641   4.807  1.00  0.00     0.123 A 
HETATM    4  N   UNL     1      41.469 -13.979   3.793  1.00  0.00    -0.240 N 
HETATM    5  N   UNL     1      41.898 -12.754   4.138  1.00  0.00    -0.165 NA
HETATM    6  C   UNL     1      41.432 -12.589   5.396  1.00  0.00     0.148 A 
HETATM    7  C   UNL     1      40.776 -13.761   5.857  1.00  0.00     0.088 A 
HETATM    8  C   UNL     1      41.795 -14.588   2.517  1.00  0.00     0.221 C 
HETATM    9  C   UNL     1      40.850 -15.775   2.246  1.00  0.00     0.066 C 
HETATM   10  H   UNL     1      40.049 -16.440   5.462  1.00  0.00     0.161 HD
ENDROOT
BRANCH   6  11
HETATM   11  C   UNL     1      41.609 -11.329   6.137  1.00  0.00     0.272 C 
HETATM   12  N   UNL     1      41.955 -11.516   7.456  1.00  0.00    -0.353 N 
HETATM   13  H   UNL     1      41.904 -12.473   7.796  1.00  0.00     0.162 HD
HETATM   14  O   UNL     1      41.474 -10.223   5.621  1.00  0.00    -0.266 OA
BRANCH  12  15
HETATM   15  C   UNL     1      42.156 -10.429   8.388  1.00  0.00     0.155 C 
BRANCH  15  16
HETATM   16  C   UNL     1      40.863 -10.001   9.084  1.00  0.00     0.139 C 
HETATM   17  O   UNL     1      40.271  -8.872   8.409  1.00  0.00    -0.384 OA
HETATM   18  C   UNL     1      38.843  -9.004   8.471  1.00  0.00     0.168 C 
HETATM   19  C   UNL     1      38.536 -10.280   9.229  1.00  0.00     0.029 C 
HETATM   20  C   UNL     1      39.799 -11.084   9.051  1.00  0.00     0.035 C 
ENDBRANCH  15  16
ENDBRANCH  12  15
ENDBRANCH   6  11
BRANCH   8  21
HETATM   21  C   UNL     1      41.706 -13.601   1.372  1.00  0.00     0.409 C 
HETATM   22  F   UNL     1      40.556 -12.896   1.356  1.00  0.00    -0.169 F 
HETATM   23  F   UNL     1      42.707 -12.684   1.485  1.00  0.00    -0.169 F 
HETATM   24  F   UNL     1      41.864 -14.191   0.166  1.00  0.00    -0.169 F 
ENDBRANCH   8  21
BRANCH   1  25
HETATM   25  C   UNL     1      41.863 -17.641   3.664  1.00  0.00    -0.034 A 
HETATM   26  C   UNL     1      42.599 -18.183   2.599  1.00  0.00     0.011 A 
HETATM   27  C   UNL     1      43.674 -19.046   2.836  1.00  0.00     0.026 A 
HETATM   28  C   UNL     1      44.032 -19.389   4.141  1.00  0.00     0.055 A 
HETATM   29  C   UNL     1      43.306 -18.867   5.214  1.00  0.00     0.056 A 
HETATM   30 CL   UNL     1      45.375 -20.452   4.356  1.00  0.00    -0.083 Cl
HETATM   31  C   UNL     1      42.230 -18.004   4.973  1.00  0.00     0.034 A 
HETATM   32 CL   UNL     1      43.682 -19.241   6.858  1.00  0.00    -0.083 Cl
ENDBRANCH   1  25
TORSDOF 5
ENDMDL
MODEL 9
REMARK VINA RESULT:      -7.5      5.607      8.519
REMARK  5 active torsions:
REMARK  status: ('A' for Active; 'I' for Inactive)
REMARK    1  A    between atoms: C_2  and  C_3 
REMARK    2  A    between atoms: C_8  and  C_9 
REMARK       I    between atoms: C_9  and  N_10 
REMARK    3  A    between atoms: N_10  and  C_11 
REMARK    4  A    between atoms: C_11  and  C_12 
REMARK    5  A    between atoms: C_19  and  C_20 
ROOT
HETATM    1  C   UNL     1      41.838 -12.696   1.003  1.00  0.00     0.118 C 
HETATM    2  N   UNL     1      42.652 -12.930   2.190  1.00  0.00    -0.366 N 
HETATM    3  C   UNL     1      42.737 -14.148   2.768  1.00  0.00     0.123 A 
HETATM    4  N   UNL     1      42.158 -15.254   2.204  1.00  0.00    -0.240 N 
HETATM    5  N   UNL     1      42.277 -16.363   2.951  1.00  0.00    -0.165 NA
HETATM    6  C   UNL     1      43.046 -15.972   3.993  1.00  0.00     0.148 A 
HETATM    7  C   UNL     1      43.335 -14.583   3.922  1.00  0.00     0.088 A 
HETATM    8  C   UNL     1      41.356 -15.211   0.995  1.00  0.00     0.221 C 
HETATM    9  C   UNL     1      41.735 -13.974   0.158  1.00  0.00     0.066 C 
HETATM   10  H   UNL     1      42.964 -12.095   2.686  1.00  0.00     0.161 HD
ENDROOT
BRANCH   6  11
HETATM   11  C   UNL     1      43.497 -16.915   5.030  1.00  0.00     0.272 C 
HETATM   12  N   UNL     1      44.021 -18.079   4.517  1.00  0.00    -0.353 N 
HETATM   13  H   UNL     1      43.904 -18.215   3.516  1.00  0.00     0.162 HD
HETATM   14  O   UNL     1      43.423 -16.674   6.232  1.00  0.00    -0.266 OA
BRANCH  12  15
HETATM   15  C   UNL     1      44.505 -19.165   5.340  1.00  0.00     0.155 C 
BRANCH  15  16
HETATM   16  C   UNL     1      45.052 -20.332   4.516  1.00  0.00     0.139 C 
HETATM   17  O   UNL     1      44.843 -21.583   5.204  1.00  0.00    -0.384 OA
HETATM   18  C   UNL     1      44.561 -22.595   4.227  1.00  0.00     0.168 C 
HETATM   19  C   UNL     1      44.604 -21.937   2.862  1.00  0.00     0.029 C 
HETATM   20  C   UNL     1      44.339 -20.488   3.185  1.00  0.00     0.035 C 
ENDBRANCH  15  16
ENDBRANCH  12  15
ENDBRANCH   6  11
BRANCH   8  21
HETATM   21  C   UNL     1      41.522 -16.459   0.154  1.00  0.00     0.409 C 
HETATM   22  F   UNL     1      42.778 -16.953   0.163  1.00  0.00    -0.169 F 
HETATM   23  F   UNL     1      40.727 -17.448   0.648  1.00  0.00    -0.169 F 
HETATM   24  F   UNL     1      41.146 -16.273  -1.131  1.00  0.00    -0.169 F 
ENDBRANCH   8  21
BRANCH   1  25
HETATM   25  C   UNL     1      40.484 -12.087   1.337  1.00  0.00    -0.034 A 
HETATM   26  C   UNL     1      40.152 -11.611   2.615  1.00  0.00     0.011 A 
HETATM   27  C   UNL     1      38.893 -11.054   2.868  1.00  0.00     0.026 A 
HETATM   28  C   UNL     1      37.942 -10.966   1.851  1.00  0.00     0.055 A 
HETATM   29  C   UNL     1      38.250 -11.442   0.575  1.00  0.00     0.056 A 
HETATM   30 CL   UNL     1      36.414 -10.259   2.235  1.00  0.00    -0.083 Cl
HETATM   31  C   UNL     1      39.511 -12.000   0.324  1.00  0.00     0.034 A 
HETATM   32 CL   UNL     1      37.130 -11.372  -0.738  1.00  0.00    -0.083 Cl
ENDBRANCH   1  25
TORSDOF 5
ENDMDL
MODEL 10
REMARK VINA RESULT:      -7.4      4.653      7.759
REMARK  5 active torsions:
REMARK  status: ('A' for Active; 'I' for Inactive)
REMARK    1  A    between atoms: C_2  and  C_3 
REMARK    2  A    between atoms: C_8  and  C_9 
REMARK       I    between atoms: C_9  and  N_10 
REMARK    3  A    between atoms: N_10  and  C_11 
REMARK    4  A    between atoms: C_11  and  C_12 
REMARK    5  A    between atoms: C_19  and  C_20 
ROOT
HETATM    1  C   UNL     1      43.536 -15.170   4.895  1.00  0.00     0.118 C 
HETATM    2  N   UNL     1      43.532 -15.113   3.438  1.00  0.00    -0.366 N 
HETATM    3  C   UNL     1      42.394 -14.922   2.735  1.00  0.00     0.123 A 
HETATM    4  N   UNL     1      41.202 -14.656   3.355  1.00  0.00    -0.240 N 
HETATM    5  N   UNL     1      40.164 -14.571   2.508  1.00  0.00    -0.165 NA
HETATM    6  C   UNL     1      40.730 -14.695   1.286  1.00  0.00     0.148 A 
HETATM    7  C   UNL     1      42.125 -14.939   1.391  1.00  0.00     0.088 A 
HETATM    8  C   UNL     1      41.036 -14.622   4.797  1.00  0.00     0.221 C 
HETATM    9  C   UNL     1      42.390 -14.327   5.473  1.00  0.00     0.066 C 
HETATM   10  H   UNL     1      44.379 -15.448   2.979  1.00  0.00     0.161 HD
ENDROOT
BRANCH   6  11
HETATM   11  C   UNL     1      39.947 -14.576   0.045  1.00  0.00     0.272 C 
HETATM   12  N   UNL     1      40.620 -15.023  -1.069  1.00  0.00    -0.353 N 
HETATM   13  H   UNL     1      41.605 -15.240  -0.935  1.00  0.00     0.162 HD
HETATM   14  O   UNL     1      38.802 -14.133   0.015  1.00  0.00    -0.266 OA
BRANCH  12  15
HETATM   15  C   UNL     1      40.065 -14.982  -2.404  1.00  0.00     0.155 C 
BRANCH  15  16
HETATM   16  C   UNL     1      40.738 -13.932  -3.290  1.00  0.00     0.139 C 
HETATM   17  O   UNL     1      39.965 -12.713  -3.310  1.00  0.00    -0.384 OA
HETATM   18  C   UNL     1      40.872 -11.603  -3.374  1.00  0.00     0.168 C 
HETATM   19  C   UNL     1      42.279 -12.164  -3.400  1.00  0.00     0.029 C 
HETATM   20  C   UNL     1      42.106 -13.524  -2.772  1.00  0.00     0.035 C 
ENDBRANCH  15  16
ENDBRANCH  12  15
ENDBRANCH   6  11
BRANCH   8  21
HETATM   21  C   UNL     1      40.019 -13.589   5.231  1.00  0.00     0.409 C 
HETATM   22  F   UNL     1      38.756 -14.061   5.276  1.00  0.00    -0.169 F 
HETATM   23  F   UNL     1      40.308 -13.171   6.494  1.00  0.00    -0.169 F 
HETATM   24  F   UNL     1      40.036 -12.485   4.451  1.00  0.00    -0.169 F 
ENDBRANCH   8  21
BRANCH   1  25
HETATM   25  C   UNL     1      43.555 -16.598   5.422  1.00  0.00    -0.034 A 
HETATM   26  C   UNL     1      43.233 -16.930   6.747  1.00  0.00     0.011 A 
HETATM   27  C   UNL     1      43.262 -18.261   7.180  1.00  0.00     0.026 A 
HETATM   28  C   UNL     1      43.618 -19.283   6.299  1.00  0.00     0.055 A 
HETATM   29  C   UNL     1      43.951 -18.971   4.979  1.00  0.00     0.056 A 
HETATM   30 CL   UNL     1      43.623 -20.902   6.901  1.00  0.00    -0.083 Cl
HETATM   31  C   UNL     1      43.922 -17.639   4.549  1.00  0.00     0.034 A 
HETATM   32 CL   UNL     1      44.403 -20.176   3.826  1.00  0.00    -0.083 Cl
ENDBRANCH   1  25
TORSDOF 5
ENDMDL
