MODEL 1
REMARK VINA RESULT:      -8.4      0.000      0.000
REMARK  6 active torsions:
REMARK  status: ('A' for Active; 'I' for Inactive)
REMARK    1  A    between atoms: C_2  and  C_3 
REMARK    2  A    between atoms: C_3  and  C_4 
REMARK    3  A    between atoms: C_7  and  C_8 
REMARK    4  A    between atoms: C_14  and  C_15 
REMARK    5  A    between atoms: C_18  and  N_19 
REMARK       I    between atoms: N_19  and  C_20 
REMARK    6  A    between atoms: C_28  and  N_29 
ROOT
HETATM    1  C   UNL     1      40.502 -14.469   4.562  1.00  0.00     0.099 A 
HETATM    2  N   UNL     1      39.854 -14.758   5.710  1.00  0.00    -0.172 NA
HETATM    3  N   UNL     1      39.167 -13.645   6.013  1.00  0.00    -0.256 N 
HETATM    4  H   UNL     1      38.607 -13.629   6.858  1.00  0.00     0.191 HD
HETATM    5  C   UNL     1      39.346 -12.657   5.106  1.00  0.00     0.175 A 
HETATM    6  C   UNL     1      40.181 -13.148   4.133  1.00  0.00     0.040 A 
HETATM    7  C   UNL     1      40.534 -12.283   2.966  1.00  0.00     0.105 C 
HETATM    8  C   UNL     1      40.052 -10.853   3.212  1.00  0.00     0.067 C 
HETATM    9  C   UNL     1      40.643  -9.753   2.347  1.00  0.00     0.020 C 
HETATM   10  N   UNL     1      41.135  -8.839   1.630  1.00  0.00    -0.096 N 
HETATM   11  C   UNL     1      39.246 -10.504   4.253  1.00  0.00     0.139 C 
HETATM   12  O   UNL     1      38.800 -11.450   5.191  1.00  0.00    -0.279 OA
ENDROOT
BRANCH   7  13
HETATM   13  C   UNL     1      39.870 -12.938   1.762  1.00  0.00    -0.044 A 
HETATM   14  C   UNL     1      40.612 -13.589   0.761  1.00  0.00     0.010 A 
HETATM   15  C   UNL     1      39.987 -14.138  -0.365  1.00  0.00     0.030 A 
HETATM   16  C   UNL     1      38.605 -14.056  -0.518  1.00  0.00     0.034 A 
HETATM   17  C   UNL     1      37.854 -13.432   0.486  1.00  0.00     0.030 A 
HETATM   18  C   UNL     1      38.477 -12.883   1.614  1.00  0.00     0.010 A 
BRANCH  16  19
HETATM   19  N   UNL     1      37.905 -14.549  -1.638  1.00  0.00    -0.328 N 
HETATM   20  C   UNL     1      37.940 -14.061  -2.932  1.00  0.00     0.218 C 
HETATM   21  C   UNL     1      37.011 -14.818  -3.850  1.00  0.00     0.117 C 
HETATM   22  O   UNL     1      38.633 -13.147  -3.361  1.00  0.00    -0.274 OA
HETATM   23  H   UNL     1      37.303 -15.344  -1.467  1.00  0.00     0.169 HD
ENDBRANCH  16  19
ENDBRANCH   7  13
BRANCH  11  24
HETATM   24  N   UNL     1      38.802  -9.231   4.529  1.00  0.00    -0.282 NA
HETATM   25  H   UNL     1      37.939  -9.173   5.066  1.00  0.00     0.126 HD
HETATM   26  H   UNL     1      39.540  -8.643   4.906  1.00  0.00     0.126 HD
ENDBRANCH  11  24
BRANCH   1  27
HETATM   27  C   UNL     1      41.371 -15.471   3.943  1.00  0.00    -0.005 A 
HETATM   28  C   UNL     1      40.824 -16.412   3.061  1.00  0.00     0.014 A 
HETATM   29  C   UNL     1      41.623 -17.399   2.478  1.00  0.00     0.008 A 
HETATM   30  C   UNL     1      42.992 -17.463   2.765  1.00  0.00    -0.058 A 
HETATM   31  C   UNL     1      43.542 -16.524   3.645  1.00  0.00     0.008 A 
HETATM   32  C   UNL     1      42.737 -15.544   4.239  1.00  0.00     0.014 A 
BRANCH  30  33
HETATM   33  C   UNL     1      43.855 -18.534   2.141  1.00  0.00     0.042 C 
BRANCH  33  34
HETATM   34  C   UNL     1      43.702 -19.918   2.800  1.00  0.00    -0.019 C 
HETATM   35  C   UNL     1      44.692 -20.124   3.950  1.00  0.00     0.010 C 
HETATM   36  C   UNL     1      43.904 -21.015   1.750  1.00  0.00     0.010 C 
ENDBRANCH  33  34
ENDBRANCH  30  33
ENDBRANCH   1  27
TORSDOF 6
ENDMDL
MODEL 2
REMARK VINA RESULT:      -7.9      1.483      2.082
REMARK  6 active torsions:
REMARK  status: ('A' for Active; 'I' for Inactive)
REMARK    1  A    between atoms: C_2  and  C_3 
REMARK    2  A    between atoms: C_3  and  C_4 
REMARK    3  A    between atoms: C_7  and  C_8 
REMARK    4  A    between atoms: C_14  and  C_15 
REMARK    5  A    between atoms: C_18  and  N_19 
REMARK       I    between atoms: N_19  and  C_20 
REMARK    6  A    between atoms: C_28  and  N_29 
ROOT
HETATM    1  C   UNL     1      40.369 -13.101   4.043  1.00  0.00     0.099 A 
HETATM    2  N   UNL     1      39.450 -12.914   5.013  1.00  0.00    -0.172 NA
HETATM    3  N   UNL     1      38.913 -11.710   4.757  1.00  0.00    -0.256 N 
HETATM    4  H   UNL     1      38.196 -11.351   5.377  1.00  0.00     0.191 HD
HETATM    5  C   UNL     1      39.449 -11.120   3.664  1.00  0.00     0.175 A 
HETATM    6  C   UNL     1      40.378 -11.991   3.149  1.00  0.00     0.040 A 
HETATM    7  C   UNL     1      41.115 -11.622   1.903  1.00  0.00     0.105 C 
HETATM    8  C   UNL     1      40.841 -10.159   1.548  1.00  0.00     0.067 C 
HETATM    9  C   UNL     1      41.784  -9.486   0.564  1.00  0.00     0.020 C 
HETATM   10  N   UNL     1      42.566  -8.927  -0.252  1.00  0.00    -0.096 N 
HETATM   11  C   UNL     1      39.902  -9.400   2.177  1.00  0.00     0.139 C 
HETATM   12  O   UNL     1      39.111  -9.917   3.216  1.00  0.00    -0.279 OA
ENDROOT
BRANCH   7  13
HETATM   13  C   UNL     1      40.624 -12.595   0.839  1.00  0.00    -0.044 A 
HETATM   14  C   UNL     1      41.361 -13.734   0.470  1.00  0.00     0.010 A 
HETATM   15  C   UNL     1      40.918 -14.588  -0.547  1.00  0.00     0.030 A 
HETATM   16  C   UNL     1      39.725 -14.330  -1.218  1.00  0.00     0.034 A 
HETATM   17  C   UNL     1      38.972 -13.212  -0.842  1.00  0.00     0.030 A 
HETATM   18  C   UNL     1      39.411 -12.357   0.177  1.00  0.00     0.010 A 
BRANCH  16  19
HETATM   19  N   UNL     1      39.231 -15.117  -2.277  1.00  0.00    -0.328 N 
HETATM   20  C   UNL     1      39.808 -15.316  -3.519  1.00  0.00     0.218 C 
HETATM   21  C   UNL     1      38.954 -16.183  -4.411  1.00  0.00     0.117 C 
HETATM   22  O   UNL     1      40.891 -14.894  -3.908  1.00  0.00    -0.274 OA
HETATM   23  H   UNL     1      38.346 -15.580  -2.108  1.00  0.00     0.169 HD
ENDBRANCH  16  19
ENDBRANCH   7  13
BRANCH  11  24
HETATM   24  N   UNL     1      39.632  -8.078   1.910  1.00  0.00    -0.282 NA
HETATM   25  H   UNL     1      40.220  -7.643   1.203  1.00  0.00     0.126 HD
HETATM   26  H   UNL     1      38.641  -7.916   1.751  1.00  0.00     0.126 HD
ENDBRANCH  11  24
BRANCH   1  27
HETATM   27  C   UNL     1      41.168 -14.328   4.021  1.00  0.00    -0.005 A 
HETATM   28  C   UNL     1      42.555 -14.255   4.213  1.00  0.00     0.014 A 
HETATM   29  C   UNL     1      43.347 -15.405   4.168  1.00  0.00     0.008 A 
HETATM   30  C   UNL     1      42.766 -16.656   3.933  1.00  0.00    -0.058 A 
HETATM   31  C   UNL     1      41.381 -16.733   3.741  1.00  0.00     0.008 A 
HETATM   32  C   UNL     1      40.590 -15.578   3.773  1.00  0.00     0.014 A 
BRANCH  30  33
HETATM   33  C   UNL     1      43.622 -17.898   3.876  1.00  0.00     0.042 C 
BRANCH  33  34
HETATM   34  C   UNL     1      43.513 -18.670   2.547  1.00  0.00    -0.019 C 
HETATM   35  C   UNL     1      44.321 -19.971   2.566  1.00  0.00     0.010 C 
HETATM   36  C   UNL     1      44.000 -17.785   1.396  1.00  0.00     0.010 C 
ENDBRANCH  33  34
ENDBRANCH  30  33
ENDBRANCH   1  27
TORSDOF 6
ENDMDL
MODEL 3
REMARK VINA RESULT:      -7.4      3.058      6.354
REMARK  6 active torsions:
REMARK  status: ('A' for Active; 'I' for Inactive)
REMARK    1  A    between atoms: C_2  and  C_3 
REMARK    2  A    between atoms: C_3  and  C_4 
REMARK    3  A    between atoms: C_7  and  C_8 
REMARK    4  A    between atoms: C_14  and  C_15 
REMARK    5  A    between atoms: C_18  and  N_19 
REMARK       I    between atoms: N_19  and  C_20 
REMARK    6  A    between atoms: C_28  and  N_29 
ROOT
HETATM    1  C   UNL     1      41.249 -16.455   3.507  1.00  0.00     0.099 A 
HETATM    2  N   UNL     1      40.626 -17.634   3.715  1.00  0.00    -0.172 NA
HETATM    3  N   UNL     1      40.923 -17.966   4.982  1.00  0.00    -0.256 N 
HETATM    4  H   UNL     1      40.566 -18.838   5.357  1.00  0.00     0.191 HD
HETATM    5  C   UNL     1      41.708 -17.049   5.593  1.00  0.00     0.175 A 
HETATM    6  C   UNL     1      41.926 -16.038   4.689  1.00  0.00     0.040 A 
HETATM    7  C   UNL     1      42.739 -14.853   5.099  1.00  0.00     0.105 C 
HETATM    8  C   UNL     1      43.402 -15.118   6.452  1.00  0.00     0.067 C 
HETATM    9  C   UNL     1      44.562 -14.221   6.854  1.00  0.00     0.020 C 
HETATM   10  N   UNL     1      45.524 -13.479   7.187  1.00  0.00    -0.096 N 
HETATM   11  C   UNL     1      43.109 -16.195   7.231  1.00  0.00     0.139 C 
HETATM   12  O   UNL     1      42.164 -17.156   6.835  1.00  0.00    -0.279 OA
ENDROOT
BRANCH   7  13
HETATM   13  C   UNL     1      41.762 -13.684   5.133  1.00  0.00    -0.044 A 
HETATM   14  C   UNL     1      40.535 -13.755   5.815  1.00  0.00     0.010 A 
HETATM   15  C   UNL     1      39.628 -12.690   5.790  1.00  0.00     0.030 A 
HETATM   16  C   UNL     1      39.924 -11.524   5.087  1.00  0.00     0.034 A 
HETATM   17  C   UNL     1      41.154 -11.434   4.425  1.00  0.00     0.030 A 
HETATM   18  C   UNL     1      42.064 -12.498   4.450  1.00  0.00     0.010 A 
BRANCH  16  19
HETATM   19  N   UNL     1      39.049 -10.424   4.981  1.00  0.00    -0.328 N 
HETATM   20  C   UNL     1      38.170 -10.144   3.950  1.00  0.00     0.218 C 
HETATM   21  C   UNL     1      37.437  -8.843   4.164  1.00  0.00     0.117 C 
HETATM   22  O   UNL     1      37.942 -10.835   2.963  1.00  0.00    -0.274 OA
HETATM   23  H   UNL     1      39.080  -9.761   5.745  1.00  0.00     0.169 HD
ENDBRANCH  16  19
ENDBRANCH   7  13
BRANCH  11  24
HETATM   24  N   UNL     1      43.691 -16.489   8.443  1.00  0.00    -0.282 NA
HETATM   25  H   UNL     1      44.405 -17.213   8.424  1.00  0.00     0.126 HD
HETATM   26  H   UNL     1      43.993 -15.651   8.933  1.00  0.00     0.126 HD
ENDBRANCH  11  24
BRANCH   1  27
HETATM   27  C   UNL     1      41.147 -15.797   2.203  1.00  0.00    -0.005 A 
HETATM   28  C   UNL     1      40.278 -14.710   2.041  1.00  0.00     0.014 A 
HETATM   29  C   UNL     1      40.137 -14.081   0.802  1.00  0.00     0.008 A 
HETATM   30  C   UNL     1      40.868 -14.527  -0.305  1.00  0.00    -0.058 A 
HETATM   31  C   UNL     1      41.737 -15.613  -0.148  1.00  0.00     0.008 A 
HETATM   32  C   UNL     1      41.867 -16.250   1.092  1.00  0.00     0.014 A 
BRANCH  30  33
HETATM   33  C   UNL     1      40.711 -13.853  -1.647  1.00  0.00     0.042 C 
BRANCH  33  34
HETATM   34  C   UNL     1      42.010 -13.220  -2.182  1.00  0.00    -0.019 C 
HETATM   35  C   UNL     1      42.549 -12.132  -1.249  1.00  0.00     0.010 C 
HETATM   36  C   UNL     1      41.760 -12.625  -3.571  1.00  0.00     0.010 C 
ENDBRANCH  33  34
ENDBRANCH  30  33
ENDBRANCH   1  27
TORSDOF 6
ENDMDL
MODEL 4
REMARK VINA RESULT:      -7.1      1.596      2.084
REMARK  6 active torsions:
REMARK  status: ('A' for Active; 'I' for Inactive)
REMARK    1  A    between atoms: C_2  and  C_3 
REMARK    2  A    between atoms: C_3  and  C_4 
REMARK    3  A    between atoms: C_7  and  C_8 
REMARK    4  A    between atoms: C_14  and  C_15 
REMARK    5  A    between atoms: C_18  and  N_19 
REMARK       I    between atoms: N_19  and  C_20 
REMARK    6  A    between atoms: C_28  and  N_29 
ROOT
HETATM    1  C   UNL     1      40.531 -13.895   4.900  1.00  0.00     0.099 A 
HETATM    2  N   UNL     1      39.694 -14.462   5.793  1.00  0.00    -0.172 NA
HETATM    3  N   UNL     1      39.086 -13.432   6.405  1.00  0.00    -0.256 N 
HETATM    4  H   UNL     1      38.412 -13.625   7.137  1.00  0.00     0.191 HD
HETATM    5  C   UNL     1      39.499 -12.231   5.940  1.00  0.00     0.175 A 
HETATM    6  C   UNL     1      40.415 -12.475   4.946  1.00  0.00     0.040 A 
HETATM    7  C   UNL     1      41.024 -11.324   4.213  1.00  0.00     0.105 C 
HETATM    8  C   UNL     1      40.660 -10.011   4.908  1.00  0.00     0.067 C 
HETATM    9  C   UNL     1      41.483  -8.781   4.563  1.00  0.00     0.020 C 
HETATM   10  N   UNL     1      42.167  -7.761   4.279  1.00  0.00    -0.096 N 
HETATM   11  C   UNL     1      39.749  -9.926   5.916  1.00  0.00     0.139 C 
HETATM   12  O   UNL     1      39.073 -11.060   6.398  1.00  0.00    -0.279 OA
ENDROOT
BRANCH   7  13
HETATM   13  C   UNL     1      40.482 -11.417   2.792  1.00  0.00    -0.044 A 
HETATM   14  C   UNL     1      39.145 -11.115   2.481  1.00  0.00     0.010 A 
HETATM   15  C   UNL     1      38.653 -11.258   1.178  1.00  0.00     0.030 A 
HETATM   16  C   UNL     1      39.484 -11.701   0.152  1.00  0.00     0.034 A 
HETATM   17  C   UNL     1      40.824 -11.981   0.447  1.00  0.00     0.030 A 
HETATM   18  C   UNL     1      41.319 -11.837   1.749  1.00  0.00     0.010 A 
BRANCH  16  19
HETATM   19  N   UNL     1      39.057 -11.907  -1.175  1.00  0.00    -0.328 N 
HETATM   20  C   UNL     1      38.385 -13.006  -1.682  1.00  0.00     0.218 C 
HETATM   21  C   UNL     1      38.144 -12.890  -3.167  1.00  0.00     0.117 C 
HETATM   22  O   UNL     1      37.981 -13.980  -1.057  1.00  0.00    -0.274 OA
HETATM   23  H   UNL     1      39.278 -11.168  -1.830  1.00  0.00     0.169 HD
ENDBRANCH  16  19
ENDBRANCH   7  13
BRANCH  11  24
HETATM   24  N   UNL     1      39.401  -8.775   6.586  1.00  0.00    -0.282 NA
HETATM   25  H   UNL     1      38.920  -8.911   7.472  1.00  0.00     0.126 HD
HETATM   26  H   UNL     1      40.179  -8.125   6.655  1.00  0.00     0.126 HD
ENDBRANCH  11  24
BRANCH   1  27
HETATM   27  C   UNL     1      41.375 -14.739   4.053  1.00  0.00    -0.005 A 
HETATM   28  C   UNL     1      40.804 -15.811   3.355  1.00  0.00     0.014 A 
HETATM   29  C   UNL     1      41.589 -16.653   2.563  1.00  0.00     0.008 A 
HETATM   30  C   UNL     1      42.967 -16.437   2.452  1.00  0.00    -0.058 A 
HETATM   31  C   UNL     1      43.543 -15.367   3.148  1.00  0.00     0.008 A 
HETATM   32  C   UNL     1      42.756 -14.533   3.951  1.00  0.00     0.014 A 
BRANCH  30  33
HETATM   33  C   UNL     1      43.818 -17.351   1.602  1.00  0.00     0.042 C 
BRANCH  33  34
HETATM   34  C   UNL     1      44.116 -18.712   2.259  1.00  0.00    -0.019 C 
HETATM   35  C   UNL     1      43.124 -19.794   1.822  1.00  0.00     0.010 C 
HETATM   36  C   UNL     1      44.076 -18.569   3.784  1.00  0.00     0.010 C 
ENDBRANCH  33  34
ENDBRANCH  30  33
ENDBRANCH   1  27
TORSDOF 6
ENDMDL
MODEL 5
REMARK VINA RESULT:      -7.1      2.945      7.181
REMARK  6 active torsions:
REMARK  status: ('A' for Active; 'I' for Inactive)
REMARK    1  A    between atoms: C_2  and  C_3 
REMARK    2  A    between atoms: C_3  and  C_4 
REMARK    3  A    between atoms: C_7  and  C_8 
REMARK    4  A    between atoms: C_14  and  C_15 
REMARK    5  A    between atoms: C_18  and  N_19 
REMARK       I    between atoms: N_19  and  C_20 
REMARK    6  A    between atoms: C_28  and  N_29 
ROOT
HETATM    1  C   UNL     1      38.616 -13.677   1.303  1.00  0.00     0.099 A 
HETATM    2  N   UNL     1      37.346 -14.044   1.032  1.00  0.00    -0.172 NA
HETATM    3  N   UNL     1      37.349 -14.373  -0.270  1.00  0.00    -0.256 N 
HETATM    4  H   UNL     1      36.482 -14.673  -0.703  1.00  0.00     0.191 HD
HETATM    5  C   UNL     1      38.567 -14.234  -0.842  1.00  0.00     0.175 A 
HETATM    6  C   UNL     1      39.428 -13.810   0.140  1.00  0.00     0.040 A 
HETATM    7  C   UNL     1      40.871 -13.603  -0.191  1.00  0.00     0.105 C 
HETATM    8  C   UNL     1      41.076 -13.686  -1.705  1.00  0.00     0.067 C 
HETATM    9  C   UNL     1      42.369 -13.123  -2.271  1.00  0.00     0.020 C 
HETATM   10  N   UNL     1      43.441 -12.656  -2.741  1.00  0.00    -0.096 N 
HETATM   11  C   UNL     1      40.107 -14.094  -2.570  1.00  0.00     0.139 C 
HETATM   12  O   UNL     1      38.828 -14.467  -2.123  1.00  0.00    -0.279 OA
ENDROOT
BRANCH   7  13
HETATM   13  C   UNL     1      41.621 -14.685   0.573  1.00  0.00    -0.044 A 
HETATM   14  C   UNL     1      41.596 -16.034   0.176  1.00  0.00     0.010 A 
HETATM   15  C   UNL     1      42.249 -17.022   0.922  1.00  0.00     0.030 A 
HETATM   16  C   UNL     1      42.947 -16.689   2.081  1.00  0.00     0.034 A 
HETATM   17  C   UNL     1      42.999 -15.346   2.471  1.00  0.00     0.030 A 
HETATM   18  C   UNL     1      42.348 -14.355   1.725  1.00  0.00     0.010 A 
BRANCH  16  19
HETATM   19  N   UNL     1      43.598 -17.629   2.906  1.00  0.00    -0.328 N 
HETATM   20  C   UNL     1      43.082 -18.270   4.019  1.00  0.00     0.218 C 
HETATM   21  C   UNL     1      44.099 -19.168   4.680  1.00  0.00     0.117 C 
HETATM   22  O   UNL     1      41.941 -18.188   4.458  1.00  0.00    -0.274 OA
HETATM   23  H   UNL     1      44.554 -17.847   2.658  1.00  0.00     0.169 HD
ENDBRANCH  16  19
ENDBRANCH   7  13
BRANCH  11  24
HETATM   24  N   UNL     1      40.234 -14.167  -3.938  1.00  0.00    -0.282 NA
HETATM   25  H   UNL     1      39.675 -13.503  -4.468  1.00  0.00     0.126 HD
HETATM   26  H   UNL     1      41.208 -14.182  -4.229  1.00  0.00     0.126 HD
ENDBRANCH  11  24
BRANCH   1  27
HETATM   27  C   UNL     1      38.975 -13.237   2.652  1.00  0.00    -0.005 A 
HETATM   28  C   UNL     1      39.539 -14.151   3.552  1.00  0.00     0.014 A 
HETATM   29  C   UNL     1      39.864 -13.768   4.856  1.00  0.00     0.008 A 
HETATM   30  C   UNL     1      39.633 -12.457   5.287  1.00  0.00    -0.058 A 
HETATM   31  C   UNL     1      39.070 -11.540   4.391  1.00  0.00     0.008 A 
HETATM   32  C   UNL     1      38.732 -11.929   3.089  1.00  0.00     0.014 A 
BRANCH  30  33
HETATM   33  C   UNL     1      39.977 -12.044   6.698  1.00  0.00     0.042 C 
BRANCH  33  34
HETATM   34  C   UNL     1      40.011 -10.518   6.909  1.00  0.00    -0.019 C 
HETATM   35  C   UNL     1      41.427  -9.949   6.786  1.00  0.00     0.010 C 
HETATM   36  C   UNL     1      39.442 -10.176   8.290  1.00  0.00     0.010 C 
ENDBRANCH  33  34
ENDBRANCH  30  33
ENDBRANCH   1  27
TORSDOF 6
ENDMDL
MODEL 6
REMARK VINA RESULT:      -6.9      3.558      6.619
REMARK  6 active torsions:
REMARK  status: ('A' for Active; 'I' for Inactive)
REMARK    1  A    between atoms: C_2  and  C_3 
REMARK    2  A    between atoms: C_3  and  C_4 
REMARK    3  A    between atoms: C_7  and  C_8 
REMARK    4  A    between atoms: C_14  and  C_15 
REMARK    5  A    between atoms: C_18  and  N_19 
REMARK       I    between atoms: N_19  and  C_20 
REMARK    6  A    between atoms: C_28  and  N_29 
ROOT
HETATM    1  C   UNL     1      41.259 -14.922  -0.279  1.00  0.00     0.099 A 
HETATM    2  N   UNL     1      41.346 -16.249  -0.511  1.00  0.00    -0.172 NA
HETATM    3  N   UNL     1      41.030 -16.829   0.658  1.00  0.00    -0.256 N 
HETATM    4  H   UNL     1      41.042 -17.840   0.724  1.00  0.00     0.191 HD
HETATM    5  C   UNL     1      40.742 -15.929   1.627  1.00  0.00     0.175 A 
HETATM    6  C   UNL     1      40.851 -14.681   1.065  1.00  0.00     0.040 A 
HETATM    7  C   UNL     1      40.552 -13.475   1.896  1.00  0.00     0.105 C 
HETATM    8  C   UNL     1      40.396 -13.878   3.363  1.00  0.00     0.067 C 
HETATM    9  C   UNL     1      40.480 -12.777   4.408  1.00  0.00     0.020 C 
HETATM   10  N   UNL     1      40.552 -11.865   5.274  1.00  0.00    -0.096 N 
HETATM   11  C   UNL     1      40.340 -15.173   3.782  1.00  0.00     0.139 C 
HETATM   12  O   UNL     1      40.427 -16.245   2.878  1.00  0.00    -0.279 OA
ENDROOT
BRANCH   7  13
HETATM   13  C   UNL     1      39.281 -12.880   1.303  1.00  0.00    -0.044 A 
HETATM   14  C   UNL     1      39.182 -11.521   0.958  1.00  0.00     0.010 A 
HETATM   15  C   UNL     1      37.989 -10.982   0.464  1.00  0.00     0.030 A 
HETATM   16  C   UNL     1      36.864 -11.787   0.297  1.00  0.00     0.034 A 
HETATM   17  C   UNL     1      36.960 -13.147   0.614  1.00  0.00     0.030 A 
HETATM   18  C   UNL     1      38.153 -13.690   1.106  1.00  0.00     0.010 A 
BRANCH  16  19
HETATM   19  N   UNL     1      35.617 -11.314  -0.158  1.00  0.00    -0.328 N 
HETATM   20  C   UNL     1      34.655 -10.642   0.574  1.00  0.00     0.218 C 
HETATM   21  C   UNL     1      33.422 -10.344  -0.244  1.00  0.00     0.117 C 
HETATM   22  O   UNL     1      34.733 -10.276   1.741  1.00  0.00    -0.274 OA
HETATM   23  H   UNL     1      35.402 -11.499  -1.130  1.00  0.00     0.169 HD
ENDBRANCH  16  19
ENDBRANCH   7  13
BRANCH  11  24
HETATM   24  N   UNL     1      40.221 -15.587   5.088  1.00  0.00    -0.282 NA
HETATM   25  H   UNL     1      40.797 -15.088   5.762  1.00  0.00     0.126 HD
HETATM   26  H   UNL     1      39.249 -15.659   5.378  1.00  0.00     0.126 HD
ENDBRANCH  11  24
BRANCH   1  27
HETATM   27  C   UNL     1      41.556 -13.973  -1.353  1.00  0.00    -0.005 A 
HETATM   28  C   UNL     1      40.982 -14.157  -2.618  1.00  0.00     0.014 A 
HETATM   29  C   UNL     1      41.270 -13.285  -3.671  1.00  0.00     0.008 A 
HETATM   30  C   UNL     1      42.140 -12.206  -3.479  1.00  0.00    -0.058 A 
HETATM   31  C   UNL     1      42.716 -12.019  -2.217  1.00  0.00     0.008 A 
HETATM   32  C   UNL     1      42.436 -12.901  -1.166  1.00  0.00     0.014 A 
BRANCH  30  33
HETATM   33  C   UNL     1      42.459 -11.268  -4.618  1.00  0.00     0.042 C 
BRANCH  33  34
HETATM   34  C   UNL     1      42.085  -9.799  -4.338  1.00  0.00    -0.019 C 
HETATM   35  C   UNL     1      40.592  -9.629  -4.044  1.00  0.00     0.010 C 
HETATM   36  C   UNL     1      42.471  -8.931  -5.540  1.00  0.00     0.010 C 
ENDBRANCH  33  34
ENDBRANCH  30  33
ENDBRANCH   1  27
TORSDOF 6
ENDMDL
MODEL 7
REMARK VINA RESULT:      -6.9      2.945      6.006
REMARK  6 active torsions:
REMARK  status: ('A' for Active; 'I' for Inactive)
REMARK    1  A    between atoms: C_2  and  C_3 
REMARK    2  A    between atoms: C_3  and  C_4 
REMARK    3  A    between atoms: C_7  and  C_8 
REMARK    4  A    between atoms: C_14  and  C_15 
REMARK    5  A    between atoms: C_18  and  N_19 
REMARK       I    between atoms: N_19  and  C_20 
REMARK    6  A    between atoms: C_28  and  N_29 
ROOT
HETATM    1  C   UNL     1      41.590 -12.472   1.621  1.00  0.00     0.099 A 
HETATM    2  N   UNL     1      42.646 -12.003   0.924  1.00  0.00    -0.172 NA
HETATM    3  N   UNL     1      42.277 -10.778   0.515  1.00  0.00    -0.256 N 
HETATM    4  H   UNL     1      42.922 -10.233  -0.046  1.00  0.00     0.191 HD
HETATM    5  C   UNL     1      41.031 -10.444   0.923  1.00  0.00     0.175 A 
HETATM    6  C   UNL     1      40.552 -11.496   1.664  1.00  0.00     0.040 A 
HETATM    7  C   UNL     1      39.196 -11.399   2.284  1.00  0.00     0.105 C 
HETATM    8  C   UNL     1      38.466 -10.165   1.750  1.00  0.00     0.067 C 
HETATM    9  C   UNL     1      36.960 -10.100   1.945  1.00  0.00     0.020 C 
HETATM   10  N   UNL     1      35.711 -10.046   2.106  1.00  0.00    -0.096 N 
HETATM   11  C   UNL     1      39.068  -9.212   0.987  1.00  0.00     0.139 C 
HETATM   12  O   UNL     1      40.423  -9.301   0.627  1.00  0.00    -0.279 OA
ENDROOT
BRANCH   7  13
HETATM   13  C   UNL     1      39.441 -11.343   3.786  1.00  0.00    -0.044 A 
HETATM   14  C   UNL     1      39.887 -10.175   4.428  1.00  0.00     0.010 A 
HETATM   15  C   UNL     1      40.157 -10.159   5.802  1.00  0.00     0.030 A 
HETATM   16  C   UNL     1      39.983 -11.307   6.570  1.00  0.00     0.034 A 
HETATM   17  C   UNL     1      39.516 -12.469   5.945  1.00  0.00     0.030 A 
HETATM   18  C   UNL     1      39.243 -12.487   4.572  1.00  0.00     0.010 A 
BRANCH  16  19
HETATM   19  N   UNL     1      40.269 -11.384   7.949  1.00  0.00    -0.328 N 
HETATM   20  C   UNL     1      39.508 -10.890   8.994  1.00  0.00     0.218 C 
HETATM   21  C   UNL     1      40.167 -11.115  10.333  1.00  0.00     0.117 C 
HETATM   22  O   UNL     1      38.412 -10.349   8.921  1.00  0.00    -0.274 OA
HETATM   23  H   UNL     1      41.136 -11.845   8.195  1.00  0.00     0.169 HD
ENDBRANCH  16  19
ENDBRANCH   7  13
BRANCH  11  24
HETATM   24  N   UNL     1      38.452  -8.096   0.466  1.00  0.00    -0.282 NA
HETATM   25  H   UNL     1      38.559  -7.963  -0.537  1.00  0.00     0.126 HD
HETATM   26  H   UNL     1      37.487  -8.016   0.774  1.00  0.00     0.126 HD
ENDBRANCH  11  24
BRANCH   1  27
HETATM   27  C   UNL     1      41.643 -13.811   2.210  1.00  0.00    -0.005 A 
HETATM   28  C   UNL     1      42.719 -14.163   3.036  1.00  0.00     0.014 A 
HETATM   29  C   UNL     1      42.812 -15.443   3.588  1.00  0.00     0.008 A 
HETATM   30  C   UNL     1      41.826 -16.400   3.327  1.00  0.00    -0.058 A 
HETATM   31  C   UNL     1      40.749 -16.053   2.503  1.00  0.00     0.008 A 
HETATM   32  C   UNL     1      40.664 -14.774   1.940  1.00  0.00     0.014 A 
BRANCH  30  33
HETATM   33  C   UNL     1      41.930 -17.786   3.917  1.00  0.00     0.042 C 
BRANCH  33  34
HETATM   34  C   UNL     1      43.364 -18.348   3.938  1.00  0.00    -0.019 C 
HETATM   35  C   UNL     1      43.637 -19.279   2.753  1.00  0.00     0.010 C 
HETATM   36  C   UNL     1      43.603 -19.105   5.247  1.00  0.00     0.010 C 
ENDBRANCH  33  34
ENDBRANCH  30  33
ENDBRANCH   1  27
TORSDOF 6
ENDMDL
MODEL 8
REMARK VINA RESULT:      -6.9      2.414      5.701
REMARK  6 active torsions:
REMARK  status: ('A' for Active; 'I' for Inactive)
REMARK    1  A    between atoms: C_2  and  C_3 
REMARK    2  A    between atoms: C_3  and  C_4 
REMARK    3  A    between atoms: C_7  and  C_8 
REMARK    4  A    between atoms: C_14  and  C_15 
REMARK    5  A    between atoms: C_18  and  N_19 
REMARK       I    between atoms: N_19  and  C_20 
REMARK    6  A    between atoms: C_28  and  N_29 
ROOT
HETATM    1  C   UNL     1      41.541 -13.766  -0.255  1.00  0.00     0.099 A 
HETATM    2  N   UNL     1      42.439 -13.402  -1.195  1.00  0.00    -0.172 NA
HETATM    3  N   UNL     1      41.898 -12.329  -1.796  1.00  0.00    -0.256 N 
HETATM    4  H   UNL     1      42.402 -11.888  -2.557  1.00  0.00     0.191 HD
HETATM    5  C   UNL     1      40.695 -11.991  -1.279  1.00  0.00     0.175 A 
HETATM    6  C   UNL     1      40.430 -12.875  -0.261  1.00  0.00     0.040 A 
HETATM    7  C   UNL     1      39.171 -12.724   0.529  1.00  0.00     0.105 C 
HETATM    8  C   UNL     1      38.256 -11.695  -0.137  1.00  0.00     0.067 C 
HETATM    9  C   UNL     1      36.793 -11.682   0.275  1.00  0.00     0.020 C 
HETATM   10  N   UNL     1      35.579 -11.673   0.615  1.00  0.00    -0.096 N 
HETATM   11  C   UNL     1      38.649 -10.905  -1.174  1.00  0.00     0.139 C 
HETATM   12  O   UNL     1      39.943 -10.988  -1.715  1.00  0.00    -0.279 OA
ENDROOT
BRANCH   7  13
HETATM   13  C   UNL     1      39.616 -12.311   1.926  1.00  0.00    -0.044 A 
HETATM   14  C   UNL     1      40.196 -11.056   2.184  1.00  0.00     0.010 A 
HETATM   15  C   UNL     1      40.647 -10.716   3.465  1.00  0.00     0.030 A 
HETATM   16  C   UNL     1      40.527 -11.616   4.521  1.00  0.00     0.034 A 
HETATM   17  C   UNL     1      39.929 -12.858   4.279  1.00  0.00     0.030 A 
HETATM   18  C   UNL     1      39.474 -13.201   2.999  1.00  0.00     0.010 A 
BRANCH  16  19
HETATM   19  N   UNL     1      40.991 -11.364   5.828  1.00  0.00    -0.328 N 
HETATM   20  C   UNL     1      40.280 -10.816   6.881  1.00  0.00     0.218 C 
HETATM   21  C   UNL     1      41.133 -10.648   8.116  1.00  0.00     0.117 C 
HETATM   22  O   UNL     1      39.096 -10.503   6.893  1.00  0.00    -0.274 OA
HETATM   23  H   UNL     1      41.957 -11.605   6.008  1.00  0.00     0.169 HD
ENDBRANCH  16  19
ENDBRANCH   7  13
BRANCH  11  24
HETATM   24  N   UNL     1      37.861  -9.980  -1.820  1.00  0.00    -0.282 NA
HETATM   25  H   UNL     1      37.304 -10.340  -2.592  1.00  0.00     0.126 HD
HETATM   26  H   UNL     1      37.316  -9.422  -1.168  1.00  0.00     0.126 HD
ENDBRANCH  11  24
BRANCH   1  27
HETATM   27  C   UNL     1      41.807 -14.928   0.594  1.00  0.00    -0.005 A 
HETATM   28  C   UNL     1      41.348 -16.193   0.201  1.00  0.00     0.014 A 
HETATM   29  C   UNL     1      41.559 -17.315   1.006  1.00  0.00     0.008 A 
HETATM   30  C   UNL     1      42.239 -17.196   2.223  1.00  0.00    -0.058 A 
HETATM   31  C   UNL     1      42.699 -15.935   2.619  1.00  0.00     0.008 A 
HETATM   32  C   UNL     1      42.475 -14.808   1.818  1.00  0.00     0.014 A 
BRANCH  30  33
HETATM   33  C   UNL     1      42.462 -18.408   3.097  1.00  0.00     0.042 C 
BRANCH  33  34
HETATM   34  C   UNL     1      43.788 -19.141   2.818  1.00  0.00    -0.019 C 
HETATM   35  C   UNL     1      43.594 -20.364   1.918  1.00  0.00     0.010 C 
HETATM   36  C   UNL     1      44.424 -19.576   4.142  1.00  0.00     0.010 C 
ENDBRANCH  33  34
ENDBRANCH  30  33
ENDBRANCH   1  27
TORSDOF 6
ENDMDL
MODEL 9
REMARK VINA RESULT:      -6.9      3.576      7.260
REMARK  6 active torsions:
REMARK  status: ('A' for Active; 'I' for Inactive)
REMARK    1  A    between atoms: C_2  and  C_3 
REMARK    2  A    between atoms: C_3  and  C_4 
REMARK    3  A    between atoms: C_7  and  C_8 
REMARK    4  A    between atoms: C_14  and  C_15 
REMARK    5  A    between atoms: C_18  and  N_19 
REMARK       I    between atoms: N_19  and  C_20 
REMARK    6  A    between atoms: C_28  and  N_29 
ROOT
HETATM    1  C   UNL     1      40.978 -15.275   2.573  1.00  0.00     0.099 A 
HETATM    2  N   UNL     1      40.246 -16.399   2.418  1.00  0.00    -0.172 NA
HETATM    3  N   UNL     1      40.406 -17.080   3.565  1.00  0.00    -0.256 N 
HETATM    4  H   UNL     1      39.949 -17.978   3.670  1.00  0.00     0.191 HD
HETATM    5  C   UNL     1      41.207 -16.438   4.447  1.00  0.00     0.175 A 
HETATM    6  C   UNL     1      41.583 -15.253   3.863  1.00  0.00     0.040 A 
HETATM    7  C   UNL     1      42.450 -14.305   4.625  1.00  0.00     0.105 C 
HETATM    8  C   UNL     1      42.972 -14.980   5.895  1.00  0.00     0.067 C 
HETATM    9  C   UNL     1      44.162 -14.341   6.593  1.00  0.00     0.020 C 
HETATM   10  N   UNL     1      45.149 -13.812   7.171  1.00  0.00    -0.096 N 
HETATM   11  C   UNL     1      42.527 -16.188   6.336  1.00  0.00     0.139 C 
HETATM   12  O   UNL     1      41.545 -16.912   5.640  1.00  0.00    -0.279 OA
ENDROOT
BRANCH   7  13
HETATM   13  C   UNL     1      41.572 -13.094   4.912  1.00  0.00    -0.044 A 
HETATM   14  C   UNL     1      41.836 -11.830   4.354  1.00  0.00     0.010 A 
HETATM   15  C   UNL     1      41.048 -10.718   4.672  1.00  0.00     0.030 A 
HETATM   16  C   UNL     1      39.973 -10.839   5.550  1.00  0.00     0.034 A 
HETATM   17  C   UNL     1      39.687 -12.098   6.091  1.00  0.00     0.030 A 
HETATM   18  C   UNL     1      40.473 -13.213   5.773  1.00  0.00     0.010 A 
BRANCH  16  19
HETATM   19  N   UNL     1      39.157  -9.761   5.949  1.00  0.00    -0.328 N 
HETATM   20  C   UNL     1      39.319  -8.949   7.058  1.00  0.00     0.218 C 
HETATM   21  C   UNL     1      38.209  -7.934   7.186  1.00  0.00     0.117 C 
HETATM   22  O   UNL     1      40.238  -8.975   7.867  1.00  0.00    -0.274 OA
HETATM   23  H   UNL     1      38.356  -9.572   5.359  1.00  0.00     0.169 HD
ENDBRANCH  16  19
ENDBRANCH   7  13
BRANCH  11  24
HETATM   24  N   UNL     1      42.977 -16.846   7.458  1.00  0.00    -0.282 NA
HETATM   25  H   UNL     1      43.679 -16.353   8.005  1.00  0.00     0.126 HD
HETATM   26  H   UNL     1      42.211 -17.198   8.026  1.00  0.00     0.126 HD
ENDBRANCH  11  24
BRANCH   1  27
HETATM   27  C   UNL     1      41.041 -14.293   1.490  1.00  0.00    -0.005 A 
HETATM   28  C   UNL     1      40.164 -13.200   1.494  1.00  0.00     0.014 A 
HETATM   29  C   UNL     1      40.181 -12.262   0.458  1.00  0.00     0.008 A 
HETATM   30  C   UNL     1      41.081 -12.397  -0.604  1.00  0.00    -0.058 A 
HETATM   31  C   UNL     1      41.960 -13.487  -0.612  1.00  0.00     0.008 A 
HETATM   32  C   UNL     1      41.932 -14.433   0.420  1.00  0.00     0.014 A 
BRANCH  30  33
HETATM   33  C   UNL     1      41.095 -11.388  -1.728  1.00  0.00     0.042 C 
BRANCH  33  34
HETATM   34  C   UNL     1      42.438 -11.312  -2.480  1.00  0.00    -0.019 C 
HETATM   35  C   UNL     1      43.113  -9.947  -2.320  1.00  0.00     0.010 C 
HETATM   36  C   UNL     1      42.214 -11.600  -3.967  1.00  0.00     0.010 C 
ENDBRANCH  33  34
ENDBRANCH  30  33
ENDBRANCH   1  27
TORSDOF 6
ENDMDL
MODEL 10
REMARK VINA RESULT:      -6.8      3.495      7.989
REMARK  6 active torsions:
REMARK  status: ('A' for Active; 'I' for Inactive)
REMARK    1  A    between atoms: C_2  and  C_3 
REMARK    2  A    between atoms: C_3  and  C_4 
REMARK    3  A    between atoms: C_7  and  C_8 
REMARK    4  A    between atoms: C_14  and  C_15 
REMARK    5  A    between atoms: C_18  and  N_19 
REMARK       I    between atoms: N_19  and  C_20 
REMARK    6  A    between atoms: C_28  and  N_29 
ROOT
HETATM    1  C   UNL     1      40.901 -14.385   1.708  1.00  0.00     0.099 A 
HETATM    2  N   UNL     1      40.045 -15.164   1.013  1.00  0.00    -0.172 NA
HETATM    3  N   UNL     1      39.963 -16.305   1.717  1.00  0.00    -0.256 N 
HETATM    4  H   UNL     1      39.375 -17.054   1.369  1.00  0.00     0.191 HD
HETATM    5  C   UNL     1      40.728 -16.288   2.832  1.00  0.00     0.175 A 
HETATM    6  C   UNL     1      41.336 -15.057   2.886  1.00  0.00     0.040 A 
HETATM    7  C   UNL     1      42.224 -14.730   4.042  1.00  0.00     0.105 C 
HETATM    8  C   UNL     1      42.483 -15.987   4.874  1.00  0.00     0.067 C 
HETATM    9  C   UNL     1      43.652 -15.961   5.845  1.00  0.00     0.020 C 
HETATM   10  N   UNL     1      44.623 -15.939   6.649  1.00  0.00    -0.096 N 
HETATM   11  C   UNL     1      41.822 -17.162   4.680  1.00  0.00     0.139 C 
HETATM   12  O   UNL     1      40.844 -17.302   3.682  1.00  0.00    -0.279 OA
ENDROOT
BRANCH   7  13
HETATM   13  C   UNL     1      41.495 -13.641   4.818  1.00  0.00    -0.044 A 
HETATM   14  C   UNL     1      42.012 -12.340   4.946  1.00  0.00     0.010 A 
HETATM   15  C   UNL     1      41.352 -11.369   5.707  1.00  0.00     0.030 A 
HETATM   16  C   UNL     1      40.157 -11.669   6.357  1.00  0.00     0.034 A 
HETATM   17  C   UNL     1      39.621 -12.954   6.216  1.00  0.00     0.030 A 
HETATM   18  C   UNL     1      40.278 -13.928   5.453  1.00  0.00     0.010 A 
BRANCH  16  19
HETATM   19  N   UNL     1      39.453 -10.760   7.172  1.00  0.00    -0.328 N 
HETATM   20  C   UNL     1      39.689 -10.466   8.503  1.00  0.00     0.218 C 
HETATM   21  C   UNL     1      38.689  -9.479   9.054  1.00  0.00     0.117 C 
HETATM   22  O   UNL     1      40.596 -10.895   9.207  1.00  0.00    -0.274 OA
HETATM   23  H   UNL     1      38.680 -10.277   6.730  1.00  0.00     0.169 HD
ENDBRANCH  16  19
ENDBRANCH   7  13
BRANCH  11  24
HETATM   24  N   UNL     1      42.030 -18.324   5.386  1.00  0.00    -0.282 NA
HETATM   25  H   UNL     1      42.230 -19.149   4.825  1.00  0.00     0.126 HD
HETATM   26  H   UNL     1      42.694 -18.195   6.146  1.00  0.00     0.126 HD
ENDBRANCH  11  24
BRANCH   1  27
HETATM   27  C   UNL     1      41.237 -13.050   1.212  1.00  0.00    -0.005 A 
HETATM   28  C   UNL     1      40.608 -11.926   1.765  1.00  0.00     0.014 A 
HETATM   29  C   UNL     1      40.886 -10.642   1.292  1.00  0.00     0.008 A 
HETATM   30  C   UNL     1      41.805 -10.453   0.253  1.00  0.00    -0.058 A 
HETATM   31  C   UNL     1      42.436 -11.572  -0.302  1.00  0.00     0.008 A 
HETATM   32  C   UNL     1      42.146 -12.861   0.164  1.00  0.00     0.014 A 
BRANCH  30  33
HETATM   33  C   UNL     1      42.100  -9.066  -0.264  1.00  0.00     0.042 C 
BRANCH  33  34
HETATM   34  C   UNL     1      43.234  -9.018  -1.306  1.00  0.00    -0.019 C 
HETATM   35  C   UNL     1      44.303  -7.981  -0.951  1.00  0.00     0.010 C 
HETATM   36  C   UNL     1      42.653  -8.700  -2.687  1.00  0.00     0.010 C 
ENDBRANCH  33  34
ENDBRANCH  30  33
ENDBRANCH   1  27
TORSDOF 6
ENDMDL
