MODEL 1
REMARK VINA RESULT:      -8.1      0.000      0.000
REMARK  5 active torsions:
REMARK  status: ('A' for Active; 'I' for Inactive)
REMARK    1  A    between atoms: C_6  and  C_7 
REMARK    2  A    between atoms: C_7  and  C_8 
REMARK    3  A    between atoms: C_8  and  C_9 
REMARK    4  A    between atoms: C_9  and  N_10 
REMARK    5  A    between atoms: C_9  and  C_14 
ROOT
HETATM    1  C   UNL     1      41.379 -16.282   6.191  1.00  0.00     0.253 C 
ENDROOT
BRANCH   1   2
HETATM    2  C   UNL     1      42.416 -17.311   6.688  1.00  0.00     0.048 C 
BRANCH   2   3
HETATM    3  C   UNL     1      43.804 -17.271   6.034  1.00  0.00     0.081 C 
BRANCH   3   4
HETATM    4  C   UNL     1      44.074 -18.498   5.238  1.00  0.00     0.105 A 
HETATM    5  N   UNL     1      43.914 -18.594   3.932  1.00  0.00    -0.233 NA
HETATM    6  C   UNL     1      44.182 -19.914   3.634  1.00  0.00     0.085 A 
HETATM    7  C   UNL     1      44.527 -20.619   4.782  1.00  0.00     0.062 A 
HETATM    8  C   UNL     1      44.130 -20.587   2.405  1.00  0.00     0.034 A 
HETATM    9  C   UNL     1      44.827 -21.981   4.784  1.00  0.00     0.032 A 
HETATM   10  N   UNL     1      44.487 -19.686   5.786  1.00  0.00    -0.343 N 
HETATM   11  C   UNL     1      44.762 -22.639   3.550  1.00  0.00     0.002 A 
HETATM   12  C   UNL     1      44.421 -21.957   2.380  1.00  0.00     0.002 A 
HETATM   13  H   UNL     1      44.699 -19.863   6.759  1.00  0.00     0.167 HD
ENDBRANCH   3   4
ENDBRANCH   2   3
ENDBRANCH   1   2
BRANCH   1  14
HETATM   14  N   UNL     1      40.008 -16.671   6.604  1.00  0.00    -0.068 N 
HETATM   15  H   UNL     1      39.401 -15.846   6.628  1.00  0.00     0.275 HD
HETATM   16  H   UNL     1      39.588 -17.319   5.930  1.00  0.00     0.275 HD
HETATM   17  H   UNL     1      40.037 -17.076   7.557  1.00  0.00     0.275 HD
ENDBRANCH   1  14
BRANCH   1  18
HETATM   18  C   UNL     1      41.416 -16.172   4.701  1.00  0.00     0.136 A 
HETATM   19  N   UNL     1      41.867 -15.129   4.034  1.00  0.00    -0.231 NA
HETATM   20  C   UNL     1      41.729 -15.460   2.705  1.00  0.00     0.085 A 
HETATM   21  C   UNL     1      41.222 -16.748   2.569  1.00  0.00     0.062 A 
HETATM   22  C   UNL     1      42.023 -14.714   1.555  1.00  0.00     0.034 A 
HETATM   23  N   UNL     1      41.028 -17.181   3.855  1.00  0.00    -0.341 N 
HETATM   24  C   UNL     1      40.999 -17.359   1.334  1.00  0.00     0.032 A 
HETATM   25  H   UNL     1      40.666 -18.092   4.110  1.00  0.00     0.167 HD
HETATM   26  C   UNL     1      41.301 -16.601   0.197  1.00  0.00     0.002 A 
HETATM   27  C   UNL     1      41.800 -15.300   0.303  1.00  0.00     0.002 A 
ENDBRANCH   1  18
TORSDOF 5
ENDMDL
MODEL 2
REMARK VINA RESULT:      -8.1      4.493      7.628
REMARK  5 active torsions:
REMARK  status: ('A' for Active; 'I' for Inactive)
REMARK    1  A    between atoms: C_6  and  C_7 
REMARK    2  A    between atoms: C_7  and  C_8 
REMARK    3  A    between atoms: C_8  and  C_9 
REMARK    4  A    between atoms: C_9  and  N_10 
REMARK    5  A    between atoms: C_9  and  C_14 
ROOT
HETATM    1  C   UNL     1      43.015 -15.595   5.931  1.00  0.00     0.253 C 
ENDROOT
BRANCH   1   2
HETATM    2  C   UNL     1      44.092 -15.419   7.022  1.00  0.00     0.048 C 
BRANCH   2   3
HETATM    3  C   UNL     1      45.035 -14.216   6.882  1.00  0.00     0.081 C 
BRANCH   3   4
HETATM    4  C   UNL     1      44.746 -13.166   7.895  1.00  0.00     0.105 A 
HETATM    5  N   UNL     1      45.532 -12.871   8.913  1.00  0.00    -0.233 NA
HETATM    6  C   UNL     1      44.839 -11.923   9.637  1.00  0.00     0.085 A 
HETATM    7  C   UNL     1      43.621 -11.633   9.032  1.00  0.00     0.062 A 
HETATM    8  C   UNL     1      45.180 -11.281  10.836  1.00  0.00     0.034 A 
HETATM    9  C   UNL     1      42.701 -10.725   9.558  1.00  0.00     0.032 A 
HETATM   10  N   UNL     1      43.601 -12.410   7.903  1.00  0.00    -0.343 N 
HETATM   11  C   UNL     1      43.053 -10.100  10.759  1.00  0.00     0.002 A 
HETATM   12  C   UNL     1      44.270 -10.370  11.389  1.00  0.00     0.002 A 
HETATM   13  H   UNL     1      42.855 -12.434   7.220  1.00  0.00     0.167 HD
ENDBRANCH   3   4
ENDBRANCH   2   3
ENDBRANCH   1   2
BRANCH   1  14
HETATM   14  N   UNL     1      41.669 -15.745   6.535  1.00  0.00    -0.068 N 
HETATM   15  H   UNL     1      41.719 -16.352   7.359  1.00  0.00     0.275 HD
HETATM   16  H   UNL     1      41.307 -14.843   6.863  1.00  0.00     0.275 HD
HETATM   17  H   UNL     1      41.030 -16.186   5.849  1.00  0.00     0.275 HD
ENDBRANCH   1  14
BRANCH   1  18
HETATM   18  C   UNL     1      43.302 -16.801   5.097  1.00  0.00     0.136 A 
HETATM   19  N   UNL     1      44.033 -17.828   5.483  1.00  0.00    -0.231 NA
HETATM   20  C   UNL     1      44.020 -18.704   4.421  1.00  0.00     0.085 A 
HETATM   21  C   UNL     1      43.230 -18.212   3.387  1.00  0.00     0.062 A 
HETATM   22  C   UNL     1      44.655 -19.944   4.268  1.00  0.00     0.034 A 
HETATM   23  N   UNL     1      42.784 -16.997   3.840  1.00  0.00    -0.341 N 
HETATM   24  C   UNL     1      43.015 -18.900   2.191  1.00  0.00     0.032 A 
HETATM   25  H   UNL     1      42.177 -16.375   3.322  1.00  0.00     0.167 HD
HETATM   26  C   UNL     1      43.654 -20.137   2.058  1.00  0.00     0.002 A 
HETATM   27  C   UNL     1      44.463 -20.651   3.074  1.00  0.00     0.002 A 
ENDBRANCH   1  18
TORSDOF 5
ENDMDL
MODEL 3
REMARK VINA RESULT:      -7.8      1.403      4.056
REMARK  5 active torsions:
REMARK  status: ('A' for Active; 'I' for Inactive)
REMARK    1  A    between atoms: C_6  and  C_7 
REMARK    2  A    between atoms: C_7  and  C_8 
REMARK    3  A    between atoms: C_8  and  C_9 
REMARK    4  A    between atoms: C_9  and  N_10 
REMARK    5  A    between atoms: C_9  and  C_14 
ROOT
HETATM    1  C   UNL     1      41.021 -16.327   2.167  1.00  0.00     0.253 C 
ENDROOT
BRANCH   1   2
HETATM    2  C   UNL     1      41.569 -17.510   1.342  1.00  0.00     0.048 C 
BRANCH   2   3
HETATM    3  C   UNL     1      43.095 -17.632   1.229  1.00  0.00     0.081 C 
BRANCH   3   4
HETATM    4  C   UNL     1      43.614 -18.796   1.995  1.00  0.00     0.105 A 
HETATM    5  N   UNL     1      43.634 -20.038   1.549  1.00  0.00    -0.233 NA
HETATM    6  C   UNL     1      44.099 -20.791   2.608  1.00  0.00     0.085 A 
HETATM    7  C   UNL     1      44.378 -19.982   3.704  1.00  0.00     0.062 A 
HETATM    8  C   UNL     1      44.288 -22.177   2.711  1.00  0.00     0.034 A 
HETATM    9  C   UNL     1      44.842 -20.477   4.923  1.00  0.00     0.032 A 
HETATM   10  N   UNL     1      44.096 -18.710   3.277  1.00  0.00    -0.343 N 
HETATM   11  C   UNL     1      45.016 -21.863   5.012  1.00  0.00     0.002 A 
HETATM   12  C   UNL     1      44.746 -22.700   3.927  1.00  0.00     0.002 A 
HETATM   13  H   UNL     1      44.202 -17.869   3.829  1.00  0.00     0.167 HD
ENDBRANCH   3   4
ENDBRANCH   2   3
ENDBRANCH   1   2
BRANCH   1  14
HETATM   14  N   UNL     1      41.291 -15.036   1.487  1.00  0.00    -0.068 N 
HETATM   15  H   UNL     1      42.208 -15.066   1.031  1.00  0.00     0.275 HD
HETATM   16  H   UNL     1      40.605 -14.858   0.745  1.00  0.00     0.275 HD
HETATM   17  H   UNL     1      41.304 -14.273   2.187  1.00  0.00     0.275 HD
ENDBRANCH   1  14
BRANCH   1  18
HETATM   18  C   UNL     1      41.649 -16.293   3.523  1.00  0.00     0.136 A 
HETATM   19  N   UNL     1      41.471 -17.204   4.458  1.00  0.00    -0.231 NA
HETATM   20  C   UNL     1      42.239 -16.787   5.523  1.00  0.00     0.085 A 
HETATM   21  C   UNL     1      42.927 -15.621   5.206  1.00  0.00     0.062 A 
HETATM   22  C   UNL     1      42.404 -17.358   6.792  1.00  0.00     0.034 A 
HETATM   23  N   UNL     1      42.534 -15.324   3.926  1.00  0.00    -0.341 N 
HETATM   24  C   UNL     1      43.801 -14.981   6.087  1.00  0.00     0.032 A 
HETATM   25  H   UNL     1      42.857 -14.526   3.393  1.00  0.00     0.167 HD
HETATM   26  C   UNL     1      43.957 -15.567   7.348  1.00  0.00     0.002 A 
HETATM   27  C   UNL     1      43.269 -16.732   7.698  1.00  0.00     0.002 A 
ENDBRANCH   1  18
TORSDOF 5
ENDMDL
MODEL 4
REMARK VINA RESULT:      -7.7      1.491      5.841
REMARK  5 active torsions:
REMARK  status: ('A' for Active; 'I' for Inactive)
REMARK    1  A    between atoms: C_6  and  C_7 
REMARK    2  A    between atoms: C_7  and  C_8 
REMARK    3  A    between atoms: C_8  and  C_9 
REMARK    4  A    between atoms: C_9  and  N_10 
REMARK    5  A    between atoms: C_9  and  C_14 
ROOT
HETATM    1  C   UNL     1      42.960 -17.439   1.730  1.00  0.00     0.253 C 
ENDROOT
BRANCH   1   2
HETATM    2  C   UNL     1      41.416 -17.438   1.697  1.00  0.00     0.048 C 
BRANCH   2   3
HETATM    3  C   UNL     1      40.701 -16.442   2.621  1.00  0.00     0.081 C 
BRANCH   3   4
HETATM    4  C   UNL     1      41.387 -16.317   3.934  1.00  0.00     0.105 A 
HETATM    5  N   UNL     1      42.193 -15.326   4.268  1.00  0.00    -0.233 NA
HETATM    6  C   UNL     1      42.673 -15.660   5.517  1.00  0.00     0.085 A 
HETATM    7  C   UNL     1      42.131 -16.866   5.948  1.00  0.00     0.062 A 
HETATM    8  C   UNL     1      43.593 -14.989   6.335  1.00  0.00     0.034 A 
HETATM    9  C   UNL     1      42.457 -17.460   7.168  1.00  0.00     0.032 A 
HETATM   10  N   UNL     1      41.286 -17.247   4.938  1.00  0.00    -0.343 N 
HETATM   11  C   UNL     1      43.383 -16.781   7.968  1.00  0.00     0.002 A 
HETATM   12  C   UNL     1      43.942 -15.568   7.563  1.00  0.00     0.002 A 
HETATM   13  H   UNL     1      40.717 -18.083   4.934  1.00  0.00     0.167 HD
ENDBRANCH   3   4
ENDBRANCH   2   3
ENDBRANCH   1   2
BRANCH   1  14
HETATM   14  N   UNL     1      43.518 -17.375   0.356  1.00  0.00    -0.068 N 
HETATM   15  H   UNL     1      44.541 -17.348   0.395  1.00  0.00     0.275 HD
HETATM   16  H   UNL     1      43.270 -18.211  -0.183  1.00  0.00     0.275 HD
HETATM   17  H   UNL     1      43.190 -16.509  -0.108  1.00  0.00     0.275 HD
ENDBRANCH   1  14
BRANCH   1  18
HETATM   18  C   UNL     1      43.473 -18.673   2.398  1.00  0.00     0.136 A 
HETATM   19  N   UNL     1      43.855 -18.744   3.657  1.00  0.00    -0.231 NA
HETATM   20  C   UNL     1      44.235 -20.054   3.848  1.00  0.00     0.085 A 
HETATM   21  C   UNL     1      44.038 -20.797   2.689  1.00  0.00     0.062 A 
HETATM   22  C   UNL     1      44.752 -20.685   4.988  1.00  0.00     0.034 A 
HETATM   23  N   UNL     1      43.554 -19.895   1.777  1.00  0.00    -0.341 N 
HETATM   24  C   UNL     1      44.315 -22.162   2.596  1.00  0.00     0.032 A 
HETATM   25  H   UNL     1      43.302 -20.117   0.822  1.00  0.00     0.167 HD
HETATM   26  C   UNL     1      44.827 -22.776   3.745  1.00  0.00     0.002 A 
HETATM   27  C   UNL     1      45.046 -22.052   4.919  1.00  0.00     0.002 A 
ENDBRANCH   1  18
TORSDOF 5
ENDMDL
MODEL 5
REMARK VINA RESULT:      -7.7      2.567      7.467
REMARK  5 active torsions:
REMARK  status: ('A' for Active; 'I' for Inactive)
REMARK    1  A    between atoms: C_6  and  C_7 
REMARK    2  A    between atoms: C_7  and  C_8 
REMARK    3  A    between atoms: C_8  and  C_9 
REMARK    4  A    between atoms: C_9  and  N_10 
REMARK    5  A    between atoms: C_9  and  C_14 
ROOT
HETATM    1  C   UNL     1      43.676 -17.071   2.071  1.00  0.00     0.253 C 
ENDROOT
BRANCH   1   2
HETATM    2  C   UNL     1      42.494 -16.403   2.805  1.00  0.00     0.048 C 
BRANCH   2   3
HETATM    3  C   UNL     1      41.086 -16.909   2.461  1.00  0.00     0.081 C 
BRANCH   3   4
HETATM    4  C   UNL     1      40.317 -15.909   1.673  1.00  0.00     0.105 A 
HETATM    5  N   UNL     1      40.821 -15.174   0.700  1.00  0.00    -0.233 NA
HETATM    6  C   UNL     1      39.798 -14.330   0.322  1.00  0.00     0.085 A 
HETATM    7  C   UNL     1      38.653 -14.576   1.071  1.00  0.00     0.062 A 
HETATM    8  C   UNL     1      39.782 -13.312  -0.642  1.00  0.00     0.034 A 
HETATM    9  C   UNL     1      37.468 -13.855   0.919  1.00  0.00     0.032 A 
HETATM   10  N   UNL     1      38.997 -15.612   1.900  1.00  0.00    -0.343 N 
HETATM   11  C   UNL     1      37.472 -12.837  -0.041  1.00  0.00     0.002 A 
HETATM   12  C   UNL     1      38.606 -12.568  -0.810  1.00  0.00     0.002 A 
HETATM   13  H   UNL     1      38.385 -16.051   2.576  1.00  0.00     0.167 HD
ENDBRANCH   3   4
ENDBRANCH   2   3
ENDBRANCH   1   2
BRANCH   1  14
HETATM   14  N   UNL     1      43.377 -17.234   0.626  1.00  0.00    -0.068 N 
HETATM   15  H   UNL     1      43.338 -18.229   0.387  1.00  0.00     0.275 HD
HETATM   16  H   UNL     1      42.459 -16.843   0.392  1.00  0.00     0.275 HD
HETATM   17  H   UNL     1      44.133 -16.798   0.067  1.00  0.00     0.275 HD
ENDBRANCH   1  14
BRANCH   1  18
HETATM   18  C   UNL     1      43.968 -18.415   2.653  1.00  0.00     0.136 A 
HETATM   19  N   UNL     1      44.218 -18.646   3.927  1.00  0.00    -0.231 NA
HETATM   20  C   UNL     1      44.413 -20.006   4.018  1.00  0.00     0.085 A 
HETATM   21  C   UNL     1      44.236 -20.613   2.779  1.00  0.00     0.062 A 
HETATM   22  C   UNL     1      44.739 -20.797   5.128  1.00  0.00     0.034 A 
HETATM   23  N   UNL     1      43.955 -19.579   1.924  1.00  0.00    -0.341 N 
HETATM   24  C   UNL     1      44.349 -21.989   2.575  1.00  0.00     0.032 A 
HETATM   25  H   UNL     1      43.769 -19.681   0.934  1.00  0.00     0.167 HD
HETATM   26  C   UNL     1      44.672 -22.763   3.695  1.00  0.00     0.002 A 
HETATM   27  C   UNL     1      44.867 -22.180   4.949  1.00  0.00     0.002 A 
ENDBRANCH   1  18
TORSDOF 5
ENDMDL
MODEL 6
REMARK VINA RESULT:      -7.5      2.208      3.439
REMARK  5 active torsions:
REMARK  status: ('A' for Active; 'I' for Inactive)
REMARK    1  A    between atoms: C_6  and  C_7 
REMARK    2  A    between atoms: C_7  and  C_8 
REMARK    3  A    between atoms: C_8  and  C_9 
REMARK    4  A    between atoms: C_9  and  N_10 
REMARK    5  A    between atoms: C_9  and  C_14 
ROOT
HETATM    1  C   UNL     1      40.870 -15.822   2.281  1.00  0.00     0.253 C 
ENDROOT
BRANCH   1   2
HETATM    2  C   UNL     1      42.220 -16.236   2.905  1.00  0.00     0.048 C 
BRANCH   2   3
HETATM    3  C   UNL     1      43.197 -17.003   2.003  1.00  0.00     0.081 C 
BRANCH   3   4
HETATM    4  C   UNL     1      43.532 -18.340   2.563  1.00  0.00     0.105 A 
HETATM    5  N   UNL     1      43.917 -18.556   3.807  1.00  0.00    -0.233 NA
HETATM    6  C   UNL     1      44.211 -19.903   3.862  1.00  0.00     0.085 A 
HETATM    7  C   UNL     1      43.982 -20.508   2.631  1.00  0.00     0.062 A 
HETATM    8  C   UNL     1      44.701 -20.674   4.926  1.00  0.00     0.034 A 
HETATM    9  C   UNL     1      44.217 -21.862   2.387  1.00  0.00     0.032 A 
HETATM   10  N   UNL     1      43.515 -19.499   1.830  1.00  0.00    -0.343 N 
HETATM   11  C   UNL     1      44.713 -22.614   3.458  1.00  0.00     0.002 A 
HETATM   12  C   UNL     1      44.951 -22.035   4.706  1.00  0.00     0.002 A 
HETATM   13  H   UNL     1      43.237 -19.599   0.862  1.00  0.00     0.167 HD
ENDBRANCH   3   4
ENDBRANCH   2   3
ENDBRANCH   1   2
BRANCH   1  14
HETATM   14  N   UNL     1      39.945 -16.979   2.205  1.00  0.00    -0.068 N 
HETATM   15  H   UNL     1      39.181 -16.775   1.554  1.00  0.00     0.275 HD
HETATM   16  H   UNL     1      40.421 -17.811   1.840  1.00  0.00     0.275 HD
HETATM   17  H   UNL     1      39.533 -17.152   3.140  1.00  0.00     0.275 HD
ENDBRANCH   1  14
BRANCH   1  18
HETATM   18  C   UNL     1      41.071 -15.279   0.903  1.00  0.00     0.136 A 
HETATM   19  N   UNL     1      41.699 -14.155   0.620  1.00  0.00    -0.231 NA
HETATM   20  C   UNL     1      41.661 -14.053  -0.752  1.00  0.00     0.085 A 
HETATM   21  C   UNL     1      41.033 -15.161  -1.311  1.00  0.00     0.062 A 
HETATM   22  C   UNL     1      42.150 -13.044  -1.594  1.00  0.00     0.034 A 
HETATM   23  N   UNL     1      40.663 -15.928  -0.236  1.00  0.00    -0.341 N 
HETATM   24  C   UNL     1      40.871 -15.339  -2.686  1.00  0.00     0.032 A 
HETATM   25  H   UNL     1      40.180 -16.815  -0.299  1.00  0.00     0.167 HD
HETATM   26  C   UNL     1      41.368 -14.324  -3.511  1.00  0.00     0.002 A 
HETATM   27  C   UNL     1      41.993 -13.195  -2.978  1.00  0.00     0.002 A 
ENDBRANCH   1  18
TORSDOF 5
ENDMDL
MODEL 7
REMARK VINA RESULT:      -7.4      2.710      3.933
REMARK  5 active torsions:
REMARK  status: ('A' for Active; 'I' for Inactive)
REMARK    1  A    between atoms: C_6  and  C_7 
REMARK    2  A    between atoms: C_7  and  C_8 
REMARK    3  A    between atoms: C_8  and  C_9 
REMARK    4  A    between atoms: C_9  and  N_10 
REMARK    5  A    between atoms: C_9  and  C_14 
ROOT
HETATM    1  C   UNL     1      40.979 -16.111   1.490  1.00  0.00     0.253 C 
ENDROOT
BRANCH   1   2
HETATM    2  C   UNL     1      41.888 -17.320   1.186  1.00  0.00     0.048 C 
BRANCH   2   3
HETATM    3  C   UNL     1      43.337 -17.245   1.687  1.00  0.00     0.081 C 
BRANCH   3   4
HETATM    4  C   UNL     1      43.769 -18.519   2.321  1.00  0.00     0.105 A 
HETATM    5  N   UNL     1      43.818 -19.685   1.704  1.00  0.00    -0.233 NA
HETATM    6  C   UNL     1      44.173 -20.593   2.680  1.00  0.00     0.085 A 
HETATM    7  C   UNL     1      44.357 -19.956   3.903  1.00  0.00     0.062 A 
HETATM    8  C   UNL     1      44.336 -21.983   2.598  1.00  0.00     0.034 A 
HETATM    9  C   UNL     1      44.698 -20.631   5.075  1.00  0.00     0.032 A 
HETATM   10  N   UNL     1      44.130 -18.630   3.641  1.00  0.00    -0.343 N 
HETATM   11  C   UNL     1      44.848 -22.019   4.977  1.00  0.00     0.002 A 
HETATM   12  C   UNL     1      44.672 -22.686   3.763  1.00  0.00     0.002 A 
HETATM   13  H   UNL     1      44.192 -17.879   4.316  1.00  0.00     0.167 HD
ENDBRANCH   3   4
ENDBRANCH   2   3
ENDBRANCH   1   2
BRANCH   1  14
HETATM   14  N   UNL     1      39.670 -16.554   2.028  1.00  0.00    -0.068 N 
HETATM   15  H   UNL     1      38.950 -16.484   1.301  1.00  0.00     0.275 HD
HETATM   16  H   UNL     1      39.700 -17.540   2.310  1.00  0.00     0.275 HD
HETATM   17  H   UNL     1      39.394 -15.939   2.814  1.00  0.00     0.275 HD
ENDBRANCH   1  14
BRANCH   1  18
HETATM   18  C   UNL     1      40.741 -15.306   0.253  1.00  0.00     0.136 A 
HETATM   19  N   UNL     1      41.664 -15.001  -0.636  1.00  0.00    -0.231 NA
HETATM   20  C   UNL     1      41.010 -14.272  -1.604  1.00  0.00     0.085 A 
HETATM   21  C   UNL     1      39.654 -14.171  -1.311  1.00  0.00     0.062 A 
HETATM   22  C   UNL     1      41.507 -13.668  -2.767  1.00  0.00     0.034 A 
HETATM   23  N   UNL     1      39.506 -14.836  -0.121  1.00  0.00    -0.341 N 
HETATM   24  C   UNL     1      38.739 -13.506  -2.129  1.00  0.00     0.032 A 
HETATM   25  H   UNL     1      38.630 -14.951   0.372  1.00  0.00     0.167 HD
HETATM   26  C   UNL     1      39.252 -12.913  -3.288  1.00  0.00     0.002 A 
HETATM   27  C   UNL     1      40.611 -12.988  -3.602  1.00  0.00     0.002 A 
ENDBRANCH   1  18
TORSDOF 5
ENDMDL
MODEL 8
REMARK VINA RESULT:      -7.3      1.177      2.203
REMARK  5 active torsions:
REMARK  status: ('A' for Active; 'I' for Inactive)
REMARK    1  A    between atoms: C_6  and  C_7 
REMARK    2  A    between atoms: C_7  and  C_8 
REMARK    3  A    between atoms: C_8  and  C_9 
REMARK    4  A    between atoms: C_9  and  N_10 
REMARK    5  A    between atoms: C_9  and  C_14 
ROOT
HETATM    1  C   UNL     1      41.248 -15.100   5.467  1.00  0.00     0.253 C 
ENDROOT
BRANCH   1   2
HETATM    2  C   UNL     1      42.105 -16.295   5.938  1.00  0.00     0.048 C 
BRANCH   2   3
HETATM    3  C   UNL     1      43.480 -16.468   5.277  1.00  0.00     0.081 C 
BRANCH   3   4
HETATM    4  C   UNL     1      43.606 -17.787   4.602  1.00  0.00     0.105 A 
HETATM    5  N   UNL     1      44.282 -18.813   5.083  1.00  0.00    -0.233 NA
HETATM    6  C   UNL     1      44.213 -19.780   4.101  1.00  0.00     0.085 A 
HETATM    7  C   UNL     1      43.466 -19.330   3.018  1.00  0.00     0.062 A 
HETATM    8  C   UNL     1      44.784 -21.060   4.058  1.00  0.00     0.034 A 
HETATM    9  C   UNL     1      43.249 -20.091   1.868  1.00  0.00     0.032 A 
HETATM   10  N   UNL     1      43.058 -18.072   3.376  1.00  0.00    -0.343 N 
HETATM   11  C   UNL     1      43.833 -21.362   1.838  1.00  0.00     0.002 A 
HETATM   12  C   UNL     1      44.587 -21.842   2.912  1.00  0.00     0.002 A 
HETATM   13  H   UNL     1      42.481 -17.460   2.815  1.00  0.00     0.167 HD
ENDBRANCH   3   4
ENDBRANCH   2   3
ENDBRANCH   1   2
BRANCH   1  14
HETATM   14  N   UNL     1      39.831 -15.275   5.869  1.00  0.00    -0.068 N 
HETATM   15  H   UNL     1      39.350 -14.370   5.861  1.00  0.00     0.275 HD
HETATM   16  H   UNL     1      39.329 -15.875   5.205  1.00  0.00     0.275 HD
HETATM   17  H   UNL     1      39.790 -15.652   6.833  1.00  0.00     0.275 HD
ENDBRANCH   1  14
BRANCH   1  18
HETATM   18  C   UNL     1      41.310 -14.959   3.981  1.00  0.00     0.136 A 
HETATM   19  N   UNL     1      40.954 -15.892   3.120  1.00  0.00    -0.231 NA
HETATM   20  C   UNL     1      41.160 -15.337   1.877  1.00  0.00     0.085 A 
HETATM   21  C   UNL     1      41.611 -14.026   1.992  1.00  0.00     0.062 A 
HETATM   22  C   UNL     1      40.976 -15.890   0.602  1.00  0.00     0.034 A 
HETATM   23  N   UNL     1      41.701 -13.808   3.342  1.00  0.00    -0.341 N 
HETATM   24  C   UNL     1      41.881 -13.208   0.893  1.00  0.00     0.032 A 
HETATM   25  H   UNL     1      42.001 -12.940   3.769  1.00  0.00     0.167 HD
HETATM   26  C   UNL     1      41.690 -13.776  -0.371  1.00  0.00     0.002 A 
HETATM   27  C   UNL     1      41.249 -15.093  -0.517  1.00  0.00     0.002 A 
ENDBRANCH   1  18
TORSDOF 5
ENDMDL
MODEL 9
REMARK VINA RESULT:      -7.2      2.290      3.801
REMARK  5 active torsions:
REMARK  status: ('A' for Active; 'I' for Inactive)
REMARK    1  A    between atoms: C_6  and  C_7 
REMARK    2  A    between atoms: C_7  and  C_8 
REMARK    3  A    between atoms: C_8  and  C_9 
REMARK    4  A    between atoms: C_9  and  N_10 
REMARK    5  A    between atoms: C_9  and  C_14 
ROOT
HETATM    1  C   UNL     1      41.460 -16.852   2.143  1.00  0.00     0.253 C 
ENDROOT
BRANCH   1   2
HETATM    2  C   UNL     1      42.908 -16.543   1.704  1.00  0.00     0.048 C 
BRANCH   2   3
HETATM    3  C   UNL     1      43.704 -17.694   1.072  1.00  0.00     0.081 C 
BRANCH   3   4
HETATM    4  C   UNL     1      43.894 -18.820   2.024  1.00  0.00     0.105 A 
HETATM    5  N   UNL     1      44.141 -18.680   3.312  1.00  0.00    -0.233 NA
HETATM    6  C   UNL     1      44.340 -19.962   3.781  1.00  0.00     0.085 A 
HETATM    7  C   UNL     1      44.192 -20.890   2.756  1.00  0.00     0.062 A 
HETATM    8  C   UNL     1      44.672 -20.407   5.069  1.00  0.00     0.034 A 
HETATM    9  C   UNL     1      44.361 -22.264   2.937  1.00  0.00     0.032 A 
HETATM   10  N   UNL     1      43.872 -20.142   1.654  1.00  0.00    -0.343 N 
HETATM   11  C   UNL     1      44.700 -22.690   4.226  1.00  0.00     0.002 A 
HETATM   12  C   UNL     1      44.853 -21.781   5.275  1.00  0.00     0.002 A 
HETATM   13  H   UNL     1      43.684 -20.509   0.730  1.00  0.00     0.167 HD
ENDBRANCH   3   4
ENDBRANCH   2   3
ENDBRANCH   1   2
BRANCH   1  14
HETATM   14  N   UNL     1      40.602 -17.143   0.968  1.00  0.00    -0.068 N 
HETATM   15  H   UNL     1      40.799 -18.084   0.615  1.00  0.00     0.275 HD
HETATM   16  H   UNL     1      39.609 -17.132   1.223  1.00  0.00     0.275 HD
HETATM   17  H   UNL     1      40.811 -16.466   0.213  1.00  0.00     0.275 HD
ENDBRANCH   1  14
BRANCH   1  18
HETATM   18  C   UNL     1      40.877 -15.695   2.887  1.00  0.00     0.136 A 
HETATM   19  N   UNL     1      40.391 -14.606   2.325  1.00  0.00    -0.231 NA
HETATM   20  C   UNL     1      39.952 -13.823   3.370  1.00  0.00     0.085 A 
HETATM   21  C   UNL     1      40.140 -14.473   4.585  1.00  0.00     0.062 A 
HETATM   22  C   UNL     1      39.375 -12.546   3.357  1.00  0.00     0.034 A 
HETATM   23  N   UNL     1      40.733 -15.664   4.252  1.00  0.00    -0.341 N 
HETATM   24  C   UNL     1      39.767 -13.927   5.814  1.00  0.00     0.032 A 
HETATM   25  H   UNL     1      41.002 -16.380   4.915  1.00  0.00     0.167 HD
HETATM   26  C   UNL     1      39.189 -12.653   5.782  1.00  0.00     0.002 A 
HETATM   27  C   UNL     1      38.999 -11.971   4.578  1.00  0.00     0.002 A 
ENDBRANCH   1  18
TORSDOF 5
ENDMDL
MODEL 10
REMARK VINA RESULT:      -7.2      1.595      5.794
REMARK  5 active torsions:
REMARK  status: ('A' for Active; 'I' for Inactive)
REMARK    1  A    between atoms: C_6  and  C_7 
REMARK    2  A    between atoms: C_7  and  C_8 
REMARK    3  A    between atoms: C_8  and  C_9 
REMARK    4  A    between atoms: C_9  and  N_10 
REMARK    5  A    between atoms: C_9  and  C_14 
ROOT
HETATM    1  C   UNL     1      42.077 -16.994   6.728  1.00  0.00     0.253 C 
ENDROOT
BRANCH   1   2
HETATM    2  C   UNL     1      40.680 -16.503   6.293  1.00  0.00     0.048 C 
BRANCH   2   3
HETATM    3  C   UNL     1      40.574 -15.050   5.808  1.00  0.00     0.081 C 
BRANCH   3   4
HETATM    4  C   UNL     1      40.571 -14.962   4.324  1.00  0.00     0.105 A 
HETATM    5  N   UNL     1      41.648 -15.049   3.566  1.00  0.00    -0.233 NA
HETATM    6  C   UNL     1      41.201 -14.819   2.280  1.00  0.00     0.085 A 
HETATM    7  C   UNL     1      39.826 -14.608   2.267  1.00  0.00     0.062 A 
HETATM    8  C   UNL     1      41.918 -14.755   1.077  1.00  0.00     0.034 A 
HETATM    9  C   UNL     1      39.106 -14.329   1.105  1.00  0.00     0.032 A 
HETATM   10  N   UNL     1      39.442 -14.741   3.576  1.00  0.00    -0.343 N 
HETATM   11  C   UNL     1      39.838 -14.260  -0.086  1.00  0.00     0.002 A 
HETATM   12  C   UNL     1      41.219 -14.470  -0.103  1.00  0.00     0.002 A 
HETATM   13  H   UNL     1      38.494 -14.659   3.920  1.00  0.00     0.167 HD
ENDBRANCH   3   4
ENDBRANCH   2   3
ENDBRANCH   1   2
BRANCH   1  14
HETATM   14  N   UNL     1      42.986 -15.849   6.979  1.00  0.00    -0.068 N 
HETATM   15  H   UNL     1      42.441 -14.994   7.128  1.00  0.00     0.275 HD
HETATM   16  H   UNL     1      43.537 -15.993   7.833  1.00  0.00     0.275 HD
HETATM   17  H   UNL     1      43.594 -15.703   6.153  1.00  0.00     0.275 HD
ENDBRANCH   1  14
BRANCH   1  18
HETATM   18  C   UNL     1      42.683 -17.864   5.675  1.00  0.00     0.136 A 
HETATM   19  N   UNL     1      43.660 -18.725   5.879  1.00  0.00    -0.231 NA
HETATM   20  C   UNL     1      43.890 -19.310   4.654  1.00  0.00     0.085 A 
HETATM   21  C   UNL     1      43.005 -18.820   3.700  1.00  0.00     0.062 A 
HETATM   22  C   UNL     1      44.836 -20.275   4.280  1.00  0.00     0.034 A 
HETATM   23  N   UNL     1      42.246 -17.897   4.374  1.00  0.00    -0.341 N 
HETATM   24  C   UNL     1      42.991 -19.251   2.372  1.00  0.00     0.032 A 
HETATM   25  H   UNL     1      41.498 -17.354   3.962  1.00  0.00     0.167 HD
HETATM   26  C   UNL     1      43.939 -20.216   2.018  1.00  0.00     0.002 A 
HETATM   27  C   UNL     1      44.849 -20.718   2.952  1.00  0.00     0.002 A 
ENDBRANCH   1  18
TORSDOF 5
ENDMDL
