MODEL 1
REMARK VINA RESULT:      -7.8      0.000      0.000
REMARK  3 active torsions:
REMARK  status: ('A' for Active; 'I' for Inactive)
REMARK    1  A    between atoms: C_6  and  N_7 
REMARK    2  A    between atoms: N_7  and  C_8 
REMARK    3  A    between atoms: C_8  and  C_9 
ROOT
HETATM    1  C   UNL     1      44.776 -21.025   5.144  1.00  0.00     0.024 A 
HETATM    2  C   UNL     1      44.449 -19.670   5.206  1.00  0.00     0.046 A 
HETATM    3  C   UNL     1      44.564 -18.952   6.443  1.00  0.00     0.099 C 
HETATM    4  N   UNL     1      44.652 -18.325   7.413  1.00  0.00    -0.191 NA
HETATM    5  C   UNL     1      44.021 -18.991   4.052  1.00  0.00     0.047 A 
HETATM    6  C   UNL     1      43.883 -19.658   2.827  1.00  0.00     0.032 A 
HETATM    7  C   UNL     1      44.258 -21.022   2.785  1.00  0.00     0.055 A 
HETATM    8 CL   UNL     1      44.183 -21.898   1.294  1.00  0.00    -0.082 Cl
HETATM    9  C   UNL     1      44.686 -21.701   3.929  1.00  0.00     0.027 A 
ENDROOT
BRANCH   6  10
HETATM   10  N   UNL     1      43.543 -18.990   1.629  1.00  0.00    -0.286 NA
HETATM   11  H   UNL     1      42.529 -19.085   1.486  1.00  0.00     0.128 HD
BRANCH  10  12
HETATM   12  C   UNL     1      43.999 -17.614   1.384  1.00  0.00     0.149 C 
BRANCH  12  13
HETATM   13  C   UNL     1      42.773 -16.717   1.328  1.00  0.00     0.029 A 
HETATM   14  N   UNL     1      42.405 -16.292   0.063  1.00  0.00    -0.338 N 
HETATM   15  H   UNL     1      42.976 -16.589  -0.731  1.00  0.00     0.168 HD
HETATM   16  C   UNL     1      41.367 -15.516  -0.109  1.00  0.00     0.158 A 
HETATM   17  N   UNL     1      40.635 -15.112   0.906  1.00  0.00    -0.269 N 
HETATM   18  S   UNL     1      40.832 -14.927  -1.651  1.00  0.00    -0.064 SA
HETATM   19  C   UNL     1      40.897 -15.469   2.246  1.00  0.00     0.255 A 
HETATM   20  C   UNL     1      39.585 -14.303   0.519  1.00  0.00     0.109 A 
HETATM   21  O   UNL     1      40.197 -15.080   3.162  1.00  0.00    -0.268 OA
HETATM   22  C   UNL     1      42.076 -16.337   2.408  1.00  0.00     0.101 A 
HETATM   23  C   UNL     1      39.540 -14.101  -0.806  1.00  0.00     0.071 A 
ENDBRANCH  12  13
ENDBRANCH  10  12
ENDBRANCH   6  10
TORSDOF 3
ENDMDL
MODEL 2
REMARK VINA RESULT:      -7.8      3.165      4.216
REMARK  3 active torsions:
REMARK  status: ('A' for Active; 'I' for Inactive)
REMARK    1  A    between atoms: C_6  and  N_7 
REMARK    2  A    between atoms: N_7  and  C_8 
REMARK    3  A    between atoms: C_8  and  C_9 
ROOT
HETATM    1  C   UNL     1      44.088 -19.318   3.895  1.00  0.00     0.024 A 
HETATM    2  C   UNL     1      44.009 -19.781   2.581  1.00  0.00     0.046 A 
HETATM    3  C   UNL     1      44.253 -21.163   2.283  1.00  0.00     0.099 C 
HETATM    4  N   UNL     1      44.429 -22.271   1.992  1.00  0.00    -0.191 NA
HETATM    5  C   UNL     1      43.669 -18.901   1.539  1.00  0.00     0.047 A 
HETATM    6  C   UNL     1      43.434 -17.541   1.785  1.00  0.00     0.032 A 
HETATM    7  C   UNL     1      43.484 -17.108   3.131  1.00  0.00     0.055 A 
HETATM    8 CL   UNL     1      43.138 -15.459   3.526  1.00  0.00    -0.082 Cl
HETATM    9  C   UNL     1      43.819 -17.979   4.171  1.00  0.00     0.027 A 
ENDROOT
BRANCH   6  10
HETATM   10  N   UNL     1      43.003 -16.648   0.779  1.00  0.00    -0.286 NA
HETATM   11  H   UNL     1      43.572 -16.814  -0.062  1.00  0.00     0.128 HD
BRANCH  10  12
HETATM   12  C   UNL     1      41.576 -16.521   0.451  1.00  0.00     0.149 C 
BRANCH  12  13
HETATM   13  C   UNL     1      41.452 -15.617  -0.765  1.00  0.00     0.029 A 
HETATM   14  N   UNL     1      42.015 -14.360  -0.629  1.00  0.00    -0.338 N 
HETATM   15  H   UNL     1      42.455 -14.121   0.262  1.00  0.00     0.168 HD
HETATM   16  C   UNL     1      41.971 -13.495  -1.608  1.00  0.00     0.158 A 
HETATM   17  N   UNL     1      41.393 -13.784  -2.755  1.00  0.00    -0.269 N 
HETATM   18  S   UNL     1      42.641 -11.896  -1.533  1.00  0.00    -0.064 SA
HETATM   19  C   UNL     1      40.779 -15.025  -3.027  1.00  0.00     0.255 A 
HETATM   20  C   UNL     1      41.451 -12.743  -3.659  1.00  0.00     0.109 A 
HETATM   21  O   UNL     1      40.256 -15.260  -4.100  1.00  0.00    -0.268 OA
HETATM   22  C   UNL     1      40.840 -15.975  -1.902  1.00  0.00     0.101 A 
HETATM   23  C   UNL     1      42.080 -11.662  -3.175  1.00  0.00     0.071 A 
ENDBRANCH  12  13
ENDBRANCH  10  12
ENDBRANCH   6  10
TORSDOF 3
ENDMDL
MODEL 3
REMARK VINA RESULT:      -7.7      2.650      3.446
REMARK  3 active torsions:
REMARK  status: ('A' for Active; 'I' for Inactive)
REMARK    1  A    between atoms: C_6  and  N_7 
REMARK    2  A    between atoms: N_7  and  C_8 
REMARK    3  A    between atoms: C_8  and  C_9 
ROOT
HETATM    1  C   UNL     1      44.630 -19.884   3.972  1.00  0.00     0.024 A 
HETATM    2  C   UNL     1      43.903 -20.122   2.804  1.00  0.00     0.046 A 
HETATM    3  C   UNL     1      44.117 -21.323   2.049  1.00  0.00     0.099 C 
HETATM    4  N   UNL     1      44.243 -22.281   1.410  1.00  0.00    -0.191 NA
HETATM    5  C   UNL     1      42.940 -19.195   2.368  1.00  0.00     0.047 A 
HETATM    6  C   UNL     1      42.709 -18.005   3.070  1.00  0.00     0.032 A 
HETATM    7  C   UNL     1      43.433 -17.808   4.270  1.00  0.00     0.055 A 
HETATM    8 CL   UNL     1      43.155 -16.396   5.232  1.00  0.00    -0.082 Cl
HETATM    9  C   UNL     1      44.389 -18.727   4.710  1.00  0.00     0.027 A 
ENDROOT
BRANCH   6  10
HETATM   10  N   UNL     1      41.689 -17.095   2.713  1.00  0.00    -0.286 NA
HETATM   11  H   UNL     1      42.039 -16.141   2.876  1.00  0.00     0.128 HD
BRANCH  10  12
HETATM   12  C   UNL     1      41.005 -17.207   1.417  1.00  0.00     0.149 C 
BRANCH  12  13
HETATM   13  C   UNL     1      41.250 -15.922   0.644  1.00  0.00     0.029 A 
HETATM   14  N   UNL     1      40.925 -15.966  -0.701  1.00  0.00    -0.338 N 
HETATM   15  H   UNL     1      40.563 -16.843  -1.081  1.00  0.00     0.168 HD
HETATM   16  C   UNL     1      41.094 -14.921  -1.467  1.00  0.00     0.158 A 
HETATM   17  N   UNL     1      41.575 -13.792  -0.993  1.00  0.00    -0.269 N 
HETATM   18  S   UNL     1      40.722 -14.880  -3.161  1.00  0.00    -0.064 SA
HETATM   19  C   UNL     1      41.949 -13.609   0.355  1.00  0.00     0.255 A 
HETATM   20  C   UNL     1      41.676 -12.808  -1.957  1.00  0.00     0.109 A 
HETATM   21  O   UNL     1      42.388 -12.550   0.761  1.00  0.00    -0.268 OA
HETATM   22  C   UNL     1      41.754 -14.807   1.191  1.00  0.00     0.101 A 
HETATM   23  C   UNL     1      41.265 -13.215  -3.167  1.00  0.00     0.071 A 
ENDBRANCH  12  13
ENDBRANCH  10  12
ENDBRANCH   6  10
TORSDOF 3
ENDMDL
MODEL 4
REMARK VINA RESULT:      -7.4      2.603      3.462
REMARK  3 active torsions:
REMARK  status: ('A' for Active; 'I' for Inactive)
REMARK    1  A    between atoms: C_6  and  N_7 
REMARK    2  A    between atoms: N_7  and  C_8 
REMARK    3  A    between atoms: C_8  and  C_9 
ROOT
HETATM    1  C   UNL     1      44.949 -20.533   4.358  1.00  0.00     0.024 A 
HETATM    2  C   UNL     1      44.290 -20.360   3.140  1.00  0.00     0.046 A 
HETATM    3  C   UNL     1      44.268 -21.417   2.170  1.00  0.00     0.099 C 
HETATM    4  N   UNL     1      44.210 -22.243   1.360  1.00  0.00    -0.191 NA
HETATM    5  C   UNL     1      43.625 -19.153   2.860  1.00  0.00     0.047 A 
HETATM    6  C   UNL     1      43.632 -18.091   3.774  1.00  0.00     0.032 A 
HETATM    7  C   UNL     1      44.275 -18.308   5.016  1.00  0.00     0.055 A 
HETATM    8 CL   UNL     1      44.269 -17.072   6.226  1.00  0.00    -0.082 Cl
HETATM    9  C   UNL     1      44.936 -19.507   5.301  1.00  0.00     0.027 A 
ENDROOT
BRANCH   6  10
HETATM   10  N   UNL     1      42.901 -16.900   3.566  1.00  0.00    -0.286 NA
HETATM   11  H   UNL     1      43.312 -16.409   2.760  1.00  0.00     0.128 HD
BRANCH  10  12
HETATM   12  C   UNL     1      41.433 -16.925   3.495  1.00  0.00     0.149 C 
BRANCH  12  13
HETATM   13  C   UNL     1      41.011 -16.161   2.251  1.00  0.00     0.029 A 
HETATM   14  N   UNL     1      40.169 -15.085   2.473  1.00  0.00    -0.338 N 
HETATM   15  H   UNL     1      39.882 -14.886   3.434  1.00  0.00     0.168 HD
HETATM   16  C   UNL     1      39.739 -14.353   1.479  1.00  0.00     0.158 A 
HETATM   17  N   UNL     1      40.087 -14.608   0.236  1.00  0.00    -0.269 N 
HETATM   18  S   UNL     1      38.680 -12.989   1.655  1.00  0.00    -0.064 SA
HETATM   19  C   UNL     1      40.936 -15.674  -0.131  1.00  0.00     0.255 A 
HETATM   20  C   UNL     1      39.532 -13.723  -0.666  1.00  0.00     0.109 A 
HETATM   21  O   UNL     1      41.240 -15.880  -1.291  1.00  0.00    -0.268 OA
HETATM   22  C   UNL     1      41.398 -16.483   1.010  1.00  0.00     0.101 A 
HETATM   23  C   UNL     1      38.756 -12.797  -0.084  1.00  0.00     0.071 A 
ENDBRANCH  12  13
ENDBRANCH  10  12
ENDBRANCH   6  10
TORSDOF 3
ENDMDL
MODEL 5
REMARK VINA RESULT:      -7.4      1.833      2.134
REMARK  3 active torsions:
REMARK  status: ('A' for Active; 'I' for Inactive)
REMARK    1  A    between atoms: C_6  and  N_7 
REMARK    2  A    between atoms: N_7  and  C_8 
REMARK    3  A    between atoms: C_8  and  C_9 
ROOT
HETATM    1  C   UNL     1      44.703 -19.143   5.122  1.00  0.00     0.024 A 
HETATM    2  C   UNL     1      43.973 -17.954   5.158  1.00  0.00     0.046 A 
HETATM    3  C   UNL     1      44.119 -17.047   6.260  1.00  0.00     0.099 C 
HETATM    4  N   UNL     1      44.210 -16.275   7.120  1.00  0.00    -0.191 NA
HETATM    5  C   UNL     1      43.102 -17.626   4.105  1.00  0.00     0.047 A 
HETATM    6  C   UNL     1      42.922 -18.489   3.016  1.00  0.00     0.032 A 
HETATM    7  C   UNL     1      43.703 -19.669   2.987  1.00  0.00     0.055 A 
HETATM    8 CL   UNL     1      43.590 -20.754   1.644  1.00  0.00    -0.082 Cl
HETATM    9  C   UNL     1      44.572 -20.000   4.031  1.00  0.00     0.027 A 
ENDROOT
BRANCH   6  10
HETATM   10  N   UNL     1      42.126 -18.152   1.898  1.00  0.00    -0.286 NA
HETATM   11  H   UNL     1      41.849 -19.023   1.428  1.00  0.00     0.128 HD
BRANCH  10  12
HETATM   12  C   UNL     1      40.992 -17.227   2.039  1.00  0.00     0.149 C 
BRANCH  12  13
HETATM   13  C   UNL     1      41.256 -16.024   1.147  1.00  0.00     0.029 A 
HETATM   14  N   UNL     1      41.011 -16.220  -0.201  1.00  0.00    -0.338 N 
HETATM   15  H   UNL     1      40.690 -17.141  -0.505  1.00  0.00     0.168 HD
HETATM   16  C   UNL     1      41.202 -15.257  -1.065  1.00  0.00     0.158 A 
HETATM   17  N   UNL     1      41.631 -14.072  -0.688  1.00  0.00    -0.269 N 
HETATM   18  S   UNL     1      40.929 -15.406  -2.772  1.00  0.00    -0.064 SA
HETATM   19  C   UNL     1      41.921 -13.737   0.651  1.00  0.00     0.255 A 
HETATM   20  C   UNL     1      41.767 -13.193  -1.745  1.00  0.00     0.109 A 
HETATM   21  O   UNL     1      42.313 -12.629   0.965  1.00  0.00    -0.268 OA
HETATM   22  C   UNL     1      41.702 -14.844   1.598  1.00  0.00     0.101 A 
HETATM   23  C   UNL     1      41.436 -13.737  -2.925  1.00  0.00     0.071 A 
ENDBRANCH  12  13
ENDBRANCH  10  12
ENDBRANCH   6  10
TORSDOF 3
ENDMDL
MODEL 6
REMARK VINA RESULT:      -7.4      2.599      3.499
REMARK  3 active torsions:
REMARK  status: ('A' for Active; 'I' for Inactive)
REMARK    1  A    between atoms: C_6  and  N_7 
REMARK    2  A    between atoms: N_7  and  C_8 
REMARK    3  A    between atoms: C_8  and  C_9 
ROOT
HETATM    1  C   UNL     1      44.472 -19.705   3.925  1.00  0.00     0.024 A 
HETATM    2  C   UNL     1      43.909 -20.034   2.691  1.00  0.00     0.046 A 
HETATM    3  C   UNL     1      44.112 -21.337   2.125  1.00  0.00     0.099 C 
HETATM    4  N   UNL     1      44.236 -22.378   1.632  1.00  0.00    -0.191 NA
HETATM    5  C   UNL     1      43.120 -19.098   2.000  1.00  0.00     0.047 A 
HETATM    6  C   UNL     1      42.906 -17.811   2.512  1.00  0.00     0.032 A 
HETATM    7  C   UNL     1      43.457 -17.517   3.781  1.00  0.00     0.055 A 
HETATM    8 CL   UNL     1      43.181 -15.974   4.514  1.00  0.00    -0.082 Cl
HETATM    9  C   UNL     1      44.240 -18.445   4.474  1.00  0.00     0.027 A 
ENDROOT
BRANCH   6  10
HETATM   10  N   UNL     1      42.047 -16.876   1.891  1.00  0.00    -0.286 NA
HETATM   11  H   UNL     1      42.037 -17.073   0.881  1.00  0.00     0.128 HD
BRANCH  10  12
HETATM   12  C   UNL     1      40.692 -16.643   2.411  1.00  0.00     0.149 C 
BRANCH  12  13
HETATM   13  C   UNL     1      39.991 -15.672   1.475  1.00  0.00     0.029 A 
HETATM   14  N   UNL     1      40.671 -15.380   0.305  1.00  0.00    -0.338 N 
HETATM   15  H   UNL     1      41.584 -15.815   0.156  1.00  0.00     0.168 HD
HETATM   16  C   UNL     1      40.166 -14.558  -0.577  1.00  0.00     0.158 A 
HETATM   17  N   UNL     1      39.000 -13.979  -0.388  1.00  0.00    -0.269 N 
HETATM   18  S   UNL     1      40.942 -14.126  -2.067  1.00  0.00    -0.064 SA
HETATM   19  C   UNL     1      38.204 -14.185   0.758  1.00  0.00     0.255 A 
HETATM   20  C   UNL     1      38.641 -13.148  -1.431  1.00  0.00     0.109 A 
HETATM   21  O   UNL     1      37.128 -13.635   0.900  1.00  0.00    -0.268 OA
HETATM   22  C   UNL     1      38.803 -15.111   1.736  1.00  0.00     0.101 A 
HETATM   23  C   UNL     1      39.558 -13.109  -2.409  1.00  0.00     0.071 A 
ENDBRANCH  12  13
ENDBRANCH  10  12
ENDBRANCH   6  10
TORSDOF 3
ENDMDL
MODEL 7
REMARK VINA RESULT:      -7.2      3.043      4.025
REMARK  3 active torsions:
REMARK  status: ('A' for Active; 'I' for Inactive)
REMARK    1  A    between atoms: C_6  and  N_7 
REMARK    2  A    between atoms: N_7  and  C_8 
REMARK    3  A    between atoms: C_8  and  C_9 
ROOT
HETATM    1  C   UNL     1      45.058 -20.510   4.315  1.00  0.00     0.024 A 
HETATM    2  C   UNL     1      44.295 -20.381   3.153  1.00  0.00     0.046 A 
HETATM    3  C   UNL     1      44.260 -21.440   2.187  1.00  0.00     0.099 C 
HETATM    4  N   UNL     1      44.189 -22.271   1.383  1.00  0.00    -0.191 NA
HETATM    5  C   UNL     1      43.538 -19.218   2.929  1.00  0.00     0.047 A 
HETATM    6  C   UNL     1      43.553 -18.155   3.842  1.00  0.00     0.032 A 
HETATM    7  C   UNL     1      44.305 -18.328   5.028  1.00  0.00     0.055 A 
HETATM    8 CL   UNL     1      44.321 -17.090   6.237  1.00  0.00    -0.082 Cl
HETATM    9  C   UNL     1      45.059 -19.483   5.257  1.00  0.00     0.027 A 
ENDROOT
BRANCH   6  10
HETATM   10  N   UNL     1      42.736 -17.011   3.695  1.00  0.00    -0.286 NA
HETATM   11  H   UNL     1      42.849 -16.659   2.735  1.00  0.00     0.128 HD
BRANCH  10  12
HETATM   12  C   UNL     1      41.323 -17.043   4.098  1.00  0.00     0.149 C 
BRANCH  12  13
HETATM   13  C   UNL     1      40.629 -15.847   3.469  1.00  0.00     0.029 A 
HETATM   14  N   UNL     1      40.390 -14.783   4.322  1.00  0.00    -0.338 N 
HETATM   15  H   UNL     1      40.677 -14.873   5.299  1.00  0.00     0.168 HD
HETATM   16  C   UNL     1      39.799 -13.699   3.894  1.00  0.00     0.158 A 
HETATM   17  N   UNL     1      39.409 -13.577   2.643  1.00  0.00    -0.269 N 
HETATM   18  S   UNL     1      39.452 -12.317   4.885  1.00  0.00    -0.064 SA
HETATM   19  C   UNL     1      39.587 -14.583   1.670  1.00  0.00     0.255 A 
HETATM   20  C   UNL     1      38.807 -12.361   2.387  1.00  0.00     0.109 A 
HETATM   21  O   UNL     1      39.217 -14.436   0.520  1.00  0.00    -0.268 OA
HETATM   22  C   UNL     1      40.250 -15.794   2.185  1.00  0.00     0.101 A 
HETATM   23  C   UNL     1      38.747 -11.568   3.468  1.00  0.00     0.071 A 
ENDBRANCH  12  13
ENDBRANCH  10  12
ENDBRANCH   6  10
TORSDOF 3
ENDMDL
MODEL 8
REMARK VINA RESULT:      -7.1      2.952      3.660
REMARK  3 active torsions:
REMARK  status: ('A' for Active; 'I' for Inactive)
REMARK    1  A    between atoms: C_6  and  N_7 
REMARK    2  A    between atoms: N_7  and  C_8 
REMARK    3  A    between atoms: C_8  and  C_9 
ROOT
HETATM    1  C   UNL     1      44.511 -19.946   2.681  1.00  0.00     0.024 A 
HETATM    2  C   UNL     1      44.418 -20.091   4.066  1.00  0.00     0.046 A 
HETATM    3  C   UNL     1      44.823 -21.315   4.695  1.00  0.00     0.099 C 
HETATM    4  N   UNL     1      45.149 -22.278   5.252  1.00  0.00    -0.191 NA
HETATM    5  C   UNL     1      43.944 -19.032   4.859  1.00  0.00     0.047 A 
HETATM    6  C   UNL     1      43.527 -17.824   4.283  1.00  0.00     0.032 A 
HETATM    7  C   UNL     1      43.668 -17.691   2.882  1.00  0.00     0.055 A 
HETATM    8 CL   UNL     1      43.240 -16.206   2.102  1.00  0.00    -0.082 Cl
HETATM    9  C   UNL     1      44.140 -18.740   2.088  1.00  0.00     0.027 A 
ENDROOT
BRANCH   6  10
HETATM   10  N   UNL     1      43.131 -16.708   5.055  1.00  0.00    -0.286 NA
HETATM   11  H   UNL     1      43.395 -15.856   4.543  1.00  0.00     0.128 HD
BRANCH  10  12
HETATM   12  C   UNL     1      41.767 -16.617   5.595  1.00  0.00     0.149 C 
BRANCH  12  13
HETATM   13  C   UNL     1      41.109 -15.384   4.998  1.00  0.00     0.029 A 
HETATM   14  N   UNL     1      40.433 -15.589   3.807  1.00  0.00    -0.338 N 
HETATM   15  H   UNL     1      40.433 -16.530   3.408  1.00  0.00     0.168 HD
HETATM   16  C   UNL     1      39.828 -14.602   3.200  1.00  0.00     0.158 A 
HETATM   17  N   UNL     1      39.836 -13.383   3.695  1.00  0.00    -0.269 N 
HETATM   18  S   UNL     1      38.962 -14.758   1.705  1.00  0.00    -0.064 SA
HETATM   19  C   UNL     1      40.487 -13.034   4.897  1.00  0.00     0.255 A 
HETATM   20  C   UNL     1      39.142 -12.484   2.909  1.00  0.00     0.109 A 
HETATM   21  O   UNL     1      40.472 -11.896   5.328  1.00  0.00    -0.268 OA
HETATM   22  C   UNL     1      41.165 -14.166   5.553  1.00  0.00     0.101 A 
HETATM   23  C   UNL     1      38.612 -13.045   1.813  1.00  0.00     0.071 A 
ENDBRANCH  12  13
ENDBRANCH  10  12
ENDBRANCH   6  10
TORSDOF 3
ENDMDL
MODEL 9
REMARK VINA RESULT:      -6.8      3.643      7.488
REMARK  3 active torsions:
REMARK  status: ('A' for Active; 'I' for Inactive)
REMARK    1  A    between atoms: C_6  and  N_7 
REMARK    2  A    between atoms: N_7  and  C_8 
REMARK    3  A    between atoms: C_8  and  C_9 
ROOT
HETATM    1  C   UNL     1      42.109 -12.854  -3.059  1.00  0.00     0.024 A 
HETATM    2  C   UNL     1      42.311 -12.678  -1.689  1.00  0.00     0.046 A 
HETATM    3  C   UNL     1      42.997 -11.516  -1.201  1.00  0.00     0.099 C 
HETATM    4  N   UNL     1      43.533 -10.591  -0.755  1.00  0.00    -0.191 NA
HETATM    5  C   UNL     1      41.827 -13.629  -0.774  1.00  0.00     0.047 A 
HETATM    6  C   UNL     1      41.163 -14.783  -1.210  1.00  0.00     0.032 A 
HETATM    7  C   UNL     1      40.939 -14.916  -2.601  1.00  0.00     0.055 A 
HETATM    8 CL   UNL     1      40.065 -16.278  -3.214  1.00  0.00    -0.082 Cl
HETATM    9  C   UNL     1      41.415 -13.973  -3.515  1.00  0.00     0.027 A 
ENDROOT
BRANCH   6  10
HETATM   10  N   UNL     1      40.585 -15.713  -0.318  1.00  0.00    -0.286 NA
HETATM   11  H   UNL     1      41.024 -16.629  -0.481  1.00  0.00     0.128 HD
BRANCH  10  12
HETATM   12  C   UNL     1      40.481 -15.410   1.117  1.00  0.00     0.149 C 
BRANCH  12  13
HETATM   13  C   UNL     1      41.379 -16.379   1.868  1.00  0.00     0.029 A 
HETATM   14  N   UNL     1      41.818 -15.944   3.106  1.00  0.00    -0.338 N 
HETATM   15  H   UNL     1      41.529 -15.015   3.422  1.00  0.00     0.168 HD
HETATM   16  C   UNL     1      42.597 -16.691   3.843  1.00  0.00     0.158 A 
HETATM   17  N   UNL     1      42.990 -17.881   3.440  1.00  0.00    -0.269 N 
HETATM   18  S   UNL     1      43.203 -16.232   5.403  1.00  0.00    -0.064 SA
HETATM   19  C   UNL     1      42.619 -18.445   2.202  1.00  0.00     0.255 A 
HETATM   20  C   UNL     1      43.805 -18.513   4.358  1.00  0.00     0.109 A 
HETATM   21  O   UNL     1      42.998 -19.550   1.861  1.00  0.00    -0.268 OA
HETATM   22  C   UNL     1      41.748 -17.576   1.392  1.00  0.00     0.101 A 
HETATM   23  C   UNL     1      44.021 -17.780   5.460  1.00  0.00     0.071 A 
ENDBRANCH  12  13
ENDBRANCH  10  12
ENDBRANCH   6  10
TORSDOF 3
ENDMDL
MODEL 10
REMARK VINA RESULT:      -6.8      1.968      2.357
REMARK  3 active torsions:
REMARK  status: ('A' for Active; 'I' for Inactive)
REMARK    1  A    between atoms: C_6  and  N_7 
REMARK    2  A    between atoms: N_7  and  C_8 
REMARK    3  A    between atoms: C_8  and  C_9 
ROOT
HETATM    1  C   UNL     1      44.739 -19.166   5.434  1.00  0.00     0.024 A 
HETATM    2  C   UNL     1      44.011 -17.978   5.346  1.00  0.00     0.046 A 
HETATM    3  C   UNL     1      44.049 -17.023   6.416  1.00  0.00     0.099 C 
HETATM    4  N   UNL     1      44.057 -16.214   7.246  1.00  0.00    -0.191 NA
HETATM    5  C   UNL     1      43.248 -17.699   4.199  1.00  0.00     0.047 A 
HETATM    6  C   UNL     1      43.174 -18.610   3.137  1.00  0.00     0.032 A 
HETATM    7  C   UNL     1      43.952 -19.788   3.237  1.00  0.00     0.055 A 
HETATM    8 CL   UNL     1      43.970 -20.931   1.938  1.00  0.00    -0.082 Cl
HETATM    9  C   UNL     1      44.714 -20.069   4.374  1.00  0.00     0.027 A 
ENDROOT
BRANCH   6  10
HETATM   10  N   UNL     1      42.492 -18.324   1.933  1.00  0.00    -0.286 NA
HETATM   11  H   UNL     1      41.509 -18.126   2.162  1.00  0.00     0.128 HD
BRANCH  10  12
HETATM   12  C   UNL     1      43.035 -17.347   0.979  1.00  0.00     0.149 C 
BRANCH  12  13
HETATM   13  C   UNL     1      41.974 -16.284   0.741  1.00  0.00     0.029 A 
HETATM   14  N   UNL     1      41.493 -15.660   1.880  1.00  0.00    -0.338 N 
HETATM   15  H   UNL     1      41.863 -15.957   2.785  1.00  0.00     0.168 HD
HETATM   16  C   UNL     1      40.579 -14.730   1.801  1.00  0.00     0.158 A 
HETATM   17  N   UNL     1      40.082 -14.352   0.642  1.00  0.00    -0.269 N 
HETATM   18  S   UNL     1      39.911 -13.896   3.168  1.00  0.00    -0.064 SA
HETATM   19  C   UNL     1      40.480 -14.904  -0.593  1.00  0.00     0.255 A 
HETATM   20  C   UNL     1      39.131 -13.359   0.768  1.00  0.00     0.109 A 
HETATM   21  O   UNL     1      40.002 -14.529  -1.647  1.00  0.00    -0.268 OA
HETATM   22  C   UNL     1      41.506 -15.954  -0.470  1.00  0.00     0.101 A 
HETATM   23  C   UNL     1      38.916 -12.996   2.041  1.00  0.00     0.071 A 
ENDBRANCH  12  13
ENDBRANCH  10  12
ENDBRANCH   6  10
TORSDOF 3
ENDMDL
