MODEL 1
REMARK VINA RESULT:      -8.3      0.000      0.000
REMARK  6 active torsions:
REMARK  status: ('A' for Active; 'I' for Inactive)
REMARK    1  A    between atoms: N_4  and  C_5 
REMARK    2  A    between atoms: C_14  and  C_15 
REMARK       I    between atoms: C_15  and  N_16 
REMARK    3  A    between atoms: N_16  and  C_17 
REMARK    4  A    between atoms: C_17  and  C_18 
REMARK    5  A    between atoms: C_18  and  O_19 
REMARK    6  A    between atoms: C_18  and  C_20 
ROOT
HETATM    1  C   UNL     1      41.895 -15.368   0.714  1.00  0.00     0.255 C 
HETATM    2  N   UNL     1      42.258 -16.650   0.370  1.00  0.00    -0.354 N 
HETATM    3  O   UNL     1      42.558 -14.688   1.492  1.00  0.00    -0.268 OA
HETATM    4  H   UNL     1      41.559 -17.256  -0.039  1.00  0.00     0.162 HD
ENDROOT
BRANCH   1   5
HETATM    5  C   UNL     1      40.650 -14.879   0.132  1.00  0.00     0.082 C 
HETATM    6  C   UNL     1      39.474 -14.562   0.857  1.00  0.00     0.069 C 
HETATM    7  C   UNL     1      39.237 -14.686   2.319  1.00  0.00     0.073 C 
HETATM    8  N   UNL     1      38.513 -14.083   0.070  1.00  0.00    -0.171 NA
HETATM    9  N   UNL     1      39.008 -14.146  -1.190  1.00  0.00    -0.237 N 
HETATM   10  C   UNL     1      40.351 -14.523  -1.184  1.00  0.00     0.050 C 
HETATM   11  C   UNL     1      41.259 -14.405  -2.357  1.00  0.00     0.071 C 
BRANCH   9  12
HETATM   12  C   UNL     1      38.132 -13.822  -2.275  1.00  0.00     0.058 A 
HETATM   13  C   UNL     1      37.687 -14.859  -3.116  1.00  0.00     0.033 A 
HETATM   14  C   UNL     1      36.827 -14.594  -4.185  1.00  0.00     0.021 A 
HETATM   15  C   UNL     1      36.422 -13.288  -4.435  1.00  0.00     0.011 A 
HETATM   16 BR   UNL     1      35.263 -12.922  -5.882  1.00  0.00    -0.051 Br
HETATM   17  C   UNL     1      36.876 -12.245  -3.630  1.00  0.00     0.021 A 
HETATM   18  C   UNL     1      37.733 -12.508  -2.553  1.00  0.00     0.033 A 
ENDBRANCH   9  12
ENDBRANCH   1   5
BRANCH   2  19
HETATM   19  C   UNL     1      43.384 -17.304   1.020  1.00  0.00     0.159 C 
BRANCH  19  20
HETATM   20  C   UNL     1      43.019 -17.814   2.423  1.00  0.00     0.169 C 
BRANCH  20  21
HETATM   21  O   UNL     1      43.566 -16.929   3.410  1.00  0.00    -0.389 OA
HETATM   22  H   UNL     1      42.939 -16.190   3.506  1.00  0.00     0.210 HD
ENDBRANCH  20  21
BRANCH  20  23
HETATM   23  C   UNL     1      43.513 -19.227   2.659  1.00  0.00    -0.028 A 
HETATM   24  C   UNL     1      43.212 -20.242   1.734  1.00  0.00     0.013 A 
HETATM   25  C   UNL     1      43.691 -21.539   1.926  1.00  0.00     0.043 A 
HETATM   26  C   UNL     1      44.471 -21.826   3.040  1.00  0.00     0.116 A 
HETATM   27  F   UNL     1      44.935 -23.069   3.218  1.00  0.00    -0.206 F 
HETATM   28  C   UNL     1      44.779 -20.840   3.969  1.00  0.00     0.043 A 
HETATM   29  C   UNL     1      44.299 -19.542   3.781  1.00  0.00     0.013 A 
ENDBRANCH  20  23
ENDBRANCH  19  20
ENDBRANCH   2  19
TORSDOF 6
ENDMDL
MODEL 2
REMARK VINA RESULT:      -8.1      4.781      9.275
REMARK  6 active torsions:
REMARK  status: ('A' for Active; 'I' for Inactive)
REMARK    1  A    between atoms: N_4  and  C_5 
REMARK    2  A    between atoms: C_14  and  C_15 
REMARK       I    between atoms: C_15  and  N_16 
REMARK    3  A    between atoms: N_16  and  C_17 
REMARK    4  A    between atoms: C_17  and  C_18 
REMARK    5  A    between atoms: C_18  and  O_19 
REMARK    6  A    between atoms: C_18  and  C_20 
ROOT
HETATM    1  C   UNL     1      41.419 -14.509   0.646  1.00  0.00     0.255 C 
HETATM    2  N   UNL     1      42.077 -14.280  -0.541  1.00  0.00    -0.354 N 
HETATM    3  O   UNL     1      40.327 -14.007   0.896  1.00  0.00    -0.268 OA
HETATM    4  H   UNL     1      43.067 -14.479  -0.589  1.00  0.00     0.162 HD
ENDROOT
BRANCH   1   5
HETATM    5  C   UNL     1      42.116 -15.354   1.610  1.00  0.00     0.082 C 
HETATM    6  C   UNL     1      42.856 -14.888   2.724  1.00  0.00     0.069 C 
HETATM    7  C   UNL     1      43.112 -13.481   3.133  1.00  0.00     0.073 C 
HETATM    8  N   UNL     1      43.335 -15.887   3.463  1.00  0.00    -0.171 NA
HETATM    9  N   UNL     1      42.987 -17.023   2.810  1.00  0.00    -0.237 N 
HETATM   10  C   UNL     1      42.146 -16.744   1.732  1.00  0.00     0.050 C 
HETATM   11  C   UNL     1      41.358 -17.771   0.997  1.00  0.00     0.071 C 
BRANCH   9  12
HETATM   12  C   UNL     1      43.493 -18.266   3.305  1.00  0.00     0.058 A 
HETATM   13  C   UNL     1      43.573 -18.456   4.698  1.00  0.00     0.033 A 
HETATM   14  C   UNL     1      44.055 -19.654   5.230  1.00  0.00     0.021 A 
HETATM   15  C   UNL     1      44.482 -20.664   4.375  1.00  0.00     0.011 A 
HETATM   16 BR   UNL     1      45.139 -22.287   5.089  1.00  0.00    -0.051 Br
HETATM   17  C   UNL     1      44.437 -20.483   2.995  1.00  0.00     0.021 A 
HETATM   18  C   UNL     1      43.947 -19.284   2.458  1.00  0.00     0.033 A 
ENDBRANCH   9  12
ENDBRANCH   1   5
BRANCH   2  19
HETATM   19  C   UNL     1      41.559 -13.319  -1.504  1.00  0.00     0.159 C 
BRANCH  19  20
HETATM   20  C   UNL     1      41.414 -13.935  -2.906  1.00  0.00     0.169 C 
BRANCH  20  21
HETATM   21  O   UNL     1      41.992 -13.053  -3.876  1.00  0.00    -0.389 OA
HETATM   22  H   UNL     1      42.133 -12.197  -3.432  1.00  0.00     0.210 HD
ENDBRANCH  20  21
BRANCH  20  23
HETATM   23  C   UNL     1      39.966 -14.216  -3.253  1.00  0.00    -0.028 A 
HETATM   24  C   UNL     1      39.006 -13.195  -3.151  1.00  0.00     0.013 A 
HETATM   25  C   UNL     1      37.676 -13.436  -3.501  1.00  0.00     0.043 A 
HETATM   26  C   UNL     1      37.302 -14.695  -3.954  1.00  0.00     0.116 A 
HETATM   27  F   UNL     1      36.027 -14.922  -4.295  1.00  0.00    -0.206 F 
HETATM   28  C   UNL     1      38.233 -15.721  -4.061  1.00  0.00     0.043 A 
HETATM   29  C   UNL     1      39.563 -15.483  -3.709  1.00  0.00     0.013 A 
ENDBRANCH  20  23
ENDBRANCH  19  20
ENDBRANCH   2  19
TORSDOF 6
ENDMDL
MODEL 3
REMARK VINA RESULT:      -8.1      5.031      9.231
REMARK  6 active torsions:
REMARK  status: ('A' for Active; 'I' for Inactive)
REMARK    1  A    between atoms: N_4  and  C_5 
REMARK    2  A    between atoms: C_14  and  C_15 
REMARK       I    between atoms: C_15  and  N_16 
REMARK    3  A    between atoms: N_16  and  C_17 
REMARK    4  A    between atoms: C_17  and  C_18 
REMARK    5  A    between atoms: C_18  and  O_19 
REMARK    6  A    between atoms: C_18  and  C_20 
ROOT
HETATM    1  C   UNL     1      40.631 -14.880   0.089  1.00  0.00     0.255 C 
HETATM    2  N   UNL     1      40.872 -15.197  -1.229  1.00  0.00    -0.354 N 
HETATM    3  O   UNL     1      39.789 -14.050   0.419  1.00  0.00    -0.268 OA
HETATM    4  H   UNL     1      41.738 -15.662  -1.463  1.00  0.00     0.162 HD
ENDROOT
BRANCH   1   5
HETATM    5  C   UNL     1      41.468 -15.560   1.072  1.00  0.00     0.082 C 
HETATM    6  C   UNL     1      42.309 -14.920   2.015  1.00  0.00     0.069 C 
HETATM    7  C   UNL     1      42.550 -13.463   2.191  1.00  0.00     0.073 C 
HETATM    8  N   UNL     1      42.910 -15.791   2.824  1.00  0.00    -0.171 NA
HETATM    9  N   UNL     1      42.539 -17.016   2.382  1.00  0.00    -0.237 N 
HETATM   10  C   UNL     1      41.570 -16.916   1.382  1.00  0.00     0.050 C 
HETATM   11  C   UNL     1      40.748 -18.058   0.896  1.00  0.00     0.071 C 
BRANCH   9  12
HETATM   12  C   UNL     1      43.150 -18.163   2.982  1.00  0.00     0.058 A 
HETATM   13  C   UNL     1      43.113 -18.291   4.383  1.00  0.00     0.033 A 
HETATM   14  C   UNL     1      43.691 -19.395   5.016  1.00  0.00     0.021 A 
HETATM   15  C   UNL     1      44.328 -20.368   4.255  1.00  0.00     0.011 A 
HETATM   16 BR   UNL     1      45.115 -21.862   5.105  1.00  0.00    -0.051 Br
HETATM   17  C   UNL     1      44.398 -20.244   2.869  1.00  0.00     0.021 A 
HETATM   18  C   UNL     1      43.814 -19.141   2.231  1.00  0.00     0.033 A 
ENDBRANCH   9  12
ENDBRANCH   1   5
BRANCH   2  19
HETATM   19  C   UNL     1      40.220 -14.460  -2.301  1.00  0.00     0.159 C 
BRANCH  19  20
HETATM   20  C   UNL     1      41.217 -14.031  -3.391  1.00  0.00     0.169 C 
BRANCH  20  21
HETATM   21  O   UNL     1      42.212 -15.051  -3.554  1.00  0.00    -0.389 OA
HETATM   22  H   UNL     1      42.950 -14.649  -4.047  1.00  0.00     0.210 HD
ENDBRANCH  20  21
BRANCH  20  23
HETATM   23  C   UNL     1      41.876 -12.706  -3.065  1.00  0.00    -0.028 A 
HETATM   24  C   UNL     1      41.819 -11.646  -3.986  1.00  0.00     0.013 A 
HETATM   25  C   UNL     1      42.396 -10.412  -3.680  1.00  0.00     0.043 A 
HETATM   26  C   UNL     1      43.027 -10.232  -2.455  1.00  0.00     0.116 A 
HETATM   27  F   UNL     1      43.573  -9.045  -2.162  1.00  0.00    -0.206 F 
HETATM   28  C   UNL     1      43.098 -11.267  -1.531  1.00  0.00     0.043 A 
HETATM   29  C   UNL     1      42.525 -12.503  -1.835  1.00  0.00     0.013 A 
ENDBRANCH  20  23
ENDBRANCH  19  20
ENDBRANCH   2  19
TORSDOF 6
ENDMDL
MODEL 4
REMARK VINA RESULT:      -8.1      2.712      4.038
REMARK  6 active torsions:
REMARK  status: ('A' for Active; 'I' for Inactive)
REMARK    1  A    between atoms: N_4  and  C_5 
REMARK    2  A    between atoms: C_14  and  C_15 
REMARK       I    between atoms: C_15  and  N_16 
REMARK    3  A    between atoms: N_16  and  C_17 
REMARK    4  A    between atoms: C_17  and  C_18 
REMARK    5  A    between atoms: C_18  and  O_19 
REMARK    6  A    between atoms: C_18  and  C_20 
ROOT
HETATM    1  C   UNL     1      41.564 -17.364   4.949  1.00  0.00     0.255 C 
HETATM    2  N   UNL     1      42.866 -17.638   5.303  1.00  0.00    -0.354 N 
HETATM    3  O   UNL     1      40.616 -17.999   5.400  1.00  0.00    -0.268 OA
HETATM    4  H   UNL     1      43.610 -17.289   4.714  1.00  0.00     0.162 HD
ENDROOT
BRANCH   1   5
HETATM    5  C   UNL     1      41.381 -16.298   3.970  1.00  0.00     0.082 C 
HETATM    6  C   UNL     1      41.426 -14.909   4.252  1.00  0.00     0.069 C 
HETATM    7  C   UNL     1      41.628 -14.246   5.567  1.00  0.00     0.073 C 
HETATM    8  N   UNL     1      41.282 -14.169   3.154  1.00  0.00    -0.171 NA
HETATM    9  N   UNL     1      41.065 -15.049   2.147  1.00  0.00    -0.237 N 
HETATM   10  C   UNL     1      41.227 -16.364   2.585  1.00  0.00     0.050 C 
HETATM   11  C   UNL     1      41.346 -17.540   1.680  1.00  0.00     0.071 C 
BRANCH   9  12
HETATM   12  C   UNL     1      40.734 -14.527   0.856  1.00  0.00     0.058 A 
HETATM   13  C   UNL     1      39.383 -14.255   0.564  1.00  0.00     0.033 A 
HETATM   14  C   UNL     1      39.010 -13.740  -0.680  1.00  0.00     0.021 A 
HETATM   15  C   UNL     1      39.980 -13.513  -1.650  1.00  0.00     0.011 A 
HETATM   16 BR   UNL     1      39.482 -12.820  -3.336  1.00  0.00    -0.051 Br
HETATM   17  C   UNL     1      41.318 -13.803  -1.388  1.00  0.00     0.021 A 
HETATM   18  C   UNL     1      41.696 -14.314  -0.139  1.00  0.00     0.033 A 
ENDBRANCH   9  12
ENDBRANCH   1   5
BRANCH   2  19
HETATM   19  C   UNL     1      43.182 -18.788   6.137  1.00  0.00     0.159 C 
BRANCH  19  20
HETATM   20  C   UNL     1      44.527 -19.425   5.749  1.00  0.00     0.169 C 
BRANCH  20  21
HETATM   21  O   UNL     1      45.524 -18.401   5.635  1.00  0.00    -0.389 OA
HETATM   22  H   UNL     1      46.387 -18.828   5.785  1.00  0.00     0.210 HD
ENDBRANCH  20  21
BRANCH  20  23
HETATM   23  C   UNL     1      44.431 -20.207   4.455  1.00  0.00    -0.028 A 
HETATM   24  C   UNL     1      44.705 -21.586   4.442  1.00  0.00     0.013 A 
HETATM   25  C   UNL     1      44.587 -22.320   3.260  1.00  0.00     0.043 A 
HETATM   26  C   UNL     1      44.193 -21.681   2.091  1.00  0.00     0.116 A 
HETATM   27  F   UNL     1      44.073 -22.389   0.961  1.00  0.00    -0.206 F 
HETATM   28  C   UNL     1      43.919 -20.319   2.079  1.00  0.00     0.043 A 
HETATM   29  C   UNL     1      44.040 -19.581   3.258  1.00  0.00     0.013 A 
ENDBRANCH  20  23
ENDBRANCH  19  20
ENDBRANCH   2  19
TORSDOF 6
ENDMDL
MODEL 5
REMARK VINA RESULT:      -8.0      7.293     10.157
REMARK  6 active torsions:
REMARK  status: ('A' for Active; 'I' for Inactive)
REMARK    1  A    between atoms: N_4  and  C_5 
REMARK    2  A    between atoms: C_14  and  C_15 
REMARK       I    between atoms: C_15  and  N_16 
REMARK    3  A    between atoms: N_16  and  C_17 
REMARK    4  A    between atoms: C_17  and  C_18 
REMARK    5  A    between atoms: C_18  and  O_19 
REMARK    6  A    between atoms: C_18  and  C_20 
ROOT
HETATM    1  C   UNL     1      41.762 -12.399   5.797  1.00  0.00     0.255 C 
HETATM    2  N   UNL     1      41.110 -12.256   7.001  1.00  0.00    -0.354 N 
HETATM    3  O   UNL     1      41.742 -11.526   4.935  1.00  0.00    -0.268 OA
HETATM    4  H   UNL     1      40.923 -13.084   7.550  1.00  0.00     0.162 HD
ENDROOT
BRANCH   1   5
HETATM    5  C   UNL     1      42.445 -13.672   5.589  1.00  0.00     0.082 C 
HETATM    6  C   UNL     1      43.601 -14.105   6.285  1.00  0.00     0.069 C 
HETATM    7  C   UNL     1      44.375 -13.374   7.323  1.00  0.00     0.073 C 
HETATM    8  N   UNL     1      43.971 -15.333   5.929  1.00  0.00    -0.171 NA
HETATM    9  N   UNL     1      43.116 -15.700   4.943  1.00  0.00    -0.237 N 
HETATM   10  C   UNL     1      42.101 -14.757   4.783  1.00  0.00     0.050 C 
HETATM   11  C   UNL     1      40.856 -14.991   4.001  1.00  0.00     0.071 C 
BRANCH   9  12
HETATM   12  C   UNL     1      43.362 -16.936   4.263  1.00  0.00     0.058 A 
HETATM   13  C   UNL     1      43.417 -18.122   5.019  1.00  0.00     0.033 A 
HETATM   14  C   UNL     1      43.649 -19.354   4.402  1.00  0.00     0.021 A 
HETATM   15  C   UNL     1      43.849 -19.407   3.027  1.00  0.00     0.011 A 
HETATM   16 BR   UNL     1      44.167 -21.069   2.186  1.00  0.00    -0.051 Br
HETATM   17  C   UNL     1      43.826 -18.239   2.267  1.00  0.00     0.021 A 
HETATM   18  C   UNL     1      43.588 -17.003   2.883  1.00  0.00     0.033 A 
ENDBRANCH   9  12
ENDBRANCH   1   5
BRANCH   2  19
HETATM   19  C   UNL     1      40.255 -11.104   7.250  1.00  0.00     0.159 C 
BRANCH  19  20
HETATM   20  C   UNL     1      41.005  -9.983   7.989  1.00  0.00     0.169 C 
BRANCH  20  21
HETATM   21  O   UNL     1      42.038  -9.461   7.141  1.00  0.00    -0.389 OA
HETATM   22  H   UNL     1      42.866  -9.491   7.653  1.00  0.00     0.210 HD
ENDBRANCH  20  21
BRANCH  20  23
HETATM   23  C   UNL     1      41.598 -10.465   9.297  1.00  0.00    -0.028 A 
HETATM   24  C   UNL     1      42.992 -10.570   9.443  1.00  0.00     0.013 A 
HETATM   25  C   UNL     1      43.547 -10.981  10.656  1.00  0.00     0.043 A 
HETATM   26  C   UNL     1      42.714 -11.286  11.725  1.00  0.00     0.116 A 
HETATM   27  F   UNL     1      43.250 -11.674  12.890  1.00  0.00    -0.206 F 
HETATM   28  C   UNL     1      41.333 -11.192  11.604  1.00  0.00     0.043 A 
HETATM   29  C   UNL     1      40.775 -10.784  10.391  1.00  0.00     0.013 A 
ENDBRANCH  20  23
ENDBRANCH  19  20
ENDBRANCH   2  19
TORSDOF 6
ENDMDL
MODEL 6
REMARK VINA RESULT:      -8.0      3.012      4.528
REMARK  6 active torsions:
REMARK  status: ('A' for Active; 'I' for Inactive)
REMARK    1  A    between atoms: N_4  and  C_5 
REMARK    2  A    between atoms: C_14  and  C_15 
REMARK       I    between atoms: C_15  and  N_16 
REMARK    3  A    between atoms: N_16  and  C_17 
REMARK    4  A    between atoms: C_17  and  C_18 
REMARK    5  A    between atoms: C_18  and  O_19 
REMARK    6  A    between atoms: C_18  and  C_20 
ROOT
HETATM    1  C   UNL     1      41.580 -17.243   4.554  1.00  0.00     0.255 C 
HETATM    2  N   UNL     1      42.392 -16.559   5.431  1.00  0.00    -0.354 N 
HETATM    3  O   UNL     1      40.827 -18.139   4.923  1.00  0.00    -0.268 OA
HETATM    4  H   UNL     1      43.175 -16.039   5.058  1.00  0.00     0.162 HD
ENDROOT
BRANCH   1   5
HETATM    5  C   UNL     1      41.700 -16.867   3.149  1.00  0.00     0.082 C 
HETATM    6  C   UNL     1      42.320 -17.647   2.142  1.00  0.00     0.069 C 
HETATM    7  C   UNL     1      42.999 -18.962   2.286  1.00  0.00     0.073 C 
HETATM    8  N   UNL     1      42.229 -17.080   0.940  1.00  0.00    -0.171 NA
HETATM    9  N   UNL     1      41.618 -15.888   1.145  1.00  0.00    -0.237 N 
HETATM   10  C   UNL     1      41.179 -15.769   2.464  1.00  0.00     0.050 C 
HETATM   11  C   UNL     1      40.228 -14.727   2.940  1.00  0.00     0.071 C 
BRANCH   9  12
HETATM   12  C   UNL     1      41.508 -14.988   0.038  1.00  0.00     0.058 A 
HETATM   13  C   UNL     1      41.043 -15.487  -1.194  1.00  0.00     0.033 A 
HETATM   14  C   UNL     1      40.914 -14.647  -2.303  1.00  0.00     0.021 A 
HETATM   15  C   UNL     1      41.268 -13.307  -2.197  1.00  0.00     0.011 A 
HETATM   16 BR   UNL     1      41.099 -12.167  -3.694  1.00  0.00    -0.051 Br
HETATM   17  C   UNL     1      41.757 -12.802  -0.993  1.00  0.00     0.021 A 
HETATM   18  C   UNL     1      41.882 -13.641   0.123  1.00  0.00     0.033 A 
ENDBRANCH   9  12
ENDBRANCH   1   5
BRANCH   2  19
HETATM   19  C   UNL     1      42.484 -16.963   6.826  1.00  0.00     0.159 C 
BRANCH  19  20
HETATM   20  C   UNL     1      43.889 -17.476   7.182  1.00  0.00     0.169 C 
BRANCH  20  21
HETATM   21  O   UNL     1      44.872 -16.550   6.702  1.00  0.00    -0.389 OA
HETATM   22  H   UNL     1      45.668 -17.068   6.485  1.00  0.00     0.210 HD
ENDBRANCH  20  21
BRANCH  20  23
HETATM   23  C   UNL     1      44.149 -18.856   6.611  1.00  0.00    -0.028 A 
HETATM   24  C   UNL     1      43.619 -19.992   7.245  1.00  0.00     0.013 A 
HETATM   25  C   UNL     1      43.826 -21.264   6.707  1.00  0.00     0.043 A 
HETATM   26  C   UNL     1      44.560 -21.403   5.535  1.00  0.00     0.116 A 
HETATM   27  F   UNL     1      44.751 -22.623   5.018  1.00  0.00    -0.206 F 
HETATM   28  C   UNL     1      45.096 -20.294   4.893  1.00  0.00     0.043 A 
HETATM   29  C   UNL     1      44.893 -19.022   5.430  1.00  0.00     0.013 A 
ENDBRANCH  20  23
ENDBRANCH  19  20
ENDBRANCH   2  19
TORSDOF 6
ENDMDL
MODEL 7
REMARK VINA RESULT:      -7.9      2.464      2.971
REMARK  6 active torsions:
REMARK  status: ('A' for Active; 'I' for Inactive)
REMARK    1  A    between atoms: N_4  and  C_5 
REMARK    2  A    between atoms: C_14  and  C_15 
REMARK       I    between atoms: C_15  and  N_16 
REMARK    3  A    between atoms: N_16  and  C_17 
REMARK    4  A    between atoms: C_17  and  C_18 
REMARK    5  A    between atoms: C_18  and  O_19 
REMARK    6  A    between atoms: C_18  and  C_20 
ROOT
HETATM    1  C   UNL     1      41.154 -15.610   0.799  1.00  0.00     0.255 C 
HETATM    2  N   UNL     1      42.200 -16.505   0.775  1.00  0.00    -0.354 N 
HETATM    3  O   UNL     1      40.131 -15.818   1.445  1.00  0.00    -0.268 OA
HETATM    4  H   UNL     1      42.882 -16.430   0.032  1.00  0.00     0.162 HD
ENDROOT
BRANCH   1   5
HETATM    5  C   UNL     1      41.315 -14.417  -0.025  1.00  0.00     0.082 C 
HETATM    6  C   UNL     1      41.772 -13.158   0.436  1.00  0.00     0.069 C 
HETATM    7  C   UNL     1      42.144 -12.768   1.822  1.00  0.00     0.073 C 
HETATM    8  N   UNL     1      41.875 -12.269  -0.550  1.00  0.00    -0.171 NA
HETATM    9  N   UNL     1      41.417 -12.900  -1.659  1.00  0.00    -0.237 N 
HETATM   10  C   UNL     1      41.170 -14.249  -1.403  1.00  0.00     0.050 C 
HETATM   11  C   UNL     1      40.943 -15.274  -2.458  1.00  0.00     0.071 C 
BRANCH   9  12
HETATM   12  C   UNL     1      41.279 -12.134  -2.861  1.00  0.00     0.058 A 
HETATM   13  C   UNL     1      42.442 -11.765  -3.563  1.00  0.00     0.033 A 
HETATM   14  C   UNL     1      42.359 -11.022  -4.743  1.00  0.00     0.021 A 
HETATM   15  C   UNL     1      41.115 -10.625  -5.220  1.00  0.00     0.011 A 
HETATM   16 BR   UNL     1      40.997  -9.617  -6.815  1.00  0.00    -0.051 Br
HETATM   17  C   UNL     1      39.956 -10.958  -4.523  1.00  0.00     0.021 A 
HETATM   18  C   UNL     1      40.035 -11.708  -3.342  1.00  0.00     0.033 A 
ENDBRANCH   9  12
ENDBRANCH   1   5
BRANCH   2  19
HETATM   19  C   UNL     1      42.081 -17.805   1.419  1.00  0.00     0.159 C 
BRANCH  19  20
HETATM   20  C   UNL     1      43.026 -17.935   2.625  1.00  0.00     0.169 C 
BRANCH  20  21
HETATM   21  O   UNL     1      44.130 -17.035   2.465  1.00  0.00    -0.389 OA
HETATM   22  H   UNL     1      44.801 -17.502   1.935  1.00  0.00     0.210 HD
ENDBRANCH  20  21
BRANCH  20  23
HETATM   23  C   UNL     1      43.530 -19.354   2.798  1.00  0.00    -0.028 A 
HETATM   24  C   UNL     1      43.265 -20.321   1.814  1.00  0.00     0.013 A 
HETATM   25  C   UNL     1      43.754 -21.622   1.951  1.00  0.00     0.043 A 
HETATM   26  C   UNL     1      44.509 -21.958   3.067  1.00  0.00     0.116 A 
HETATM   27  F   UNL     1      44.983 -23.205   3.191  1.00  0.00    -0.206 F 
HETATM   28  C   UNL     1      44.782 -21.019   4.054  1.00  0.00     0.043 A 
HETATM   29  C   UNL     1      44.292 -19.719   3.922  1.00  0.00     0.013 A 
ENDBRANCH  20  23
ENDBRANCH  19  20
ENDBRANCH   2  19
TORSDOF 6
ENDMDL
MODEL 8
REMARK VINA RESULT:      -7.8      4.925      7.062
REMARK  6 active torsions:
REMARK  status: ('A' for Active; 'I' for Inactive)
REMARK    1  A    between atoms: N_4  and  C_5 
REMARK    2  A    between atoms: C_14  and  C_15 
REMARK       I    between atoms: C_15  and  N_16 
REMARK    3  A    between atoms: N_16  and  C_17 
REMARK    4  A    between atoms: C_17  and  C_18 
REMARK    5  A    between atoms: C_18  and  O_19 
REMARK    6  A    between atoms: C_18  and  C_20 
ROOT
HETATM    1  C   UNL     1      41.587 -15.273   2.561  1.00  0.00     0.255 C 
HETATM    2  N   UNL     1      41.354 -16.591   2.885  1.00  0.00    -0.354 N 
HETATM    3  O   UNL     1      42.264 -14.948   1.591  1.00  0.00    -0.268 OA
HETATM    4  H   UNL     1      41.037 -16.809   3.820  1.00  0.00     0.162 HD
ENDROOT
BRANCH   1   5
HETATM    5  C   UNL     1      41.013 -14.283   3.465  1.00  0.00     0.082 C 
HETATM    6  C   UNL     1      39.851 -13.513   3.209  1.00  0.00     0.069 C 
HETATM    7  C   UNL     1      39.001 -13.514   1.988  1.00  0.00     0.073 C 
HETATM    8  N   UNL     1      39.528 -12.732   4.237  1.00  0.00    -0.171 NA
HETATM    9  N   UNL     1      40.508 -12.914   5.155  1.00  0.00    -0.237 N 
HETATM   10  C   UNL     1      41.375 -13.936   4.768  1.00  0.00     0.050 C 
HETATM   11  C   UNL     1      42.370 -14.577   5.670  1.00  0.00     0.071 C 
BRANCH   9  12
HETATM   12  C   UNL     1      40.500 -12.087   6.323  1.00  0.00     0.058 A 
HETATM   13  C   UNL     1      39.411 -12.184   7.210  1.00  0.00     0.033 A 
HETATM   14  C   UNL     1      39.358 -11.401   8.367  1.00  0.00     0.021 A 
HETATM   15  C   UNL     1      40.383 -10.501   8.635  1.00  0.00     0.011 A 
HETATM   16 BR   UNL     1      40.316  -9.437  10.196  1.00  0.00    -0.051 Br
HETATM   17  C   UNL     1      41.454 -10.371   7.754  1.00  0.00     0.021 A 
HETATM   18  C   UNL     1      41.512 -11.159   6.596  1.00  0.00     0.033 A 
ENDBRANCH   9  12
ENDBRANCH   1   5
BRANCH   2  19
HETATM   19  C   UNL     1      42.016 -17.663   2.157  1.00  0.00     0.159 C 
BRANCH  19  20
HETATM   20  C   UNL     1      43.484 -17.824   2.584  1.00  0.00     0.169 C 
BRANCH  20  21
HETATM   21  O   UNL     1      44.336 -17.221   1.601  1.00  0.00    -0.389 OA
HETATM   22  H   UNL     1      44.786 -16.474   2.036  1.00  0.00     0.210 HD
ENDBRANCH  20  21
BRANCH  20  23
HETATM   23  C   UNL     1      43.861 -19.279   2.778  1.00  0.00    -0.028 A 
HETATM   24  C   UNL     1      44.511 -19.688   3.956  1.00  0.00     0.013 A 
HETATM   25  C   UNL     1      44.832 -21.032   4.157  1.00  0.00     0.043 A 
HETATM   26  C   UNL     1      44.503 -21.970   3.186  1.00  0.00     0.116 A 
HETATM   27  F   UNL     1      44.805 -23.259   3.385  1.00  0.00    -0.206 F 
HETATM   28  C   UNL     1      43.863 -21.589   2.013  1.00  0.00     0.043 A 
HETATM   29  C   UNL     1      43.543 -20.245   1.807  1.00  0.00     0.013 A 
ENDBRANCH  20  23
ENDBRANCH  19  20
ENDBRANCH   2  19
TORSDOF 6
ENDMDL
MODEL 9
REMARK VINA RESULT:      -7.8      7.679     10.349
REMARK  6 active torsions:
REMARK  status: ('A' for Active; 'I' for Inactive)
REMARK    1  A    between atoms: N_4  and  C_5 
REMARK    2  A    between atoms: C_14  and  C_15 
REMARK       I    between atoms: C_15  and  N_16 
REMARK    3  A    between atoms: N_16  and  C_17 
REMARK    4  A    between atoms: C_17  and  C_18 
REMARK    5  A    between atoms: C_18  and  O_19 
REMARK    6  A    between atoms: C_18  and  C_20 
ROOT
HETATM    1  C   UNL     1      42.168 -13.381   5.808  1.00  0.00     0.255 C 
HETATM    2  N   UNL     1      43.146 -12.929   6.664  1.00  0.00    -0.354 N 
HETATM    3  O   UNL     1      41.017 -12.959   5.850  1.00  0.00    -0.268 OA
HETATM    4  H   UNL     1      43.982 -13.486   6.779  1.00  0.00     0.162 HD
ENDROOT
BRANCH   1   5
HETATM    5  C   UNL     1      42.572 -14.425   4.872  1.00  0.00     0.082 C 
HETATM    6  C   UNL     1      42.741 -14.253   3.476  1.00  0.00     0.069 C 
HETATM    7  C   UNL     1      42.520 -13.025   2.668  1.00  0.00     0.073 C 
HETATM    8  N   UNL     1      43.172 -15.365   2.882  1.00  0.00    -0.171 NA
HETATM    9  N   UNL     1      43.221 -16.304   3.857  1.00  0.00    -0.237 N 
HETATM   10  C   UNL     1      42.968 -15.742   5.109  1.00  0.00     0.050 C 
HETATM   11  C   UNL     1      43.230 -16.428   6.404  1.00  0.00     0.071 C 
BRANCH   9  12
HETATM   12  C   UNL     1      43.521 -17.652   3.480  1.00  0.00     0.058 A 
HETATM   13  C   UNL     1      43.029 -18.135   2.253  1.00  0.00     0.033 A 
HETATM   14  C   UNL     1      43.299 -19.441   1.838  1.00  0.00     0.021 A 
HETATM   15  C   UNL     1      44.045 -20.283   2.656  1.00  0.00     0.011 A 
HETATM   16 BR   UNL     1      44.410 -22.052   2.102  1.00  0.00    -0.051 Br
HETATM   17  C   UNL     1      44.516 -19.830   3.887  1.00  0.00     0.021 A 
HETATM   18  C   UNL     1      44.252 -18.518   4.303  1.00  0.00     0.033 A 
ENDBRANCH   9  12
ENDBRANCH   1   5
BRANCH   2  19
HETATM   19  C   UNL     1      42.819 -12.016   7.750  1.00  0.00     0.159 C 
BRANCH  19  20
HETATM   20  C   UNL     1      43.979 -11.876   8.750  1.00  0.00     0.169 C 
BRANCH  20  21
HETATM   21  O   UNL     1      44.356 -13.173   9.229  1.00  0.00    -0.389 OA
HETATM   22  H   UNL     1      44.910 -13.034  10.018  1.00  0.00     0.210 HD
ENDBRANCH  20  21
BRANCH  20  23
HETATM   23  C   UNL     1      43.618 -10.974   9.913  1.00  0.00    -0.028 A 
HETATM   24  C   UNL     1      42.493 -10.136   9.832  1.00  0.00     0.013 A 
HETATM   25  C   UNL     1      42.134  -9.327  10.913  1.00  0.00     0.043 A 
HETATM   26  C   UNL     1      42.895  -9.355  12.075  1.00  0.00     0.116 A 
HETATM   27  F   UNL     1      42.544  -8.584  13.111  1.00  0.00    -0.206 F 
HETATM   28  C   UNL     1      44.013 -10.174  12.176  1.00  0.00     0.043 A 
HETATM   29  C   UNL     1      44.376 -10.982  11.097  1.00  0.00     0.013 A 
ENDBRANCH  20  23
ENDBRANCH  19  20
ENDBRANCH   2  19
TORSDOF 6
ENDMDL
MODEL 10
REMARK VINA RESULT:      -7.7      7.950     10.804
REMARK  6 active torsions:
REMARK  status: ('A' for Active; 'I' for Inactive)
REMARK    1  A    between atoms: N_4  and  C_5 
REMARK    2  A    between atoms: C_14  and  C_15 
REMARK       I    between atoms: C_15  and  N_16 
REMARK    3  A    between atoms: N_16  and  C_17 
REMARK    4  A    between atoms: C_17  and  C_18 
REMARK    5  A    between atoms: C_18  and  O_19 
REMARK    6  A    between atoms: C_18  and  C_20 
ROOT
HETATM    1  C   UNL     1      43.557 -13.980   6.655  1.00  0.00     0.255 C 
HETATM    2  N   UNL     1      44.474 -13.617   7.616  1.00  0.00    -0.354 N 
HETATM    3  O   UNL     1      42.759 -13.179   6.178  1.00  0.00    -0.268 OA
HETATM    4  H   UNL     1      44.909 -14.344   8.167  1.00  0.00     0.162 HD
ENDROOT
BRANCH   1   5
HETATM    5  C   UNL     1      43.563 -15.386   6.267  1.00  0.00     0.082 C 
HETATM    6  C   UNL     1      43.532 -16.484   7.162  1.00  0.00     0.069 C 
HETATM    7  C   UNL     1      43.523 -16.457   8.648  1.00  0.00     0.073 C 
HETATM    8  N   UNL     1      43.488 -17.652   6.523  1.00  0.00    -0.171 NA
HETATM    9  N   UNL     1      43.565 -17.349   5.204  1.00  0.00    -0.237 N 
HETATM   10  C   UNL     1      43.501 -15.970   5.001  1.00  0.00     0.050 C 
HETATM   11  C   UNL     1      43.268 -15.329   3.678  1.00  0.00     0.071 C 
BRANCH   9  12
HETATM   12  C   UNL     1      43.680 -18.428   4.271  1.00  0.00     0.058 A 
HETATM   13  C   UNL     1      44.579 -19.473   4.555  1.00  0.00     0.033 A 
HETATM   14  C   UNL     1      44.724 -20.551   3.678  1.00  0.00     0.021 A 
HETATM   15  C   UNL     1      43.987 -20.583   2.500  1.00  0.00     0.011 A 
HETATM   16 BR   UNL     1      44.180 -22.037   1.308  1.00  0.00    -0.051 Br
HETATM   17  C   UNL     1      43.112 -19.544   2.189  1.00  0.00     0.021 A 
HETATM   18  C   UNL     1      42.961 -18.464   3.070  1.00  0.00     0.033 A 
ENDBRANCH   9  12
ENDBRANCH   1   5
BRANCH   2  19
HETATM   19  C   UNL     1      44.447 -12.285   8.204  1.00  0.00     0.159 C 
BRANCH  19  20
HETATM   20  C   UNL     1      44.557 -12.333   9.737  1.00  0.00     0.169 C 
BRANCH  20  21
HETATM   21  O   UNL     1      44.066 -13.594  10.211  1.00  0.00    -0.389 OA
HETATM   22  H   UNL     1      43.686 -14.057   9.442  1.00  0.00     0.210 HD
ENDBRANCH  20  21
BRANCH  20  23
HETATM   23  C   UNL     1      43.799 -11.197  10.394  1.00  0.00    -0.028 A 
HETATM   24  C   UNL     1      44.195 -10.723  11.656  1.00  0.00     0.013 A 
HETATM   25  C   UNL     1      43.523  -9.656  12.255  1.00  0.00     0.043 A 
HETATM   26  C   UNL     1      42.457  -9.058  11.594  1.00  0.00     0.116 A 
HETATM   27  F   UNL     1      41.819  -8.029  12.167  1.00  0.00    -0.206 F 
HETATM   28  C   UNL     1      42.046  -9.511  10.346  1.00  0.00     0.043 A 
HETATM   29  C   UNL     1      42.714 -10.580   9.747  1.00  0.00     0.013 A 
ENDBRANCH  20  23
ENDBRANCH  19  20
ENDBRANCH   2  19
TORSDOF 6
ENDMDL
