MODEL 1
REMARK VINA RESULT:      -9.2      0.000      0.000
REMARK  7 active torsions:
REMARK  status: ('A' for Active; 'I' for Inactive)
REMARK    1  A    between atoms: O_2  and  C_3 
REMARK    2  A    between atoms: C_4  and  O_5 
REMARK    3  A    between atoms: C_8  and  N_9 
REMARK       I    between atoms: N_9  and  C_10 
REMARK    4  A    between atoms: C_10  and  C_11 
REMARK    5  A    between atoms: C_11  and  N_12 
REMARK    6  A    between atoms: N_20  and  C_21 
REMARK    7  A    between atoms: C_21  and  C_22 
ROOT
HETATM    1  N   UNL     1      41.021 -13.063   5.568  1.00  0.00    -0.063 N 
HETATM    2  H   UNL     1      41.654 -12.397   6.059  1.00  0.00     0.280 HD
HETATM    3  C   UNL     1      41.631 -14.421   5.772  1.00  0.00     0.238 C 
HETATM    4  C   UNL     1      40.926 -15.454   4.899  1.00  0.00     0.069 C 
HETATM    5  C   UNL     1      40.878 -15.024   3.427  1.00  0.00     0.119 C 
HETATM    6  N   UNL     1      40.136 -15.977   2.633  1.00  0.00    -0.324 N 
HETATM    7  C   UNL     1      40.965 -16.806   1.906  1.00  0.00     0.326 C 
HETATM    8  O   UNL     1      40.569 -17.785   1.303  1.00  0.00    -0.247 OA
HETATM    9  N   UNL     1      42.240 -16.346   2.024  1.00  0.00    -0.264 N 
HETATM   10  C   UNL     1      42.276 -15.243   2.822  1.00  0.00     0.256 C 
HETATM   11  O   UNL     1      43.253 -14.572   3.124  1.00  0.00    -0.270 OA
HETATM   12  C   UNL     1      40.351 -13.606   3.236  1.00  0.00     0.069 C 
HETATM   13  C   UNL     1      41.037 -12.599   4.144  1.00  0.00     0.238 C 
HETATM   14  H   UNL     1      39.157 -16.229   2.724  1.00  0.00     0.165 HD
ENDROOT
BRANCH   1  15
HETATM   15  C   UNL     1      39.699 -12.864   6.341  1.00  0.00     0.337 C 
BRANCH  15  16
HETATM   16  C   UNL     1      39.395 -11.368   6.390  1.00  0.00     0.248 C 
HETATM   17  N   UNL     1      39.980 -10.503   7.257  1.00  0.00    -0.326 N 
HETATM   18  H   UNL     1      39.788  -9.535   7.004  1.00  0.00     0.169 HD
HETATM   19  O   UNL     1      38.691 -10.915   5.476  1.00  0.00    -0.271 OA
BRANCH  17  20
HETATM   20  C   UNL     1      40.870 -10.687   8.326  1.00  0.00     0.037 A 
HETATM   21  C   UNL     1      42.253 -10.756   8.205  1.00  0.00     0.069 A 
HETATM   22  C   UNL     1      43.049 -10.861   9.352  1.00  0.00     0.103 A 
HETATM   23  C   UNL     1      42.484 -10.980  10.629  1.00  0.00     0.101 A 
HETATM   24  C   UNL     1      41.096 -10.964  10.741  1.00  0.00     0.042 A 
HETATM   25  C   UNL     1      40.298 -10.827   9.598  1.00  0.00     0.032 A 
BRANCH  22  26
HETATM   26  O   UNL     1      44.408 -10.937   9.175  1.00  0.00    -0.353 OA
HETATM   27  C   UNL     1      44.784 -12.248   8.754  1.00  0.00     0.210 C 
ENDBRANCH  22  26
BRANCH  23  28
HETATM   28  O   UNL     1      43.355 -11.085  11.679  1.00  0.00    -0.353 OA
HETATM   29  C   UNL     1      43.505  -9.936  12.507  1.00  0.00     0.210 C 
ENDBRANCH  23  28
ENDBRANCH  17  20
ENDBRANCH  15  16
ENDBRANCH   1  15
BRANCH   9  30
HETATM   30  C   UNL     1      43.403 -17.044   1.522  1.00  0.00     0.175 C 
BRANCH  30  31
HETATM   31  C   UNL     1      43.719 -18.223   2.420  1.00  0.00    -0.040 A 
HETATM   32  C   UNL     1      43.991 -18.020   3.782  1.00  0.00     0.010 A 
HETATM   33  C   UNL     1      44.367 -19.088   4.599  1.00  0.00     0.024 A 
HETATM   34  C   UNL     1      44.473 -20.367   4.059  1.00  0.00     0.034 A 
HETATM   35 CL   UNL     1      44.962 -21.678   5.056  1.00  0.00    -0.084 Cl
HETATM   36  C   UNL     1      44.199 -20.587   2.710  1.00  0.00     0.024 A 
HETATM   37  C   UNL     1      43.827 -19.517   1.890  1.00  0.00     0.010 A 
ENDBRANCH  30  31
ENDBRANCH   9  30
TORSDOF 7
ENDMDL
MODEL 2
REMARK VINA RESULT:      -8.7      2.986      8.972
REMARK  7 active torsions:
REMARK  status: ('A' for Active; 'I' for Inactive)
REMARK    1  A    between atoms: O_2  and  C_3 
REMARK    2  A    between atoms: C_4  and  O_5 
REMARK    3  A    between atoms: C_8  and  N_9 
REMARK       I    between atoms: N_9  and  C_10 
REMARK    4  A    between atoms: C_10  and  C_11 
REMARK    5  A    between atoms: C_11  and  N_12 
REMARK    6  A    between atoms: N_20  and  C_21 
REMARK    7  A    between atoms: C_21  and  C_22 
ROOT
HETATM    1  N   UNL     1      41.898 -15.977   3.972  1.00  0.00    -0.063 N 
HETATM    2  H   UNL     1      42.818 -16.426   3.784  1.00  0.00     0.280 HD
HETATM    3  C   UNL     1      42.027 -14.569   3.462  1.00  0.00     0.238 C 
HETATM    4  C   UNL     1      40.823 -13.738   3.895  1.00  0.00     0.069 C 
HETATM    5  C   UNL     1      40.585 -13.818   5.408  1.00  0.00     0.119 C 
HETATM    6  N   UNL     1      39.395 -13.090   5.784  1.00  0.00    -0.324 N 
HETATM    7  C   UNL     1      39.689 -11.863   6.341  1.00  0.00     0.326 C 
HETATM    8  O   UNL     1      38.848 -11.016   6.575  1.00  0.00    -0.247 OA
HETATM    9  N   UNL     1      41.034 -11.791   6.532  1.00  0.00    -0.264 N 
HETATM   10  C   UNL     1      41.636 -12.935   6.103  1.00  0.00     0.256 C 
HETATM   11  O   UNL     1      42.828 -13.209   6.141  1.00  0.00    -0.270 OA
HETATM   12  C   UNL     1      40.555 -15.249   5.934  1.00  0.00     0.069 C 
HETATM   13  C   UNL     1      41.740 -16.073   5.458  1.00  0.00     0.238 C 
HETATM   14  H   UNL     1      38.439 -13.275   5.495  1.00  0.00     0.165 HD
ENDROOT
BRANCH   1  15
HETATM   15  C   UNL     1      40.947 -16.849   3.122  1.00  0.00     0.337 C 
BRANCH  15  16
HETATM   16  C   UNL     1      41.578 -17.040   1.744  1.00  0.00     0.248 C 
HETATM   17  N   UNL     1      42.577 -17.921   1.483  1.00  0.00    -0.326 N 
HETATM   18  H   UNL     1      42.723 -18.032   0.481  1.00  0.00     0.169 HD
HETATM   19  O   UNL     1      41.027 -16.462   0.796  1.00  0.00    -0.271 OA
BRANCH  17  20
HETATM   20  C   UNL     1      43.333 -18.770   2.305  1.00  0.00     0.037 A 
HETATM   21  C   UNL     1      43.902 -18.400   3.519  1.00  0.00     0.069 A 
HETATM   22  C   UNL     1      44.569 -19.356   4.295  1.00  0.00     0.103 A 
HETATM   23  C   UNL     1      44.753 -20.671   3.845  1.00  0.00     0.101 A 
HETATM   24  C   UNL     1      44.226 -21.022   2.604  1.00  0.00     0.042 A 
HETATM   25  C   UNL     1      43.531 -20.077   1.840  1.00  0.00     0.032 A 
BRANCH  22  26
HETATM   26  O   UNL     1      45.123 -18.935   5.479  1.00  0.00    -0.353 OA
HETATM   27  C   UNL     1      44.113 -18.774   6.474  1.00  0.00     0.210 C 
ENDBRANCH  22  26
BRANCH  23  28
HETATM   28  O   UNL     1      45.426 -21.518   4.680  1.00  0.00    -0.353 OA
HETATM   29  C   UNL     1      44.645 -22.464   5.404  1.00  0.00     0.210 C 
ENDBRANCH  23  28
ENDBRANCH  17  20
ENDBRANCH  15  16
ENDBRANCH   1  15
BRANCH   9  30
HETATM   30  C   UNL     1      41.730 -10.596   6.958  1.00  0.00     0.175 C 
BRANCH  30  31
HETATM   31  C   UNL     1      42.047 -10.691   8.437  1.00  0.00    -0.040 A 
HETATM   32  C   UNL     1      43.339 -11.042   8.861  1.00  0.00     0.010 A 
HETATM   33  C   UNL     1      43.619 -11.215  10.218  1.00  0.00     0.024 A 
HETATM   34  C   UNL     1      42.609 -11.037  11.160  1.00  0.00     0.034 A 
HETATM   35 CL   UNL     1      42.945 -11.276  12.828  1.00  0.00    -0.084 Cl
HETATM   36  C   UNL     1      41.323 -10.681  10.757  1.00  0.00     0.024 A 
HETATM   37  C   UNL     1      41.041 -10.511   9.397  1.00  0.00     0.010 A 
ENDBRANCH  30  31
ENDBRANCH   9  30
TORSDOF 7
ENDMDL
MODEL 3
REMARK VINA RESULT:      -8.5      5.370      8.922
REMARK  7 active torsions:
REMARK  status: ('A' for Active; 'I' for Inactive)
REMARK    1  A    between atoms: O_2  and  C_3 
REMARK    2  A    between atoms: C_4  and  O_5 
REMARK    3  A    between atoms: C_8  and  N_9 
REMARK       I    between atoms: N_9  and  C_10 
REMARK    4  A    between atoms: C_10  and  C_11 
REMARK    5  A    between atoms: C_11  and  N_12 
REMARK    6  A    between atoms: N_20  and  C_21 
REMARK    7  A    between atoms: C_21  and  C_22 
ROOT
HETATM    1  N   UNL     1      41.061 -14.359   2.934  1.00  0.00    -0.063 N 
HETATM    2  H   UNL     1      40.617 -13.776   3.674  1.00  0.00     0.280 HD
HETATM    3  C   UNL     1      41.586 -13.386   1.917  1.00  0.00     0.238 C 
HETATM    4  C   UNL     1      42.048 -14.127   0.666  1.00  0.00     0.069 C 
HETATM    5  C   UNL     1      40.959 -15.056   0.114  1.00  0.00     0.119 C 
HETATM    6  N   UNL     1      41.444 -15.806  -1.020  1.00  0.00    -0.324 N 
HETATM    7  C   UNL     1      40.992 -15.291  -2.218  1.00  0.00     0.326 C 
HETATM    8  O   UNL     1      41.406 -15.656  -3.302  1.00  0.00    -0.247 OA
HETATM    9  N   UNL     1      40.069 -14.329  -1.948  1.00  0.00    -0.264 N 
HETATM   10  C   UNL     1      39.910 -14.187  -0.603  1.00  0.00     0.256 C 
HETATM   11  O   UNL     1      39.152 -13.425  -0.017  1.00  0.00    -0.270 OA
HETATM   12  C   UNL     1      40.360 -15.971   1.176  1.00  0.00     0.069 C 
HETATM   13  C   UNL     1      39.945 -15.221   2.431  1.00  0.00     0.238 C 
HETATM   14  H   UNL     1      42.205 -16.478  -1.038  1.00  0.00     0.165 HD
ENDROOT
BRANCH   1  15
HETATM   15  C   UNL     1      42.177 -15.074   3.728  1.00  0.00     0.337 C 
BRANCH  15  16
HETATM   16  C   UNL     1      41.521 -15.907   4.829  1.00  0.00     0.248 C 
HETATM   17  N   UNL     1      41.808 -17.212   5.064  1.00  0.00    -0.326 N 
HETATM   18  H   UNL     1      41.412 -17.526   5.949  1.00  0.00     0.169 HD
HETATM   19  O   UNL     1      40.808 -15.295   5.637  1.00  0.00    -0.271 OA
BRANCH  17  20
HETATM   20  C   UNL     1      42.623 -18.140   4.399  1.00  0.00     0.037 A 
HETATM   21  C   UNL     1      43.603 -18.916   5.008  1.00  0.00     0.069 A 
HETATM   22  C   UNL     1      44.302 -19.870   4.259  1.00  0.00     0.103 A 
HETATM   23  C   UNL     1      44.099 -20.014   2.879  1.00  0.00     0.101 A 
HETATM   24  C   UNL     1      43.153 -19.197   2.264  1.00  0.00     0.042 A 
HETATM   25  C   UNL     1      42.430 -18.264   3.016  1.00  0.00     0.032 A 
BRANCH  22  26
HETATM   26  O   UNL     1      45.267 -20.601   4.906  1.00  0.00    -0.353 OA
HETATM   27  C   UNL     1      44.701 -21.776   5.485  1.00  0.00     0.210 C 
ENDBRANCH  22  26
BRANCH  23  28
HETATM   28  O   UNL     1      44.842 -20.971   2.245  1.00  0.00    -0.353 OA
HETATM   29  C   UNL     1      44.125 -21.975   1.534  1.00  0.00     0.210 C 
ENDBRANCH  23  28
ENDBRANCH  17  20
ENDBRANCH  15  16
ENDBRANCH   1  15
BRANCH   9  30
HETATM   30  C   UNL     1      39.485 -13.463  -2.948  1.00  0.00     0.175 C 
BRANCH  30  31
HETATM   31  C   UNL     1      40.303 -12.192  -3.065  1.00  0.00    -0.040 A 
HETATM   32  C   UNL     1      39.853 -11.006  -2.463  1.00  0.00     0.010 A 
HETATM   33  C   UNL     1      40.555  -9.811  -2.637  1.00  0.00     0.024 A 
HETATM   34  C   UNL     1      41.712  -9.795  -3.412  1.00  0.00     0.034 A 
HETATM   35 CL   UNL     1      42.562  -8.321  -3.649  1.00  0.00    -0.084 Cl
HETATM   36  C   UNL     1      42.175 -10.966  -4.010  1.00  0.00     0.024 A 
HETATM   37  C   UNL     1      41.471 -12.162  -3.840  1.00  0.00     0.010 A 
ENDBRANCH  30  31
ENDBRANCH   9  30
TORSDOF 7
ENDMDL
MODEL 4
REMARK VINA RESULT:      -8.4      1.938      2.507
REMARK  7 active torsions:
REMARK  status: ('A' for Active; 'I' for Inactive)
REMARK    1  A    between atoms: O_2  and  C_3 
REMARK    2  A    between atoms: C_4  and  O_5 
REMARK    3  A    between atoms: C_8  and  N_9 
REMARK       I    between atoms: N_9  and  C_10 
REMARK    4  A    between atoms: C_10  and  C_11 
REMARK    5  A    between atoms: C_11  and  N_12 
REMARK    6  A    between atoms: N_20  and  C_21 
REMARK    7  A    between atoms: C_21  and  C_22 
ROOT
HETATM    1  N   UNL     1      40.761 -12.407   4.272  1.00  0.00    -0.063 N 
HETATM    2  H   UNL     1      40.993 -11.761   3.489  1.00  0.00     0.280 HD
HETATM    3  C   UNL     1      42.024 -12.532   5.077  1.00  0.00     0.238 C 
HETATM    4  C   UNL     1      41.881 -13.639   6.116  1.00  0.00     0.069 C 
HETATM    5  C   UNL     1      41.428 -14.962   5.486  1.00  0.00     0.119 C 
HETATM    6  N   UNL     1      41.221 -15.973   6.498  1.00  0.00    -0.324 N 
HETATM    7  C   UNL     1      42.267 -16.870   6.559  1.00  0.00     0.326 C 
HETATM    8  O   UNL     1      42.387 -17.699   7.441  1.00  0.00    -0.247 OA
HETATM    9  N   UNL     1      43.100 -16.628   5.511  1.00  0.00    -0.264 N 
HETATM   10  C   UNL     1      42.637 -15.586   4.767  1.00  0.00     0.256 C 
HETATM   11  O   UNL     1      43.131 -15.117   3.750  1.00  0.00    -0.270 OA
HETATM   12  C   UNL     1      40.204 -14.809   4.590  1.00  0.00     0.069 C 
HETATM   13  C   UNL     1      40.348 -13.674   3.589  1.00  0.00     0.238 C 
HETATM   14  H   UNL     1      40.550 -15.959   7.259  1.00  0.00     0.165 HD
ENDROOT
BRANCH   1  15
HETATM   15  C   UNL     1      39.647 -11.625   5.002  1.00  0.00     0.337 C 
BRANCH  15  16
HETATM   16  C   UNL     1      40.052 -10.153   5.053  1.00  0.00     0.248 C 
HETATM   17  N   UNL     1      40.578  -9.550   6.150  1.00  0.00    -0.326 N 
HETATM   18  H   UNL     1      40.954  -8.630   5.924  1.00  0.00     0.169 HD
HETATM   19  O   UNL     1      40.039  -9.535   3.979  1.00  0.00    -0.271 OA
BRANCH  17  20
HETATM   20  C   UNL     1      40.802  -9.993   7.462  1.00  0.00     0.037 A 
HETATM   21  C   UNL     1      42.056 -10.171   8.036  1.00  0.00     0.069 A 
HETATM   22  C   UNL     1      42.160 -10.541   9.383  1.00  0.00     0.103 A 
HETATM   23  C   UNL     1      41.025 -10.818  10.157  1.00  0.00     0.101 A 
HETATM   24  C   UNL     1      39.772 -10.689   9.562  1.00  0.00     0.042 A 
HETATM   25  C   UNL     1      39.665 -10.289   8.225  1.00  0.00     0.032 A 
BRANCH  22  26
HETATM   26  O   UNL     1      43.420 -10.716   9.896  1.00  0.00    -0.353 OA
HETATM   27  C   UNL     1      44.137 -11.693   9.142  1.00  0.00     0.210 C 
ENDBRANCH  22  26
BRANCH  23  28
HETATM   28  O   UNL     1      41.243 -11.179  11.458  1.00  0.00    -0.353 OA
HETATM   29  C   UNL     1      40.153 -11.019  12.361  1.00  0.00     0.210 C 
ENDBRANCH  23  28
ENDBRANCH  17  20
ENDBRANCH  15  16
ENDBRANCH   1  15
BRANCH   9  30
HETATM   30  C   UNL     1      44.383 -17.271   5.329  1.00  0.00     0.175 C 
BRANCH  30  31
HETATM   31  C   UNL     1      44.230 -18.465   4.408  1.00  0.00    -0.040 A 
HETATM   32  C   UNL     1      44.773 -19.709   4.767  1.00  0.00     0.010 A 
HETATM   33  C   UNL     1      44.712 -20.792   3.888  1.00  0.00     0.024 A 
HETATM   34  C   UNL     1      44.107 -20.638   2.643  1.00  0.00     0.034 A 
HETATM   35 CL   UNL     1      44.055 -21.963   1.549  1.00  0.00    -0.084 Cl
HETATM   36  C   UNL     1      43.556 -19.412   2.274  1.00  0.00     0.024 A 
HETATM   37  C   UNL     1      43.620 -18.326   3.152  1.00  0.00     0.010 A 
ENDBRANCH  30  31
ENDBRANCH   9  30
TORSDOF 7
ENDMDL
MODEL 5
REMARK VINA RESULT:      -8.3      4.441      7.937
REMARK  7 active torsions:
REMARK  status: ('A' for Active; 'I' for Inactive)
REMARK    1  A    between atoms: O_2  and  C_3 
REMARK    2  A    between atoms: C_4  and  O_5 
REMARK    3  A    between atoms: C_8  and  N_9 
REMARK       I    between atoms: N_9  and  C_10 
REMARK    4  A    between atoms: C_10  and  C_11 
REMARK    5  A    between atoms: C_11  and  N_12 
REMARK    6  A    between atoms: N_20  and  C_21 
REMARK    7  A    between atoms: C_21  and  C_22 
ROOT
HETATM    1  N   UNL     1      39.933 -13.055   1.366  1.00  0.00    -0.063 N 
HETATM    2  H   UNL     1      40.270 -12.574   0.506  1.00  0.00     0.280 HD
HETATM    3  C   UNL     1      40.971 -12.774   2.416  1.00  0.00     0.238 C 
HETATM    4  C   UNL     1      40.710 -13.623   3.656  1.00  0.00     0.069 C 
HETATM    5  C   UNL     1      40.577 -15.113   3.315  1.00  0.00     0.119 C 
HETATM    6  N   UNL     1      40.250 -15.887   4.490  1.00  0.00    -0.324 N 
HETATM    7  C   UNL     1      41.347 -16.553   4.996  1.00  0.00     0.326 C 
HETATM    8  O   UNL     1      41.345 -17.126   6.069  1.00  0.00    -0.247 OA
HETATM    9  N   UNL     1      42.374 -16.417   4.114  1.00  0.00    -0.264 N 
HETATM   10  C   UNL     1      41.987 -15.667   3.046  1.00  0.00     0.256 C 
HETATM   11  O   UNL     1      42.654 -15.365   2.066  1.00  0.00    -0.270 OA
HETATM   12  C   UNL     1      39.596 -15.380   2.179  1.00  0.00     0.069 C 
HETATM   13  C   UNL     1      39.845 -14.496   0.968  1.00  0.00     0.238 C 
HETATM   14  H   UNL     1      39.418 -15.814   5.068  1.00  0.00     0.165 HD
ENDROOT
BRANCH   1  15
HETATM   15  C   UNL     1      38.593 -12.330   1.622  1.00  0.00     0.337 C 
BRANCH  15  16
HETATM   16  C   UNL     1      38.562 -11.068   0.762  1.00  0.00     0.248 C 
HETATM   17  N   UNL     1      38.734 -11.063  -0.584  1.00  0.00    -0.326 N 
HETATM   18  H   UNL     1      38.490 -10.160  -0.988  1.00  0.00     0.169 HD
HETATM   19  O   UNL     1      38.202 -10.023   1.323  1.00  0.00    -0.271 OA
BRANCH  17  20
HETATM   20  C   UNL     1      39.057 -12.072  -1.504  1.00  0.00     0.037 A 
HETATM   21  C   UNL     1      40.307 -12.246  -2.087  1.00  0.00     0.069 A 
HETATM   22  C   UNL     1      40.536 -13.339  -2.931  1.00  0.00     0.103 A 
HETATM   23  C   UNL     1      39.510 -14.230  -3.274  1.00  0.00     0.101 A 
HETATM   24  C   UNL     1      38.245 -14.021  -2.729  1.00  0.00     0.042 A 
HETATM   25  C   UNL     1      38.021 -12.948  -1.859  1.00  0.00     0.032 A 
BRANCH  22  26
HETATM   26  O   UNL     1      41.784 -13.456  -3.490  1.00  0.00    -0.353 OA
HETATM   27  C   UNL     1      42.570 -12.299  -3.207  1.00  0.00     0.210 C 
ENDBRANCH  22  26
BRANCH  23  28
HETATM   28  O   UNL     1      39.844 -15.258  -4.113  1.00  0.00    -0.353 OA
HETATM   29  C   UNL     1      38.854 -16.258  -4.330  1.00  0.00     0.210 C 
ENDBRANCH  23  28
ENDBRANCH  17  20
ENDBRANCH  15  16
ENDBRANCH   1  15
BRANCH   9  30
HETATM   30  C   UNL     1      43.728 -16.855   4.373  1.00  0.00     0.175 C 
BRANCH  30  31
HETATM   31  C   UNL     1      43.901 -18.286   3.903  1.00  0.00    -0.040 A 
HETATM   32  C   UNL     1      44.486 -19.241   4.749  1.00  0.00     0.010 A 
HETATM   33  C   UNL     1      44.727 -20.540   4.295  1.00  0.00     0.024 A 
HETATM   34  C   UNL     1      44.386 -20.890   2.992  1.00  0.00     0.034 A 
HETATM   35 CL   UNL     1      44.708 -22.480   2.422  1.00  0.00    -0.084 Cl
HETATM   36  C   UNL     1      43.799 -19.956   2.141  1.00  0.00     0.024 A 
HETATM   37  C   UNL     1      43.560 -18.654   2.594  1.00  0.00     0.010 A 
ENDBRANCH  30  31
ENDBRANCH   9  30
TORSDOF 7
ENDMDL
MODEL 6
REMARK VINA RESULT:      -8.3      3.296      9.169
REMARK  7 active torsions:
REMARK  status: ('A' for Active; 'I' for Inactive)
REMARK    1  A    between atoms: O_2  and  C_3 
REMARK    2  A    between atoms: C_4  and  O_5 
REMARK    3  A    between atoms: C_8  and  N_9 
REMARK       I    between atoms: N_9  and  C_10 
REMARK    4  A    between atoms: C_10  and  C_11 
REMARK    5  A    between atoms: C_11  and  N_12 
REMARK    6  A    between atoms: N_20  and  C_21 
REMARK    7  A    between atoms: C_21  and  C_22 
ROOT
HETATM    1  N   UNL     1      40.441 -13.491   3.253  1.00  0.00    -0.063 N 
HETATM    2  H   UNL     1      41.017 -13.345   2.398  1.00  0.00     0.280 HD
HETATM    3  C   UNL     1      39.724 -12.190   3.481  1.00  0.00     0.238 C 
HETATM    4  C   UNL     1      39.031 -12.200   4.840  1.00  0.00     0.069 C 
HETATM    5  C   UNL     1      39.996 -12.571   5.974  1.00  0.00     0.119 C 
HETATM    6  N   UNL     1      39.302 -12.653   7.238  1.00  0.00    -0.324 N 
HETATM    7  C   UNL     1      39.510 -11.536   8.020  1.00  0.00     0.326 C 
HETATM    8  O   UNL     1      38.895 -11.314   9.046  1.00  0.00    -0.247 OA
HETATM    9  N   UNL     1      40.465 -10.770   7.426  1.00  0.00    -0.264 N 
HETATM   10  C   UNL     1      40.881 -11.346   6.265  1.00  0.00     0.256 C 
HETATM   11  O   UNL     1      41.736 -10.934   5.492  1.00  0.00    -0.270 OA
HETATM   12  C   UNL     1      40.793 -13.839   5.689  1.00  0.00     0.069 C 
HETATM   13  C   UNL     1      41.441 -13.828   4.315  1.00  0.00     0.238 C 
HETATM   14  H   UNL     1      38.555 -13.291   7.494  1.00  0.00     0.165 HD
ENDROOT
BRANCH   1  15
HETATM   15  C   UNL     1      39.503 -14.634   2.804  1.00  0.00     0.337 C 
BRANCH  15  16
HETATM   16  C   UNL     1      39.788 -14.935   1.333  1.00  0.00     0.248 C 
HETATM   17  N   UNL     1      40.672 -15.873   0.909  1.00  0.00    -0.326 N 
HETATM   18  H   UNL     1      40.575 -16.050  -0.090  1.00  0.00     0.169 HD
HETATM   19  O   UNL     1      39.046 -14.391   0.502  1.00  0.00    -0.271 OA
BRANCH  17  20
HETATM   20  C   UNL     1      41.575 -16.703   1.589  1.00  0.00     0.037 A 
HETATM   21  C   UNL     1      41.398 -17.177   2.884  1.00  0.00     0.069 A 
HETATM   22  C   UNL     1      42.328 -18.067   3.434  1.00  0.00     0.103 A 
HETATM   23  C   UNL     1      43.489 -18.438   2.741  1.00  0.00     0.101 A 
HETATM   24  C   UNL     1      43.688 -17.919   1.463  1.00  0.00     0.042 A 
HETATM   25  C   UNL     1      42.743 -17.054   0.898  1.00  0.00     0.032 A 
BRANCH  22  26
HETATM   26  O   UNL     1      42.112 -18.494   4.720  1.00  0.00    -0.353 OA
HETATM   27  C   UNL     1      42.280 -17.416   5.640  1.00  0.00     0.210 C 
ENDBRANCH  22  26
BRANCH  23  28
HETATM   28  O   UNL     1      44.333 -19.307   3.376  1.00  0.00    -0.353 OA
HETATM   29  C   UNL     1      44.585 -20.549   2.727  1.00  0.00     0.210 C 
ENDBRANCH  23  28
ENDBRANCH  17  20
ENDBRANCH  15  16
ENDBRANCH   1  15
BRANCH   9  30
HETATM   30  C   UNL     1      40.840  -9.448   7.878  1.00  0.00     0.175 C 
BRANCH  30  31
HETATM   31  C   UNL     1      41.512  -9.543   9.233  1.00  0.00    -0.040 A 
HETATM   32  C   UNL     1      41.052  -8.763  10.305  1.00  0.00     0.010 A 
HETATM   33  C   UNL     1      41.717  -8.779  11.533  1.00  0.00     0.024 A 
HETATM   34  C   UNL     1      42.847  -9.576  11.696  1.00  0.00     0.034 A 
HETATM   35 CL   UNL     1      43.683  -9.576  13.197  1.00  0.00    -0.084 Cl
HETATM   36  C   UNL     1      43.313 -10.362  10.643  1.00  0.00     0.024 A 
HETATM   37  C   UNL     1      42.650 -10.343   9.412  1.00  0.00     0.010 A 
ENDBRANCH  30  31
ENDBRANCH   9  30
TORSDOF 7
ENDMDL
MODEL 7
REMARK VINA RESULT:      -8.2      2.996      8.677
REMARK  7 active torsions:
REMARK  status: ('A' for Active; 'I' for Inactive)
REMARK    1  A    between atoms: O_2  and  C_3 
REMARK    2  A    between atoms: C_4  and  O_5 
REMARK    3  A    between atoms: C_8  and  N_9 
REMARK       I    between atoms: N_9  and  C_10 
REMARK    4  A    between atoms: C_10  and  C_11 
REMARK    5  A    between atoms: C_11  and  N_12 
REMARK    6  A    between atoms: N_20  and  C_21 
REMARK    7  A    between atoms: C_21  and  C_22 
ROOT
HETATM    1  N   UNL     1      40.125 -13.955   4.220  1.00  0.00    -0.063 N 
HETATM    2  H   UNL     1      39.521 -14.766   4.467  1.00  0.00     0.280 HD
HETATM    3  C   UNL     1      40.954 -13.684   5.443  1.00  0.00     0.238 C 
HETATM    4  C   UNL     1      41.710 -12.367   5.288  1.00  0.00     0.069 C 
HETATM    5  C   UNL     1      40.774 -11.209   4.919  1.00  0.00     0.119 C 
HETATM    6  N   UNL     1      41.519  -9.991   4.699  1.00  0.00    -0.324 N 
HETATM    7  C   UNL     1      41.440  -9.131   5.774  1.00  0.00     0.326 C 
HETATM    8  O   UNL     1      42.120  -8.127   5.879  1.00  0.00    -0.247 OA
HETATM    9  N   UNL     1      40.523  -9.624   6.649  1.00  0.00    -0.264 N 
HETATM   10  C   UNL     1      40.005 -10.795   6.186  1.00  0.00     0.256 C 
HETATM   11  O   UNL     1      39.151 -11.493   6.714  1.00  0.00    -0.270 OA
HETATM   12  C   UNL     1      39.864 -11.529   3.738  1.00  0.00     0.069 C 
HETATM   13  C   UNL     1      39.153 -12.864   3.891  1.00  0.00     0.238 C 
HETATM   14  H   UNL     1      42.224  -9.817   3.989  1.00  0.00     0.165 HD
ENDROOT
BRANCH   1  15
HETATM   15  C   UNL     1      40.944 -14.523   3.040  1.00  0.00     0.337 C 
BRANCH  15  16
HETATM   16  C   UNL     1      40.177 -15.707   2.453  1.00  0.00     0.248 C 
HETATM   17  N   UNL     1      40.525 -17.005   2.643  1.00  0.00    -0.326 N 
HETATM   18  H   UNL     1      39.788 -17.637   2.335  1.00  0.00     0.169 HD
HETATM   19  O   UNL     1      39.092 -15.452   1.910  1.00  0.00    -0.271 OA
BRANCH  17  20
HETATM   20  C   UNL     1      41.621 -17.612   3.275  1.00  0.00     0.037 A 
HETATM   21  C   UNL     1      41.825 -17.646   4.651  1.00  0.00     0.069 A 
HETATM   22  C   UNL     1      42.914 -18.352   5.176  1.00  0.00     0.103 A 
HETATM   23  C   UNL     1      43.862 -18.965   4.345  1.00  0.00     0.101 A 
HETATM   24  C   UNL     1      43.682 -18.882   2.966  1.00  0.00     0.042 A 
HETATM   25  C   UNL     1      42.576 -18.205   2.438  1.00  0.00     0.032 A 
BRANCH  22  26
HETATM   26  O   UNL     1      43.076 -18.343   6.539  1.00  0.00    -0.353 OA
HETATM   27  C   UNL     1      42.353 -17.259   7.121  1.00  0.00     0.210 C 
ENDBRANCH  22  26
BRANCH  23  28
HETATM   28  O   UNL     1      44.891 -19.619   4.965  1.00  0.00    -0.353 OA
HETATM   29  C   UNL     1      44.900 -21.040   4.868  1.00  0.00     0.210 C 
ENDBRANCH  23  28
ENDBRANCH  17  20
ENDBRANCH  15  16
ENDBRANCH   1  15
BRANCH   9  30
HETATM   30  C   UNL     1      40.278  -9.071   7.964  1.00  0.00     0.175 C 
BRANCH  30  31
HETATM   31  C   UNL     1      41.029  -9.876   9.005  1.00  0.00    -0.040 A 
HETATM   32  C   UNL     1      40.373 -10.316  10.165  1.00  0.00     0.010 A 
HETATM   33  C   UNL     1      41.076 -10.984  11.170  1.00  0.00     0.024 A 
HETATM   34  C   UNL     1      42.441 -11.218  11.019  1.00  0.00     0.034 A 
HETATM   35 CL   UNL     1      43.313 -12.016  12.266  1.00  0.00    -0.084 Cl
HETATM   36  C   UNL     1      43.106 -10.795   9.870  1.00  0.00     0.024 A 
HETATM   37  C   UNL     1      42.403 -10.122   8.865  1.00  0.00     0.010 A 
ENDBRANCH  30  31
ENDBRANCH   9  30
TORSDOF 7
ENDMDL
MODEL 8
REMARK VINA RESULT:      -8.1      5.241      8.879
REMARK  7 active torsions:
REMARK  status: ('A' for Active; 'I' for Inactive)
REMARK    1  A    between atoms: O_2  and  C_3 
REMARK    2  A    between atoms: C_4  and  O_5 
REMARK    3  A    between atoms: C_8  and  N_9 
REMARK       I    between atoms: N_9  and  C_10 
REMARK    4  A    between atoms: C_10  and  C_11 
REMARK    5  A    between atoms: C_11  and  N_12 
REMARK    6  A    between atoms: N_20  and  C_21 
REMARK    7  A    between atoms: C_21  and  C_22 
ROOT
HETATM    1  N   UNL     1      41.080 -14.092   3.561  1.00  0.00    -0.063 N 
HETATM    2  H   UNL     1      40.619 -13.579   4.341  1.00  0.00     0.280 HD
HETATM    3  C   UNL     1      41.724 -13.033   2.710  1.00  0.00     0.238 C 
HETATM    4  C   UNL     1      42.230 -13.639   1.405  1.00  0.00     0.069 C 
HETATM    5  C   UNL     1      41.134 -14.425   0.674  1.00  0.00     0.119 C 
HETATM    6  N   UNL     1      41.656 -15.057  -0.516  1.00  0.00    -0.324 N 
HETATM    7  C   UNL     1      41.314 -14.370  -1.662  1.00  0.00     0.326 C 
HETATM    8  O   UNL     1      41.781 -14.623  -2.757  1.00  0.00    -0.247 OA
HETATM    9  N   UNL     1      40.426 -13.396  -1.328  1.00  0.00    -0.264 N 
HETATM   10  C   UNL     1      40.184 -13.412   0.012  1.00  0.00     0.256 C 
HETATM   11  O   UNL     1      39.428 -12.685   0.642  1.00  0.00    -0.270 OA
HETATM   12  C   UNL     1      40.418 -15.428   1.572  1.00  0.00     0.069 C 
HETATM   13  C   UNL     1      39.958 -14.816   2.884  1.00  0.00     0.238 C 
HETATM   14  H   UNL     1      42.380 -15.766  -0.573  1.00  0.00     0.165 HD
ENDROOT
BRANCH   1  15
HETATM   15  C   UNL     1      42.101 -14.966   4.323  1.00  0.00     0.337 C 
BRANCH  15  16
HETATM   16  C   UNL     1      41.326 -15.951   5.197  1.00  0.00     0.248 C 
HETATM   17  N   UNL     1      41.561 -17.288   5.224  1.00  0.00    -0.326 N 
HETATM   18  H   UNL     1      41.078 -17.735   6.001  1.00  0.00     0.169 HD
HETATM   19  O   UNL     1      40.554 -15.462   6.035  1.00  0.00    -0.271 OA
BRANCH  17  20
HETATM   20  C   UNL     1      42.415 -18.117   4.481  1.00  0.00     0.037 A 
HETATM   21  C   UNL     1      43.450 -18.875   5.018  1.00  0.00     0.069 A 
HETATM   22  C   UNL     1      44.188 -19.731   4.190  1.00  0.00     0.103 A 
HETATM   23  C   UNL     1      43.965 -19.788   2.808  1.00  0.00     0.101 A 
HETATM   24  C   UNL     1      42.962 -18.987   2.267  1.00  0.00     0.042 A 
HETATM   25  C   UNL     1      42.201 -18.154   3.097  1.00  0.00     0.032 A 
BRANCH  22  26
HETATM   26  O   UNL     1      45.206 -20.447   4.768  1.00  0.00    -0.353 OA
HETATM   27  C   UNL     1      44.689 -21.583   5.459  1.00  0.00     0.210 C 
ENDBRANCH  22  26
BRANCH  23  28
HETATM   28  O   UNL     1      44.749 -20.652   2.095  1.00  0.00    -0.353 OA
HETATM   29  C   UNL     1      44.156 -21.887   1.705  1.00  0.00     0.210 C 
ENDBRANCH  23  28
ENDBRANCH  17  20
ENDBRANCH  15  16
ENDBRANCH   1  15
BRANCH   9  30
HETATM   30  C   UNL     1      39.957 -12.378  -2.244  1.00  0.00     0.175 C 
BRANCH  30  31
HETATM   31  C   UNL     1      38.682 -12.845  -2.917  1.00  0.00    -0.040 A 
HETATM   32  C   UNL     1      38.407 -14.217  -3.033  1.00  0.00     0.010 A 
HETATM   33  C   UNL     1      37.278 -14.659  -3.727  1.00  0.00     0.024 A 
HETATM   34  C   UNL     1      36.417 -13.732  -4.308  1.00  0.00     0.034 A 
HETATM   35 CL   UNL     1      35.043 -14.275  -5.185  1.00  0.00    -0.084 Cl
HETATM   36  C   UNL     1      36.672 -12.366  -4.195  1.00  0.00     0.024 A 
HETATM   37  C   UNL     1      37.804 -11.923  -3.504  1.00  0.00     0.010 A 
ENDBRANCH  30  31
ENDBRANCH   9  30
TORSDOF 7
ENDMDL
MODEL 9
REMARK VINA RESULT:      -8.0      5.149      8.769
REMARK  7 active torsions:
REMARK  status: ('A' for Active; 'I' for Inactive)
REMARK    1  A    between atoms: O_2  and  C_3 
REMARK    2  A    between atoms: C_4  and  O_5 
REMARK    3  A    between atoms: C_8  and  N_9 
REMARK       I    between atoms: N_9  and  C_10 
REMARK    4  A    between atoms: C_10  and  C_11 
REMARK    5  A    between atoms: C_11  and  N_12 
REMARK    6  A    between atoms: N_20  and  C_21 
REMARK    7  A    between atoms: C_21  and  C_22 
ROOT
HETATM    1  N   UNL     1      41.565 -16.200   2.927  1.00  0.00    -0.063 N 
HETATM    2  H   UNL     1      42.297 -16.940   2.902  1.00  0.00     0.280 HD
HETATM    3  C   UNL     1      40.450 -16.707   2.057  1.00  0.00     0.238 C 
HETATM    4  C   UNL     1      39.420 -15.607   1.823  1.00  0.00     0.069 C 
HETATM    5  C   UNL     1      40.066 -14.319   1.295  1.00  0.00     0.119 C 
HETATM    6  N   UNL     1      39.086 -13.267   1.157  1.00  0.00    -0.324 N 
HETATM    7  C   UNL     1      38.696 -13.086  -0.154  1.00  0.00     0.326 C 
HETATM    8  O   UNL     1      37.765 -12.376  -0.483  1.00  0.00    -0.247 OA
HETATM    9  N   UNL     1      39.501 -13.844  -0.947  1.00  0.00    -0.264 N 
HETATM   10  C   UNL     1      40.402 -14.531  -0.192  1.00  0.00     0.256 C 
HETATM   11  O   UNL     1      41.279 -15.290  -0.583  1.00  0.00    -0.270 OA
HETATM   12  C   UNL     1      41.260 -13.866   2.126  1.00  0.00     0.069 C 
HETATM   13  C   UNL     1      42.254 -14.986   2.385  1.00  0.00     0.238 C 
HETATM   14  H   UNL     1      38.530 -12.838   1.891  1.00  0.00     0.165 HD
ENDROOT
BRANCH   1  15
HETATM   15  C   UNL     1      41.204 -16.171   4.429  1.00  0.00     0.337 C 
BRANCH  15  16
HETATM   16  C   UNL     1      42.457 -15.788   5.214  1.00  0.00     0.248 C 
HETATM   17  N   UNL     1      43.572 -16.560   5.285  1.00  0.00    -0.326 N 
HETATM   18  H   UNL     1      44.353 -16.048   5.691  1.00  0.00     0.169 HD
HETATM   19  O   UNL     1      42.495 -14.638   5.673  1.00  0.00    -0.271 OA
BRANCH  17  20
HETATM   20  C   UNL     1      43.870 -17.844   4.806  1.00  0.00     0.037 A 
HETATM   21  C   UNL     1      44.061 -18.966   5.606  1.00  0.00     0.069 A 
HETATM   22  C   UNL     1      44.274 -20.216   5.013  1.00  0.00     0.103 A 
HETATM   23  C   UNL     1      44.381 -20.362   3.623  1.00  0.00     0.101 A 
HETATM   24  C   UNL     1      44.242 -19.226   2.829  1.00  0.00     0.042 A 
HETATM   25  C   UNL     1      43.997 -17.979   3.417  1.00  0.00     0.032 A 
BRANCH  22  26
HETATM   26  O   UNL     1      44.469 -21.288   5.848  1.00  0.00    -0.353 OA
HETATM   27  C   UNL     1      43.690 -21.144   7.036  1.00  0.00     0.210 C 
ENDBRANCH  22  26
BRANCH  23  28
HETATM   28  O   UNL     1      44.598 -21.627   3.153  1.00  0.00    -0.353 OA
HETATM   29  C   UNL     1      44.108 -21.921   1.849  1.00  0.00     0.210 C 
ENDBRANCH  23  28
ENDBRANCH  17  20
ENDBRANCH  15  16
ENDBRANCH   1  15
BRANCH   9  30
HETATM   30  C   UNL     1      39.299 -14.027  -2.368  1.00  0.00     0.175 C 
BRANCH  30  31
HETATM   31  C   UNL     1      40.101 -12.996  -3.135  1.00  0.00    -0.040 A 
HETATM   32  C   UNL     1      41.497 -13.118  -3.235  1.00  0.00     0.010 A 
HETATM   33  C   UNL     1      42.253 -12.128  -3.866  1.00  0.00     0.024 A 
HETATM   34  C   UNL     1      41.619 -11.011  -4.402  1.00  0.00     0.034 A 
HETATM   35 CL   UNL     1      42.552  -9.779  -5.155  1.00  0.00    -0.084 Cl
HETATM   36  C   UNL     1      40.235 -10.877  -4.318  1.00  0.00     0.024 A 
HETATM   37  C   UNL     1      39.476 -11.866  -3.683  1.00  0.00     0.010 A 
ENDBRANCH  30  31
ENDBRANCH   9  30
TORSDOF 7
ENDMDL
MODEL 10
REMARK VINA RESULT:      -7.9      1.463      2.411
REMARK  7 active torsions:
REMARK  status: ('A' for Active; 'I' for Inactive)
REMARK    1  A    between atoms: O_2  and  C_3 
REMARK    2  A    between atoms: C_4  and  O_5 
REMARK    3  A    between atoms: C_8  and  N_9 
REMARK       I    between atoms: N_9  and  C_10 
REMARK    4  A    between atoms: C_10  and  C_11 
REMARK    5  A    between atoms: C_11  and  N_12 
REMARK    6  A    between atoms: N_20  and  C_21 
REMARK    7  A    between atoms: C_21  and  C_22 
ROOT
HETATM    1  N   UNL     1      40.488 -13.502   5.272  1.00  0.00    -0.063 N 
HETATM    2  H   UNL     1      39.617 -13.578   5.838  1.00  0.00     0.280 HD
HETATM    3  C   UNL     1      40.120 -13.998   3.901  1.00  0.00     0.238 C 
HETATM    4  C   UNL     1      41.372 -14.160   3.045  1.00  0.00     0.069 C 
HETATM    5  C   UNL     1      42.434 -15.022   3.739  1.00  0.00     0.119 C 
HETATM    6  N   UNL     1      43.640 -15.095   2.946  1.00  0.00    -0.324 N 
HETATM    7  C   UNL     1      43.746 -16.292   2.268  1.00  0.00     0.326 C 
HETATM    8  O   UNL     1      44.587 -16.506   1.416  1.00  0.00    -0.247 OA
HETATM    9  N   UNL     1      42.756 -17.119   2.704  1.00  0.00    -0.264 N 
HETATM   10  C   UNL     1      41.992 -16.493   3.641  1.00  0.00     0.256 C 
HETATM   11  O   UNL     1      41.033 -16.950   4.248  1.00  0.00    -0.270 OA
HETATM   12  C   UNL     1      42.729 -14.573   5.165  1.00  0.00     0.069 C 
HETATM   13  C   UNL     1      41.468 -14.376   5.991  1.00  0.00     0.238 C 
HETATM   14  H   UNL     1      44.252 -14.331   2.678  1.00  0.00     0.165 HD
ENDROOT
BRANCH   1  15
HETATM   15  C   UNL     1      40.759 -11.982   5.319  1.00  0.00     0.337 C 
BRANCH  15  16
HETATM   16  C   UNL     1      39.530 -11.297   5.914  1.00  0.00     0.248 C 
HETATM   17  N   UNL     1      39.483 -10.781   7.169  1.00  0.00    -0.326 N 
HETATM   18  H   UNL     1      38.653 -10.206   7.303  1.00  0.00     0.169 HD
HETATM   19  O   UNL     1      38.590 -11.071   5.138  1.00  0.00    -0.271 OA
BRANCH  17  20
HETATM   20  C   UNL     1      40.395 -10.791   8.234  1.00  0.00     0.037 A 
HETATM   21  C   UNL     1      40.050 -10.933   9.574  1.00  0.00     0.069 A 
HETATM   22  C   UNL     1      41.053 -11.010  10.548  1.00  0.00     0.103 A 
HETATM   23  C   UNL     1      42.408 -10.868  10.219  1.00  0.00     0.101 A 
HETATM   24  C   UNL     1      42.746 -10.673   8.882  1.00  0.00     0.042 A 
HETATM   25  C   UNL     1      41.747 -10.627   7.902  1.00  0.00     0.032 A 
BRANCH  22  26
HETATM   26  O   UNL     1      40.657 -11.137  11.856  1.00  0.00    -0.353 OA
HETATM   27  C   UNL     1      39.648 -10.177  12.168  1.00  0.00     0.210 C 
ENDBRANCH  22  26
BRANCH  23  28
HETATM   28  O   UNL     1      43.302 -10.952  11.250  1.00  0.00    -0.353 OA
HETATM   29  C   UNL     1      44.063 -12.152  11.345  1.00  0.00     0.210 C 
ENDBRANCH  23  28
ENDBRANCH  17  20
ENDBRANCH  15  16
ENDBRANCH   1  15
BRANCH   9  30
HETATM   30  C   UNL     1      42.458 -18.406   2.115  1.00  0.00     0.175 C 
BRANCH  30  31
HETATM   31  C   UNL     1      43.223 -19.491   2.845  1.00  0.00    -0.040 A 
HETATM   32  C   UNL     1      43.635 -19.293   4.173  1.00  0.00     0.010 A 
HETATM   33  C   UNL     1      44.414 -20.252   4.826  1.00  0.00     0.024 A 
HETATM   34  C   UNL     1      44.785 -21.414   4.155  1.00  0.00     0.034 A 
HETATM   35 CL   UNL     1      45.766 -22.581   4.948  1.00  0.00    -0.084 Cl
HETATM   36  C   UNL     1      44.379 -21.629   2.839  1.00  0.00     0.024 A 
HETATM   37  C   UNL     1      43.603 -20.668   2.183  1.00  0.00     0.010 A 
ENDBRANCH  30  31
ENDBRANCH   9  30
TORSDOF 7
ENDMDL
