MODEL 1
REMARK VINA RESULT:      -7.3      0.000      0.000
REMARK  5 active torsions:
REMARK  status: ('A' for Active; 'I' for Inactive)
REMARK    1  A    between atoms: C_2  and  O_3 
REMARK    2  A    between atoms: C_2  and  C_5 
REMARK    3  A    between atoms: C_7  and  N_8 
REMARK    4  A    between atoms: N_8  and  C_9 
REMARK    5  A    between atoms: C_9  and  C_10 
ROOT
HETATM    1  N   UNL     1      40.940 -16.599   3.782  1.00  0.00    -0.289 NA
HETATM    2  H   UNL     1      40.713 -17.234   4.547  1.00  0.00     0.128 HD
ENDROOT
BRANCH   1   3
HETATM    3  C   UNL     1      41.968 -17.148   2.995  1.00  0.00     0.009 A 
HETATM    4  C   UNL     1      42.395 -18.458   3.271  1.00  0.00     0.033 A 
HETATM    5  C   UNL     1      43.371 -19.108   2.490  1.00  0.00    -0.028 A 
HETATM    6  C   UNL     1      43.921 -18.416   1.406  1.00  0.00     0.010 A 
HETATM    7  C   UNL     1      43.466 -17.139   1.080  1.00  0.00     0.002 A 
HETATM    8  C   UNL     1      42.482 -16.522   1.856  1.00  0.00     0.023 A 
BRANCH   5   9
HETATM    9  C   UNL     1      43.819 -20.507   2.871  1.00  0.00     0.149 C 
HETATM   10  C   UNL     1      44.026 -21.432   1.671  1.00  0.00     0.045 C 
BRANCH   9  11
HETATM   11  O   UNL     1      45.033 -20.365   3.613  1.00  0.00    -0.386 OA
HETATM   12  C   UNL     1      45.021 -21.058   4.853  1.00  0.00     0.202 C 
ENDBRANCH   9  11
ENDBRANCH   5   9
ENDBRANCH   1   3
BRANCH   1  13
HETATM   13  C   UNL     1      41.106 -15.232   4.295  1.00  0.00     0.133 C 
BRANCH  13  14
HETATM   14  C   UNL     1      42.263 -15.092   5.259  1.00  0.00    -0.016 A 
HETATM   15  C   UNL     1      42.568 -15.975   6.310  1.00  0.00     0.069 A 
HETATM   16  C   UNL     1      43.667 -15.842   7.148  1.00  0.00     0.012 A 
HETATM   17  N   UNL     1      41.918 -17.100   6.754  1.00  0.00    -0.277 N 
HETATM   18  C   UNL     1      43.579 -16.942   8.029  1.00  0.00     0.152 A 
HETATM   19  C   UNL     1      44.545 -14.761   6.963  1.00  0.00     0.015 A 
HETATM   20  N   UNL     1      42.519 -17.717   7.789  1.00  0.00    -0.186 NA
HETATM   21  C   UNL     1      44.280 -13.855   5.933  1.00  0.00     0.002 A 
HETATM   22  C   UNL     1      43.169 -14.020   5.103  1.00  0.00     0.011 A 
HETATM   23  H   UNL     1      41.052 -17.473   6.375  1.00  0.00     0.189 HD
ENDBRANCH  13  14
ENDBRANCH   1  13
TORSDOF 5
ENDMDL
MODEL 2
REMARK VINA RESULT:      -7.2      1.539      2.277
REMARK  5 active torsions:
REMARK  status: ('A' for Active; 'I' for Inactive)
REMARK    1  A    between atoms: C_2  and  O_3 
REMARK    2  A    between atoms: C_2  and  C_5 
REMARK    3  A    between atoms: C_7  and  N_8 
REMARK    4  A    between atoms: N_8  and  C_9 
REMARK    5  A    between atoms: C_9  and  C_10 
ROOT
HETATM    1  N   UNL     1      40.711 -16.991   3.816  1.00  0.00    -0.289 NA
HETATM    2  H   UNL     1      40.468 -17.819   4.359  1.00  0.00     0.128 HD
ENDROOT
BRANCH   1   3
HETATM    3  C   UNL     1      41.745 -17.299   2.913  1.00  0.00     0.009 A 
HETATM    4  C   UNL     1      42.609 -18.362   3.223  1.00  0.00     0.033 A 
HETATM    5  C   UNL     1      43.628 -18.781   2.344  1.00  0.00    -0.028 A 
HETATM    6  C   UNL     1      43.768 -18.109   1.125  1.00  0.00     0.010 A 
HETATM    7  C   UNL     1      42.881 -17.093   0.773  1.00  0.00     0.002 A 
HETATM    8  C   UNL     1      41.865 -16.709   1.652  1.00  0.00     0.023 A 
BRANCH   5   9
HETATM    9  C   UNL     1      44.556 -19.906   2.762  1.00  0.00     0.149 C 
HETATM   10  C   UNL     1      44.633 -20.106   4.277  1.00  0.00     0.045 C 
BRANCH   9  11
HETATM   11  O   UNL     1      44.082 -21.093   2.121  1.00  0.00    -0.386 OA
HETATM   12  C   UNL     1      44.337 -22.277   2.864  1.00  0.00     0.202 C 
ENDBRANCH   9  11
ENDBRANCH   5   9
ENDBRANCH   1   3
BRANCH   1  13
HETATM   13  C   UNL     1      40.883 -15.836   4.707  1.00  0.00     0.133 C 
BRANCH  13  14
HETATM   14  C   UNL     1      41.934 -16.057   5.774  1.00  0.00    -0.016 A 
HETATM   15  C   UNL     1      43.051 -15.237   6.006  1.00  0.00     0.069 A 
HETATM   16  C   UNL     1      43.971 -15.442   7.027  1.00  0.00     0.012 A 
HETATM   17  N   UNL     1      43.499 -14.120   5.345  1.00  0.00    -0.277 N 
HETATM   18  C   UNL     1      44.900 -14.386   6.887  1.00  0.00     0.152 A 
HETATM   19  C   UNL     1      43.805 -16.534   7.893  1.00  0.00     0.015 A 
HETATM   20  N   UNL     1      44.612 -13.572   5.869  1.00  0.00    -0.186 NA
HETATM   21  C   UNL     1      42.709 -17.380   7.698  1.00  0.00     0.002 A 
HETATM   22  C   UNL     1      41.797 -17.143   6.666  1.00  0.00     0.011 A 
HETATM   23  H   UNL     1      43.068 -13.705   4.524  1.00  0.00     0.189 HD
ENDBRANCH  13  14
ENDBRANCH   1  13
TORSDOF 5
ENDMDL
MODEL 3
REMARK VINA RESULT:      -7.1      2.902      6.004
REMARK  5 active torsions:
REMARK  status: ('A' for Active; 'I' for Inactive)
REMARK    1  A    between atoms: C_2  and  O_3 
REMARK    2  A    between atoms: C_2  and  C_5 
REMARK    3  A    between atoms: C_7  and  N_8 
REMARK    4  A    between atoms: N_8  and  C_9 
REMARK    5  A    between atoms: C_9  and  C_10 
ROOT
HETATM    1  N   UNL     1      42.654 -17.814   5.491  1.00  0.00    -0.289 NA
HETATM    2  H   UNL     1      42.116 -18.674   5.393  1.00  0.00     0.128 HD
ENDROOT
BRANCH   1   3
HETATM    3  C   UNL     1      41.847 -16.707   5.176  1.00  0.00     0.009 A 
HETATM    4  C   UNL     1      41.470 -16.514   3.836  1.00  0.00     0.033 A 
HETATM    5  C   UNL     1      40.609 -15.471   3.442  1.00  0.00    -0.028 A 
HETATM    6  C   UNL     1      40.119 -14.609   4.428  1.00  0.00     0.010 A 
HETATM    7  C   UNL     1      40.432 -14.821   5.770  1.00  0.00     0.002 A 
HETATM    8  C   UNL     1      41.271 -15.875   6.140  1.00  0.00     0.023 A 
BRANCH   5   9
HETATM    9  C   UNL     1      40.279 -15.293   1.972  1.00  0.00     0.149 C 
HETATM   10  C   UNL     1      40.967 -16.311   1.062  1.00  0.00     0.045 C 
BRANCH   9  11
HETATM   11  O   UNL     1      38.857 -15.390   1.852  1.00  0.00    -0.386 OA
HETATM   12  C   UNL     1      38.269 -14.283   1.183  1.00  0.00     0.202 C 
ENDBRANCH   9  11
ENDBRANCH   5   9
ENDBRANCH   1   3
BRANCH   1  13
HETATM   13  C   UNL     1      43.949 -17.951   4.813  1.00  0.00     0.133 C 
BRANCH  13  14
HETATM   14  C   UNL     1      44.004 -19.126   3.859  1.00  0.00    -0.016 A 
HETATM   15  C   UNL     1      44.367 -20.440   4.197  1.00  0.00     0.069 A 
HETATM   16  C   UNL     1      44.360 -21.506   3.306  1.00  0.00     0.012 A 
HETATM   17  N   UNL     1      44.795 -20.977   5.387  1.00  0.00    -0.277 N 
HETATM   18  C   UNL     1      44.779 -22.615   4.074  1.00  0.00     0.152 A 
HETATM   19  C   UNL     1      43.977 -21.284   1.973  1.00  0.00     0.015 A 
HETATM   20  N   UNL     1      45.037 -22.300   5.345  1.00  0.00    -0.186 NA
HETATM   21  C   UNL     1      43.611 -19.991   1.590  1.00  0.00     0.002 A 
HETATM   22  C   UNL     1      43.622 -18.942   2.513  1.00  0.00     0.011 A 
HETATM   23  H   UNL     1      44.938 -20.462   6.251  1.00  0.00     0.189 HD
ENDBRANCH  13  14
ENDBRANCH   1  13
TORSDOF 5
ENDMDL
MODEL 4
REMARK VINA RESULT:      -7.1      2.685      4.333
REMARK  5 active torsions:
REMARK  status: ('A' for Active; 'I' for Inactive)
REMARK    1  A    between atoms: C_2  and  O_3 
REMARK    2  A    between atoms: C_2  and  C_5 
REMARK    3  A    between atoms: C_7  and  N_8 
REMARK    4  A    between atoms: N_8  and  C_9 
REMARK    5  A    between atoms: C_9  and  C_10 
ROOT
HETATM    1  N   UNL     1      42.342 -18.460   1.686  1.00  0.00    -0.289 NA
HETATM    2  H   UNL     1      41.525 -18.251   2.258  1.00  0.00     0.128 HD
ENDROOT
BRANCH   1   3
HETATM    3  C   UNL     1      43.195 -19.342   2.374  1.00  0.00     0.009 A 
HETATM    4  C   UNL     1      43.521 -19.050   3.709  1.00  0.00     0.033 A 
HETATM    5  C   UNL     1      44.313 -19.913   4.493  1.00  0.00    -0.028 A 
HETATM    6  C   UNL     1      44.778 -21.097   3.911  1.00  0.00     0.010 A 
HETATM    7  C   UNL     1      44.413 -21.433   2.608  1.00  0.00     0.002 A 
HETATM    8  C   UNL     1      43.610 -20.572   1.857  1.00  0.00     0.023 A 
BRANCH   5   9
HETATM    9  C   UNL     1      44.666 -19.515   5.914  1.00  0.00     0.149 C 
HETATM   10  C   UNL     1      45.062 -18.044   6.057  1.00  0.00     0.045 C 
BRANCH   9  11
HETATM   11  O   UNL     1      43.524 -19.810   6.723  1.00  0.00    -0.386 OA
HETATM   12  C   UNL     1      43.564 -21.104   7.305  1.00  0.00     0.202 C 
ENDBRANCH   9  11
ENDBRANCH   5   9
ENDBRANCH   1   3
BRANCH   1  13
HETATM   13  C   UNL     1      42.911 -17.218   1.145  1.00  0.00     0.133 C 
BRANCH  13  14
HETATM   14  C   UNL     1      42.500 -15.986   1.922  1.00  0.00    -0.016 A 
HETATM   15  C   UNL     1      41.188 -15.499   2.054  1.00  0.00     0.069 A 
HETATM   16  C   UNL     1      40.841 -14.390   2.815  1.00  0.00     0.012 A 
HETATM   17  N   UNL     1      40.007 -15.941   1.512  1.00  0.00    -0.277 N 
HETATM   18  C   UNL     1      39.440 -14.281   2.667  1.00  0.00     0.152 A 
HETATM   19  C   UNL     1      41.843 -13.686   3.502  1.00  0.00     0.015 A 
HETATM   20  N   UNL     1      38.925 -15.229   1.880  1.00  0.00    -0.186 NA
HETATM   21  C   UNL     1      43.163 -14.132   3.397  1.00  0.00     0.002 A 
HETATM   22  C   UNL     1      43.480 -15.255   2.628  1.00  0.00     0.011 A 
HETATM   23  H   UNL     1      39.904 -16.728   0.878  1.00  0.00     0.189 HD
ENDBRANCH  13  14
ENDBRANCH   1  13
TORSDOF 5
ENDMDL
MODEL 5
REMARK VINA RESULT:      -7.0      3.547      6.056
REMARK  5 active torsions:
REMARK  status: ('A' for Active; 'I' for Inactive)
REMARK    1  A    between atoms: C_2  and  O_3 
REMARK    2  A    between atoms: C_2  and  C_5 
REMARK    3  A    between atoms: C_7  and  N_8 
REMARK    4  A    between atoms: N_8  and  C_9 
REMARK    5  A    between atoms: C_9  and  C_10 
ROOT
HETATM    1  N   UNL     1      40.509 -16.591   1.079  1.00  0.00    -0.289 NA
HETATM    2  H   UNL     1      39.655 -17.104   0.864  1.00  0.00     0.128 HD
ENDROOT
BRANCH   1   3
HETATM    3  C   UNL     1      41.183 -17.211   2.147  1.00  0.00     0.009 A 
HETATM    4  C   UNL     1      42.230 -18.100   1.850  1.00  0.00     0.033 A 
HETATM    5  C   UNL     1      43.003 -18.711   2.858  1.00  0.00    -0.028 A 
HETATM    6  C   UNL     1      42.708 -18.410   4.192  1.00  0.00     0.010 A 
HETATM    7  C   UNL     1      41.714 -17.483   4.504  1.00  0.00     0.002 A 
HETATM    8  C   UNL     1      40.975 -16.873   3.487  1.00  0.00     0.023 A 
BRANCH   5   9
HETATM    9  C   UNL     1      44.089 -19.697   2.470  1.00  0.00     0.149 C 
HETATM   10  C   UNL     1      44.794 -20.334   3.668  1.00  0.00     0.045 C 
BRANCH   9  11
HETATM   11  O   UNL     1      43.468 -20.698   1.659  1.00  0.00    -0.386 OA
HETATM   12  C   UNL     1      44.140 -21.948   1.692  1.00  0.00     0.202 C 
ENDBRANCH   9  11
ENDBRANCH   5   9
ENDBRANCH   1   3
BRANCH   1  13
HETATM   13  C   UNL     1      40.223 -15.154   1.173  1.00  0.00     0.133 C 
BRANCH  13  14
HETATM   14  C   UNL     1      40.938 -14.332   0.123  1.00  0.00    -0.016 A 
HETATM   15  C   UNL     1      41.009 -14.635  -1.248  1.00  0.00     0.069 A 
HETATM   16  C   UNL     1      41.635 -13.833  -2.193  1.00  0.00     0.012 A 
HETATM   17  N   UNL     1      40.531 -15.710  -1.956  1.00  0.00    -0.277 N 
HETATM   18  C   UNL     1      41.451 -14.514  -3.417  1.00  0.00     0.152 A 
HETATM   19  C   UNL     1      42.251 -12.639  -1.782  1.00  0.00     0.015 A 
HETATM   20  N   UNL     1      40.771 -15.655  -3.280  1.00  0.00    -0.186 NA
HETATM   21  C   UNL     1      42.208 -12.298  -0.428  1.00  0.00     0.002 A 
HETATM   22  C   UNL     1      41.566 -13.124   0.498  1.00  0.00     0.011 A 
HETATM   23  H   UNL     1      40.038 -16.506  -1.563  1.00  0.00     0.189 HD
ENDBRANCH  13  14
ENDBRANCH   1  13
TORSDOF 5
ENDMDL
MODEL 6
REMARK VINA RESULT:      -6.9      3.064      5.858
REMARK  5 active torsions:
REMARK  status: ('A' for Active; 'I' for Inactive)
REMARK    1  A    between atoms: C_2  and  O_3 
REMARK    2  A    between atoms: C_2  and  C_5 
REMARK    3  A    between atoms: C_7  and  N_8 
REMARK    4  A    between atoms: N_8  and  C_9 
REMARK    5  A    between atoms: C_9  and  C_10 
ROOT
HETATM    1  N   UNL     1      42.075 -18.230   1.729  1.00  0.00    -0.289 NA
HETATM    2  H   UNL     1      41.191 -18.181   2.233  1.00  0.00     0.128 HD
ENDROOT
BRANCH   1   3
HETATM    3  C   UNL     1      43.025 -18.927   2.496  1.00  0.00     0.009 A 
HETATM    4  C   UNL     1      43.123 -18.634   3.867  1.00  0.00     0.033 A 
HETATM    5  C   UNL     1      43.999 -19.331   4.722  1.00  0.00    -0.028 A 
HETATM    6  C   UNL     1      44.788 -20.349   4.175  1.00  0.00     0.010 A 
HETATM    7  C   UNL     1      44.660 -20.696   2.831  1.00  0.00     0.002 A 
HETATM    8  C   UNL     1      43.769 -20.004   2.007  1.00  0.00     0.023 A 
BRANCH   5   9
HETATM    9  C   UNL     1      44.088 -18.932   6.184  1.00  0.00     0.149 C 
HETATM   10  C   UNL     1      45.248 -17.983   6.490  1.00  0.00     0.045 C 
BRANCH   9  11
HETATM   11  O   UNL     1      42.838 -18.327   6.524  1.00  0.00    -0.386 OA
HETATM   12  C   UNL     1      42.960 -17.271   7.467  1.00  0.00     0.202 C 
ENDBRANCH   9  11
ENDBRANCH   5   9
ENDBRANCH   1   3
BRANCH   1  13
HETATM   13  C   UNL     1      42.434 -16.903   1.211  1.00  0.00     0.133 C 
BRANCH  13  14
HETATM   14  C   UNL     1      41.247 -15.972   1.081  1.00  0.00    -0.016 A 
HETATM   15  C   UNL     1      41.053 -15.029   0.056  1.00  0.00     0.069 A 
HETATM   16  C   UNL     1      39.928 -14.222  -0.058  1.00  0.00     0.012 A 
HETATM   17  N   UNL     1      41.850 -14.678  -1.004  1.00  0.00    -0.277 N 
HETATM   18  C   UNL     1      40.157 -13.455  -1.222  1.00  0.00     0.152 A 
HETATM   19  C   UNL     1      38.906 -14.328   0.899  1.00  0.00     0.015 A 
HETATM   20  N   UNL     1      41.324 -13.734  -1.808  1.00  0.00    -0.186 NA
HETATM   21  C   UNL     1      39.058 -15.250   1.938  1.00  0.00     0.002 A 
HETATM   22  C   UNL     1      40.199 -16.051   2.023  1.00  0.00     0.011 A 
HETATM   23  H   UNL     1      42.769 -15.061  -1.208  1.00  0.00     0.189 HD
ENDBRANCH  13  14
ENDBRANCH   1  13
TORSDOF 5
ENDMDL
MODEL 7
REMARK VINA RESULT:      -6.9      2.624      4.469
REMARK  5 active torsions:
REMARK  status: ('A' for Active; 'I' for Inactive)
REMARK    1  A    between atoms: C_2  and  O_3 
REMARK    2  A    between atoms: C_2  and  C_5 
REMARK    3  A    between atoms: C_7  and  N_8 
REMARK    4  A    between atoms: N_8  and  C_9 
REMARK    5  A    between atoms: C_9  and  C_10 
ROOT
HETATM    1  N   UNL     1      43.678 -17.129   1.405  1.00  0.00    -0.289 NA
HETATM    2  H   UNL     1      44.304 -17.158   0.601  1.00  0.00     0.128 HD
ENDROOT
BRANCH   1   3
HETATM    3  C   UNL     1      43.948 -18.213   2.260  1.00  0.00     0.009 A 
HETATM    4  C   UNL     1      43.916 -17.993   3.648  1.00  0.00     0.033 A 
HETATM    5  C   UNL     1      44.107 -19.036   4.576  1.00  0.00    -0.028 A 
HETATM    6  C   UNL     1      44.333 -20.326   4.085  1.00  0.00     0.010 A 
HETATM    7  C   UNL     1      44.307 -20.574   2.713  1.00  0.00     0.002 A 
HETATM    8  C   UNL     1      44.094 -19.528   1.812  1.00  0.00     0.023 A 
BRANCH   5   9
HETATM    9  C   UNL     1      44.105 -18.721   6.060  1.00  0.00     0.149 C 
HETATM   10  C   UNL     1      45.374 -18.012   6.538  1.00  0.00     0.045 C 
BRANCH   9  11
HETATM   11  O   UNL     1      42.952 -17.913   6.311  1.00  0.00    -0.386 OA
HETATM   12  C   UNL     1      42.851 -17.476   7.658  1.00  0.00     0.202 C 
ENDBRANCH   9  11
ENDBRANCH   5   9
ENDBRANCH   1   3
BRANCH   1  13
HETATM   13  C   UNL     1      42.294 -16.920   0.959  1.00  0.00     0.133 C 
BRANCH  13  14
HETATM   14  C   UNL     1      41.563 -15.861   1.756  1.00  0.00    -0.016 A 
HETATM   15  C   UNL     1      42.166 -14.844   2.516  1.00  0.00     0.069 A 
HETATM   16  C   UNL     1      41.464 -13.859   3.199  1.00  0.00     0.012 A 
HETATM   17  N   UNL     1      43.488 -14.578   2.772  1.00  0.00    -0.277 N 
HETATM   18  C   UNL     1      42.462 -13.062   3.801  1.00  0.00     0.152 A 
HETATM   19  C   UNL     1      40.060 -13.858   3.151  1.00  0.00     0.015 A 
HETATM   20  N   UNL     1      43.699 -13.491   3.537  1.00  0.00    -0.186 NA
HETATM   21  C   UNL     1      39.417 -14.853   2.410  1.00  0.00     0.002 A 
HETATM   22  C   UNL     1      40.152 -15.827   1.730  1.00  0.00     0.011 A 
HETATM   23  H   UNL     1      44.278 -15.126   2.442  1.00  0.00     0.189 HD
ENDBRANCH  13  14
ENDBRANCH   1  13
TORSDOF 5
ENDMDL
MODEL 8
REMARK VINA RESULT:      -6.9      2.995      5.721
REMARK  5 active torsions:
REMARK  status: ('A' for Active; 'I' for Inactive)
REMARK    1  A    between atoms: C_2  and  O_3 
REMARK    2  A    between atoms: C_2  and  C_5 
REMARK    3  A    between atoms: C_7  and  N_8 
REMARK    4  A    between atoms: N_8  and  C_9 
REMARK    5  A    between atoms: C_9  and  C_10 
ROOT
HETATM    1  N   UNL     1      42.369 -17.843   1.698  1.00  0.00    -0.289 NA
HETATM    2  H   UNL     1      42.371 -17.929   0.682  1.00  0.00     0.128 HD
ENDROOT
BRANCH   1   3
HETATM    3  C   UNL     1      41.473 -16.834   2.092  1.00  0.00     0.009 A 
HETATM    4  C   UNL     1      41.415 -16.483   3.451  1.00  0.00     0.033 A 
HETATM    5  C   UNL     1      40.596 -15.438   3.922  1.00  0.00    -0.028 A 
HETATM    6  C   UNL     1      39.823 -14.733   2.993  1.00  0.00     0.010 A 
HETATM    7  C   UNL     1      39.914 -15.025   1.633  1.00  0.00     0.002 A 
HETATM    8  C   UNL     1      40.749 -16.052   1.187  1.00  0.00     0.023 A 
BRANCH   5   9
HETATM    9  C   UNL     1      40.547 -15.142   5.409  1.00  0.00     0.149 C 
HETATM   10  C   UNL     1      41.398 -16.095   6.251  1.00  0.00     0.045 C 
BRANCH   9  11
HETATM   11  O   UNL     1      40.987 -13.792   5.578  1.00  0.00    -0.386 OA
HETATM   12  C   UNL     1      42.398 -13.664   5.668  1.00  0.00     0.202 C 
ENDBRANCH   9  11
ENDBRANCH   5   9
ENDBRANCH   1   3
BRANCH   1  13
HETATM   13  C   UNL     1      43.748 -17.788   2.200  1.00  0.00     0.133 C 
BRANCH  13  14
HETATM   14  C   UNL     1      44.068 -18.887   3.190  1.00  0.00    -0.016 A 
HETATM   15  C   UNL     1      44.186 -20.255   2.888  1.00  0.00     0.069 A 
HETATM   16  C   UNL     1      44.528 -21.232   3.814  1.00  0.00     0.012 A 
HETATM   17  N   UNL     1      44.005 -20.933   1.708  1.00  0.00    -0.277 N 
HETATM   18  C   UNL     1      44.537 -22.436   3.074  1.00  0.00     0.152 A 
HETATM   19  C   UNL     1      44.770 -20.862   5.147  1.00  0.00     0.015 A 
HETATM   20  N   UNL     1      44.227 -22.258   1.788  1.00  0.00    -0.186 NA
HETATM   21  C   UNL     1      44.661 -19.513   5.495  1.00  0.00     0.002 A 
HETATM   22  C   UNL     1      44.321 -18.552   4.538  1.00  0.00     0.011 A 
HETATM   23  H   UNL     1      43.721 -20.519   0.824  1.00  0.00     0.189 HD
ENDBRANCH  13  14
ENDBRANCH   1  13
TORSDOF 5
ENDMDL
MODEL 9
REMARK VINA RESULT:      -6.9      1.854      3.936
REMARK  5 active torsions:
REMARK  status: ('A' for Active; 'I' for Inactive)
REMARK    1  A    between atoms: C_2  and  O_3 
REMARK    2  A    between atoms: C_2  and  C_5 
REMARK    3  A    between atoms: C_7  and  N_8 
REMARK    4  A    between atoms: N_8  and  C_9 
REMARK    5  A    between atoms: C_9  and  C_10 
ROOT
HETATM    1  N   UNL     1      40.599 -17.003   5.703  1.00  0.00    -0.289 NA
HETATM    2  H   UNL     1      40.128 -17.458   6.484  1.00  0.00     0.128 HD
ENDROOT
BRANCH   1   3
HETATM    3  C   UNL     1      41.809 -17.662   5.424  1.00  0.00     0.009 A 
HETATM    4  C   UNL     1      42.041 -18.108   4.111  1.00  0.00     0.033 A 
HETATM    5  C   UNL     1      43.253 -18.716   3.730  1.00  0.00    -0.028 A 
HETATM    6  C   UNL     1      44.250 -18.872   4.698  1.00  0.00     0.010 A 
HETATM    7  C   UNL     1      44.062 -18.380   5.990  1.00  0.00     0.002 A 
HETATM    8  C   UNL     1      42.860 -17.761   6.340  1.00  0.00     0.023 A 
BRANCH   5   9
HETATM    9  C   UNL     1      43.420 -19.216   2.306  1.00  0.00     0.149 C 
HETATM   10  C   UNL     1      43.785 -18.115   1.310  1.00  0.00     0.045 C 
BRANCH   9  11
HETATM   11  O   UNL     1      44.433 -20.224   2.338  1.00  0.00    -0.386 OA
HETATM   12  C   UNL     1      43.969 -21.504   1.934  1.00  0.00     0.202 C 
ENDBRANCH   9  11
ENDBRANCH   5   9
ENDBRANCH   1   3
BRANCH   1  13
HETATM   13  C   UNL     1      40.627 -15.549   5.910  1.00  0.00     0.133 C 
BRANCH  13  14
HETATM   14  C   UNL     1      41.176 -14.787   4.724  1.00  0.00    -0.016 A 
HETATM   15  C   UNL     1      40.591 -14.722   3.448  1.00  0.00     0.069 A 
HETATM   16  C   UNL     1      41.098 -13.973   2.393  1.00  0.00     0.012 A 
HETATM   17  N   UNL     1      39.468 -15.329   2.942  1.00  0.00    -0.277 N 
HETATM   18  C   UNL     1      40.194 -14.195   1.331  1.00  0.00     0.152 A 
HETATM   19  C   UNL     1      42.274 -13.229   2.582  1.00  0.00     0.015 A 
HETATM   20  N   UNL     1      39.194 -15.015   1.662  1.00  0.00    -0.186 NA
HETATM   21  C   UNL     1      42.893 -13.266   3.834  1.00  0.00     0.002 A 
HETATM   22  C   UNL     1      42.355 -14.024   4.877  1.00  0.00     0.011 A 
HETATM   23  H   UNL     1      38.866 -15.974   3.446  1.00  0.00     0.189 HD
ENDBRANCH  13  14
ENDBRANCH   1  13
TORSDOF 5
ENDMDL
MODEL 10
REMARK VINA RESULT:      -6.9      2.851      5.265
REMARK  5 active torsions:
REMARK  status: ('A' for Active; 'I' for Inactive)
REMARK    1  A    between atoms: C_2  and  O_3 
REMARK    2  A    between atoms: C_2  and  C_5 
REMARK    3  A    between atoms: C_7  and  N_8 
REMARK    4  A    between atoms: N_8  and  C_9 
REMARK    5  A    between atoms: C_9  and  C_10 
ROOT
HETATM    1  N   UNL     1      42.295 -17.813   1.896  1.00  0.00    -0.289 NA
HETATM    2  H   UNL     1      41.909 -18.164   1.021  1.00  0.00     0.128 HD
ENDROOT
BRANCH   1   3
HETATM    3  C   UNL     1      43.140 -18.782   2.468  1.00  0.00     0.009 A 
HETATM    4  C   UNL     1      43.482 -18.655   3.825  1.00  0.00     0.033 A 
HETATM    5  C   UNL     1      44.266 -19.615   4.493  1.00  0.00    -0.028 A 
HETATM    6  C   UNL     1      44.710 -20.727   3.770  1.00  0.00     0.010 A 
HETATM    7  C   UNL     1      44.330 -20.902   2.440  1.00  0.00     0.002 A 
HETATM    8  C   UNL     1      43.533 -19.947   1.804  1.00  0.00     0.023 A 
BRANCH   5   9
HETATM    9  C   UNL     1      44.636 -19.393   5.948  1.00  0.00     0.149 C 
HETATM   10  C   UNL     1      45.082 -17.962   6.255  1.00  0.00     0.045 C 
BRANCH   9  11
HETATM   11  O   UNL     1      43.487 -19.740   6.725  1.00  0.00    -0.386 OA
HETATM   12  C   UNL     1      43.563 -21.039   7.295  1.00  0.00     0.202 C 
ENDBRANCH   9  11
ENDBRANCH   5   9
ENDBRANCH   1   3
BRANCH   1  13
HETATM   13  C   UNL     1      41.226 -17.242   2.726  1.00  0.00     0.133 C 
BRANCH  13  14
HETATM   14  C   UNL     1      40.714 -15.914   2.211  1.00  0.00    -0.016 A 
HETATM   15  C   UNL     1      40.685 -15.513   0.864  1.00  0.00     0.069 A 
HETATM   16  C   UNL     1      40.164 -14.304   0.421  1.00  0.00     0.012 A 
HETATM   17  N   UNL     1      41.129 -16.145  -0.271  1.00  0.00    -0.277 N 
HETATM   18  C   UNL     1      40.333 -14.336  -0.982  1.00  0.00     0.152 A 
HETATM   19  C   UNL     1      39.632 -13.401   1.355  1.00  0.00     0.015 A 
HETATM   20  N   UNL     1      40.914 -15.460  -1.410  1.00  0.00    -0.186 NA
HETATM   21  C   UNL     1      39.644 -13.756   2.707  1.00  0.00     0.002 A 
HETATM   22  C   UNL     1      40.169 -14.983   3.121  1.00  0.00     0.011 A 
HETATM   23  H   UNL     1      41.591 -17.050  -0.304  1.00  0.00     0.189 HD
ENDBRANCH  13  14
ENDBRANCH   1  13
TORSDOF 5
ENDMDL
