MODEL 1
REMARK VINA RESULT:      -9.2      0.000      0.000
REMARK  3 active torsions:
REMARK  status: ('A' for Active; 'I' for Inactive)
REMARK    1  A    between atoms: N_4  and  C_5 
REMARK    2  A    between atoms: C_15  and  C_16 
REMARK       I    between atoms: C_16  and  N_17 
REMARK    3  A    between atoms: N_17  and  C_18 
ROOT
HETATM    1  C   UNL     1      40.673 -14.345   3.646  1.00  0.00     0.073 C 
HETATM    2  C   UNL     1      41.762 -15.245   4.098  1.00  0.00     0.069 A 
HETATM    3  N   UNL     1      41.865 -16.487   3.608  1.00  0.00    -0.170 NA
HETATM    4  N   UNL     1      42.984 -17.019   4.190  1.00  0.00    -0.216 N 
HETATM    5  C   UNL     1      43.483 -16.146   5.145  1.00  0.00     0.145 A 
HETATM    6  C   UNL     1      42.746 -14.988   5.070  1.00  0.00     0.087 A 
HETATM    7  N   UNL     1      44.459 -16.328   6.068  1.00  0.00    -0.349 N 
HETATM    8  C   UNL     1      44.702 -15.306   6.971  1.00  0.00     0.111 A 
HETATM    9  C   UNL     1      44.076 -14.107   6.971  1.00  0.00     0.098 A 
HETATM   10  C   UNL     1      43.018 -13.856   5.931  1.00  0.00     0.205 A 
HETATM   11  O   UNL     1      42.430 -12.781   5.842  1.00  0.00    -0.286 OA
HETATM   12  H   UNL     1      44.843 -17.242   6.308  1.00  0.00     0.167 HD
ENDROOT
BRANCH   9  13
HETATM   13  C   UNL     1      44.446 -13.116   8.031  1.00  0.00     0.261 C 
HETATM   14  N   UNL     1      43.390 -12.382   8.527  1.00  0.00    -0.323 N 
HETATM   15  H   UNL     1      42.474 -12.555   8.109  1.00  0.00     0.169 HD
HETATM   16  O   UNL     1      45.618 -13.013   8.383  1.00  0.00    -0.267 OA
BRANCH  14  17
HETATM   17  C   UNL     1      43.409 -11.422   9.557  1.00  0.00     0.035 A 
HETATM   18  C   UNL     1      44.347 -11.402  10.594  1.00  0.00     0.032 A 
HETATM   19  C   UNL     1      44.282 -10.420  11.588  1.00  0.00     0.044 A 
HETATM   20  C   UNL     1      43.283  -9.457  11.541  1.00  0.00     0.116 A 
HETATM   21  F   UNL     1      43.223  -8.518  12.495  1.00  0.00    -0.206 F 
HETATM   22  C   UNL     1      42.344  -9.456  10.519  1.00  0.00     0.044 A 
HETATM   23  C   UNL     1      42.405 -10.441   9.530  1.00  0.00     0.032 A 
ENDBRANCH  14  17
ENDBRANCH   9  13
BRANCH   4  24
HETATM   24  C   UNL     1      43.467 -18.291   3.771  1.00  0.00     0.060 A 
HETATM   25  C   UNL     1      44.231 -19.107   4.615  1.00  0.00     0.031 A 
HETATM   26  C   UNL     1      44.685 -20.351   4.168  1.00  0.00     0.002 A 
HETATM   27  C   UNL     1      44.389 -20.784   2.877  1.00  0.00     0.000 A 
HETATM   28  C   UNL     1      43.651 -19.969   2.021  1.00  0.00     0.002 A 
HETATM   29  C   UNL     1      43.199 -18.723   2.461  1.00  0.00     0.031 A 
ENDBRANCH   4  24
TORSDOF 3
ENDMDL
MODEL 2
REMARK VINA RESULT:      -9.0      1.863      2.642
REMARK  3 active torsions:
REMARK  status: ('A' for Active; 'I' for Inactive)
REMARK    1  A    between atoms: N_4  and  C_5 
REMARK    2  A    between atoms: C_15  and  C_16 
REMARK       I    between atoms: C_16  and  N_17 
REMARK    3  A    between atoms: N_17  and  C_18 
ROOT
HETATM    1  C   UNL     1      42.173 -15.653   0.854  1.00  0.00     0.073 C 
HETATM    2  C   UNL     1      42.736 -16.545   1.897  1.00  0.00     0.069 A 
HETATM    3  N   UNL     1      42.821 -17.865   1.689  1.00  0.00    -0.170 NA
HETATM    4  N   UNL     1      43.418 -18.376   2.810  1.00  0.00    -0.216 N 
HETATM    5  C   UNL     1      43.566 -17.380   3.763  1.00  0.00     0.145 A 
HETATM    6  C   UNL     1      43.180 -16.194   3.185  1.00  0.00     0.087 A 
HETATM    7  N   UNL     1      43.945 -17.465   5.062  1.00  0.00    -0.349 N 
HETATM    8  C   UNL     1      43.925 -16.309   5.825  1.00  0.00     0.111 A 
HETATM    9  C   UNL     1      43.608 -15.079   5.360  1.00  0.00     0.098 A 
HETATM   10  C   UNL     1      43.225 -14.942   3.911  1.00  0.00     0.205 A 
HETATM   11  O   UNL     1      42.959 -13.855   3.405  1.00  0.00    -0.286 OA
HETATM   12  H   UNL     1      43.995 -18.344   5.577  1.00  0.00     0.167 HD
ENDROOT
BRANCH   9  13
HETATM   13  C   UNL     1      43.619 -13.935   6.325  1.00  0.00     0.261 C 
HETATM   14  N   UNL     1      44.659 -13.956   7.230  1.00  0.00    -0.323 N 
HETATM   15  H   UNL     1      45.294 -14.754   7.181  1.00  0.00     0.169 HD
HETATM   16  O   UNL     1      42.740 -13.079   6.264  1.00  0.00    -0.267 OA
BRANCH  14  17
HETATM   17  C   UNL     1      44.969 -13.000   8.218  1.00  0.00     0.035 A 
HETATM   18  C   UNL     1      46.092 -12.168   8.181  1.00  0.00     0.032 A 
HETATM   19  C   UNL     1      46.333 -11.258   9.214  1.00  0.00     0.044 A 
HETATM   20  C   UNL     1      45.448 -11.176  10.281  1.00  0.00     0.116 A 
HETATM   21  F   UNL     1      45.681 -10.303  11.271  1.00  0.00    -0.206 F 
HETATM   22  C   UNL     1      44.325 -11.990  10.337  1.00  0.00     0.044 A 
HETATM   23  C   UNL     1      44.088 -12.904   9.307  1.00  0.00     0.032 A 
ENDBRANCH  14  17
ENDBRANCH   9  13
BRANCH   4  24
HETATM   24  C   UNL     1      43.793 -19.748   2.853  1.00  0.00     0.060 A 
HETATM   25  C   UNL     1      43.514 -20.625   1.797  1.00  0.00     0.031 A 
HETATM   26  C   UNL     1      43.902 -21.965   1.876  1.00  0.00     0.002 A 
HETATM   27  C   UNL     1      44.560 -22.441   3.009  1.00  0.00     0.000 A 
HETATM   28  C   UNL     1      44.820 -21.583   4.074  1.00  0.00     0.002 A 
HETATM   29  C   UNL     1      44.430 -20.244   4.003  1.00  0.00     0.031 A 
ENDBRANCH   4  24
TORSDOF 3
ENDMDL
MODEL 3
REMARK VINA RESULT:      -8.9      5.861      8.397
REMARK  3 active torsions:
REMARK  status: ('A' for Active; 'I' for Inactive)
REMARK    1  A    between atoms: N_4  and  C_5 
REMARK    2  A    between atoms: C_15  and  C_16 
REMARK       I    between atoms: C_16  and  N_17 
REMARK    3  A    between atoms: N_17  and  C_18 
ROOT
HETATM    1  C   UNL     1      41.001 -15.993   5.242  1.00  0.00     0.073 C 
HETATM    2  C   UNL     1      41.639 -16.751   4.139  1.00  0.00     0.069 A 
HETATM    3  N   UNL     1      42.329 -17.871   4.393  1.00  0.00    -0.170 NA
HETATM    4  N   UNL     1      42.738 -18.336   3.173  1.00  0.00    -0.216 N 
HETATM    5  C   UNL     1      42.417 -17.418   2.184  1.00  0.00     0.145 A 
HETATM    6  C   UNL     1      41.674 -16.421   2.771  1.00  0.00     0.087 A 
HETATM    7  N   UNL     1      42.774 -17.384   0.877  1.00  0.00    -0.349 N 
HETATM    8  C   UNL     1      42.381 -16.291   0.122  1.00  0.00     0.111 A 
HETATM    9  C   UNL     1      41.614 -15.272   0.574  1.00  0.00     0.098 A 
HETATM   10  C   UNL     1      41.162 -15.302   2.009  1.00  0.00     0.205 A 
HETATM   11  O   UNL     1      40.435 -14.434   2.484  1.00  0.00    -0.286 OA
HETATM   12  H   UNL     1      43.514 -17.962   0.480  1.00  0.00     0.167 HD
ENDROOT
BRANCH   9  13
HETATM   13  C   UNL     1      41.293 -14.156  -0.372  1.00  0.00     0.261 C 
HETATM   14  N   UNL     1      42.392 -13.562  -0.954  1.00  0.00    -0.323 N 
HETATM   15  H   UNL     1      43.309 -13.910  -0.667  1.00  0.00     0.169 HD
HETATM   16  O   UNL     1      40.122 -13.842  -0.566  1.00  0.00    -0.267 OA
BRANCH  14  17
HETATM   17  C   UNL     1      42.414 -12.533  -1.917  1.00  0.00     0.035 A 
HETATM   18  C   UNL     1      42.036 -12.700  -3.253  1.00  0.00     0.032 A 
HETATM   19  C   UNL     1      42.105 -11.627  -4.147  1.00  0.00     0.044 A 
HETATM   20  C   UNL     1      42.547 -10.388  -3.704  1.00  0.00     0.116 A 
HETATM   21  F   UNL     1      42.613  -9.362  -4.563  1.00  0.00    -0.206 F 
HETATM   22  C   UNL     1      42.925 -10.200  -2.381  1.00  0.00     0.044 A 
HETATM   23  C   UNL     1      42.861 -11.273  -1.490  1.00  0.00     0.032 A 
ENDBRANCH  14  17
ENDBRANCH   9  13
BRANCH   4  24
HETATM   24  C   UNL     1      43.378 -19.604   3.072  1.00  0.00     0.060 A 
HETATM   25  C   UNL     1      44.257 -20.068   4.059  1.00  0.00     0.031 A 
HETATM   26  C   UNL     1      44.864 -21.319   3.926  1.00  0.00     0.002 A 
HETATM   27  C   UNL     1      44.607 -22.110   2.807  1.00  0.00     0.000 A 
HETATM   28  C   UNL     1      43.754 -21.646   1.809  1.00  0.00     0.002 A 
HETATM   29  C   UNL     1      43.148 -20.394   1.934  1.00  0.00     0.031 A 
ENDBRANCH   4  24
TORSDOF 3
ENDMDL
MODEL 4
REMARK VINA RESULT:      -8.9      5.987      8.847
REMARK  3 active torsions:
REMARK  status: ('A' for Active; 'I' for Inactive)
REMARK    1  A    between atoms: N_4  and  C_5 
REMARK    2  A    between atoms: C_15  and  C_16 
REMARK       I    between atoms: C_16  and  N_17 
REMARK    3  A    between atoms: N_17  and  C_18 
ROOT
HETATM    1  C   UNL     1      40.699 -15.824   5.322  1.00  0.00     0.073 C 
HETATM    2  C   UNL     1      41.309 -16.566   4.192  1.00  0.00     0.069 A 
HETATM    3  N   UNL     1      42.136 -17.595   4.422  1.00  0.00    -0.170 NA
HETATM    4  N   UNL     1      42.476 -18.076   3.187  1.00  0.00    -0.216 N 
HETATM    5  C   UNL     1      41.967 -17.246   2.199  1.00  0.00     0.145 A 
HETATM    6  C   UNL     1      41.180 -16.303   2.816  1.00  0.00     0.087 A 
HETATM    7  N   UNL     1      42.195 -17.241   0.862  1.00  0.00    -0.349 N 
HETATM    8  C   UNL     1      41.617 -16.233   0.107  1.00  0.00     0.111 A 
HETATM    9  C   UNL     1      40.792 -15.278   0.591  1.00  0.00     0.098 A 
HETATM   10  C   UNL     1      40.483 -15.282   2.063  1.00  0.00     0.205 A 
HETATM   11  O   UNL     1      39.715 -14.470   2.573  1.00  0.00    -0.286 OA
HETATM   12  H   UNL     1      42.952 -17.759   0.418  1.00  0.00     0.167 HD
ENDROOT
BRANCH   9  13
HETATM   13  C   UNL     1      40.266 -14.249  -0.362  1.00  0.00     0.261 C 
HETATM   14  N   UNL     1      38.906 -14.310  -0.581  1.00  0.00    -0.323 N 
HETATM   15  H   UNL     1      38.398 -15.058  -0.107  1.00  0.00     0.169 HD
HETATM   16  O   UNL     1      41.039 -13.446  -0.878  1.00  0.00    -0.267 OA
BRANCH  14  17
HETATM   17  C   UNL     1      38.116 -13.453  -1.373  1.00  0.00     0.035 A 
HETATM   18  C   UNL     1      37.518 -12.280  -0.904  1.00  0.00     0.032 A 
HETATM   19  C   UNL     1      36.733 -11.496  -1.756  1.00  0.00     0.044 A 
HETATM   20  C   UNL     1      36.553 -11.884  -3.077  1.00  0.00     0.116 A 
HETATM   21  F   UNL     1      35.800 -11.131  -3.892  1.00  0.00    -0.206 F 
HETATM   22  C   UNL     1      37.140 -13.043  -3.564  1.00  0.00     0.044 A 
HETATM   23  C   UNL     1      37.919 -13.829  -2.711  1.00  0.00     0.032 A 
ENDBRANCH  14  17
ENDBRANCH   9  13
BRANCH   4  24
HETATM   24  C   UNL     1      43.236 -19.275   3.075  1.00  0.00     0.060 A 
HETATM   25  C   UNL     1      44.189 -19.638   4.034  1.00  0.00     0.031 A 
HETATM   26  C   UNL     1      44.914 -20.824   3.890  1.00  0.00     0.002 A 
HETATM   27  C   UNL     1      44.700 -21.649   2.787  1.00  0.00     0.000 A 
HETATM   28  C   UNL     1      43.771 -21.284   1.815  1.00  0.00     0.002 A 
HETATM   29  C   UNL     1      43.048 -20.097   1.951  1.00  0.00     0.031 A 
ENDBRANCH   4  24
TORSDOF 3
ENDMDL
MODEL 5
REMARK VINA RESULT:      -8.7      4.348      9.246
REMARK  3 active torsions:
REMARK  status: ('A' for Active; 'I' for Inactive)
REMARK    1  A    between atoms: N_4  and  C_5 
REMARK    2  A    between atoms: C_15  and  C_16 
REMARK       I    between atoms: C_16  and  N_17 
REMARK    3  A    between atoms: N_17  and  C_18 
ROOT
HETATM    1  C   UNL     1      41.456 -12.051   1.775  1.00  0.00     0.073 C 
HETATM    2  C   UNL     1      41.345 -12.272   3.238  1.00  0.00     0.069 A 
HETATM    3  N   UNL     1      41.282 -11.231   4.079  1.00  0.00    -0.170 NA
HETATM    4  N   UNL     1      41.139 -11.776   5.327  1.00  0.00    -0.216 N 
HETATM    5  C   UNL     1      41.259 -13.156   5.258  1.00  0.00     0.145 A 
HETATM    6  C   UNL     1      41.344 -13.497   3.929  1.00  0.00     0.087 A 
HETATM    7  N   UNL     1      41.352 -14.074   6.251  1.00  0.00    -0.349 N 
HETATM    8  C   UNL     1      41.555 -15.398   5.898  1.00  0.00     0.111 A 
HETATM    9  C   UNL     1      41.611 -15.862   4.629  1.00  0.00     0.098 A 
HETATM   10  C   UNL     1      41.466 -14.875   3.503  1.00  0.00     0.205 A 
HETATM   11  O   UNL     1      41.470 -15.222   2.324  1.00  0.00    -0.286 OA
HETATM   12  H   UNL     1      41.541 -13.833   7.224  1.00  0.00     0.167 HD
ENDROOT
BRANCH   9  13
HETATM   13  C   UNL     1      41.853 -17.325   4.422  1.00  0.00     0.261 C 
HETATM   14  N   UNL     1      42.901 -17.620   3.575  1.00  0.00    -0.323 N 
HETATM   15  H   UNL     1      43.384 -16.828   3.149  1.00  0.00     0.169 HD
HETATM   16  O   UNL     1      41.137 -18.146   4.988  1.00  0.00    -0.267 OA
BRANCH  14  17
HETATM   17  C   UNL     1      43.404 -18.890   3.228  1.00  0.00     0.035 A 
HETATM   18  C   UNL     1      43.059 -19.579   2.062  1.00  0.00     0.032 A 
HETATM   19  C   UNL     1      43.594 -20.845   1.804  1.00  0.00     0.044 A 
HETATM   20  C   UNL     1      44.477 -21.418   2.709  1.00  0.00     0.116 A 
HETATM   21  F   UNL     1      44.987 -22.631   2.460  1.00  0.00    -0.206 F 
HETATM   22  C   UNL     1      44.836 -20.749   3.872  1.00  0.00     0.044 A 
HETATM   23  C   UNL     1      44.297 -19.488   4.132  1.00  0.00     0.032 A 
ENDBRANCH  14  17
ENDBRANCH   9  13
BRANCH   4  24
HETATM   24  C   UNL     1      40.894 -10.933   6.447  1.00  0.00     0.060 A 
HETATM   25  C   UNL     1      41.865 -10.710   7.432  1.00  0.00     0.031 A 
HETATM   26  C   UNL     1      41.587  -9.873   8.516  1.00  0.00     0.002 A 
HETATM   27  C   UNL     1      40.340  -9.262   8.630  1.00  0.00     0.000 A 
HETATM   28  C   UNL     1      39.359  -9.496   7.668  1.00  0.00     0.002 A 
HETATM   29  C   UNL     1      39.629 -10.336   6.586  1.00  0.00     0.031 A 
ENDBRANCH   4  24
TORSDOF 3
ENDMDL
MODEL 6
REMARK VINA RESULT:      -8.7      7.196      9.680
REMARK  3 active torsions:
REMARK  status: ('A' for Active; 'I' for Inactive)
REMARK    1  A    between atoms: N_4  and  C_5 
REMARK    2  A    between atoms: C_15  and  C_16 
REMARK       I    between atoms: C_16  and  N_17 
REMARK    3  A    between atoms: N_17  and  C_18 
ROOT
HETATM    1  C   UNL     1      37.506 -14.033   0.731  1.00  0.00     0.073 C 
HETATM    2  C   UNL     1      38.891 -13.957   0.206  1.00  0.00     0.069 A 
HETATM    3  N   UNL     1      39.184 -13.150  -0.823  1.00  0.00    -0.170 NA
HETATM    4  N   UNL     1      40.532 -13.282  -1.021  1.00  0.00    -0.216 N 
HETATM    5  C   UNL     1      41.035 -14.282  -0.202  1.00  0.00     0.145 A 
HETATM    6  C   UNL     1      40.015 -14.693   0.622  1.00  0.00     0.087 A 
HETATM    7  N   UNL     1      42.262 -14.859  -0.185  1.00  0.00    -0.349 N 
HETATM    8  C   UNL     1      42.474 -15.911   0.692  1.00  0.00     0.111 A 
HETATM    9  C   UNL     1      41.566 -16.375   1.580  1.00  0.00     0.098 A 
HETATM   10  C   UNL     1      40.210 -15.726   1.618  1.00  0.00     0.205 A 
HETATM   11  O   UNL     1      39.343 -16.067   2.419  1.00  0.00    -0.286 OA
HETATM   12  H   UNL     1      42.945 -14.752  -0.933  1.00  0.00     0.167 HD
ENDROOT
BRANCH   9  13
HETATM   13  C   UNL     1      41.954 -17.534   2.446  1.00  0.00     0.261 C 
HETATM   14  N   UNL     1      42.877 -18.389   1.883  1.00  0.00    -0.323 N 
HETATM   15  H   UNL     1      43.181 -18.175   0.931  1.00  0.00     0.169 HD
HETATM   16  O   UNL     1      41.449 -17.658   3.559  1.00  0.00    -0.267 OA
BRANCH  14  17
HETATM   17  C   UNL     1      43.473 -19.527   2.463  1.00  0.00     0.035 A 
HETATM   18  C   UNL     1      44.142 -19.522   3.691  1.00  0.00     0.032 A 
HETATM   19  C   UNL     1      44.720 -20.695   4.186  1.00  0.00     0.044 A 
HETATM   20  C   UNL     1      44.625 -21.872   3.455  1.00  0.00     0.116 A 
HETATM   21  F   UNL     1      45.181 -22.994   3.931  1.00  0.00    -0.206 F 
HETATM   22  C   UNL     1      43.964 -21.899   2.235  1.00  0.00     0.044 A 
HETATM   23  C   UNL     1      43.391 -20.726   1.739  1.00  0.00     0.032 A 
ENDBRANCH  14  17
ENDBRANCH   9  13
BRANCH   4  24
HETATM   24  C   UNL     1      41.199 -12.442  -1.957  1.00  0.00     0.060 A 
HETATM   25  C   UNL     1      42.159 -11.505  -1.554  1.00  0.00     0.031 A 
HETATM   26  C   UNL     1      42.795 -10.699  -2.503  1.00  0.00     0.002 A 
HETATM   27  C   UNL     1      42.472 -10.816  -3.854  1.00  0.00     0.000 A 
HETATM   28  C   UNL     1      41.500 -11.728  -4.261  1.00  0.00     0.002 A 
HETATM   29  C   UNL     1      40.858 -12.532  -3.317  1.00  0.00     0.031 A 
ENDBRANCH   4  24
TORSDOF 3
ENDMDL
MODEL 7
REMARK VINA RESULT:      -8.7      4.725      6.805
REMARK  3 active torsions:
REMARK  status: ('A' for Active; 'I' for Inactive)
REMARK    1  A    between atoms: N_4  and  C_5 
REMARK    2  A    between atoms: C_15  and  C_16 
REMARK       I    between atoms: C_16  and  N_17 
REMARK    3  A    between atoms: N_17  and  C_18 
ROOT
HETATM    1  C   UNL     1      44.313 -16.064   6.852  1.00  0.00     0.073 C 
HETATM    2  C   UNL     1      43.989 -16.948   5.706  1.00  0.00     0.069 A 
HETATM    3  N   UNL     1      44.536 -18.167   5.612  1.00  0.00    -0.170 NA
HETATM    4  N   UNL     1      43.999 -18.724   4.483  1.00  0.00    -0.216 N 
HETATM    5  C   UNL     1      43.232 -17.786   3.810  1.00  0.00     0.145 A 
HETATM    6  C   UNL     1      43.173 -16.659   4.597  1.00  0.00     0.087 A 
HETATM    7  N   UNL     1      42.661 -17.844   2.582  1.00  0.00    -0.349 N 
HETATM    8  C   UNL     1      42.011 -16.715   2.110  1.00  0.00     0.111 A 
HETATM    9  C   UNL     1      41.850 -15.567   2.805  1.00  0.00     0.098 A 
HETATM   10  C   UNL     1      42.432 -15.484   4.190  1.00  0.00     0.205 A 
HETATM   11  O   UNL     1      42.297 -14.489   4.898  1.00  0.00    -0.286 OA
HETATM   12  H   UNL     1      42.892 -18.554   1.887  1.00  0.00     0.167 HD
ENDROOT
BRANCH   9  13
HETATM   13  C   UNL     1      41.135 -14.432   2.139  1.00  0.00     0.261 C 
HETATM   14  N   UNL     1      39.784 -14.367   2.409  1.00  0.00    -0.323 N 
HETATM   15  H   UNL     1      39.397 -15.104   3.000  1.00  0.00     0.169 HD
HETATM   16  O   UNL     1      41.759 -13.659   1.418  1.00  0.00    -0.267 OA
BRANCH  14  17
HETATM   17  C   UNL     1      38.860 -13.394   1.979  1.00  0.00     0.035 A 
HETATM   18  C   UNL     1      38.775 -12.103   2.510  1.00  0.00     0.032 A 
HETATM   19  C   UNL     1      37.814 -11.205   2.035  1.00  0.00     0.044 A 
HETATM   20  C   UNL     1      36.944 -11.596   1.026  1.00  0.00     0.116 A 
HETATM   21  F   UNL     1      36.024 -10.733   0.574  1.00  0.00    -0.206 F 
HETATM   22  C   UNL     1      37.013 -12.871   0.483  1.00  0.00     0.044 A 
HETATM   23  C   UNL     1      37.968 -13.770   0.962  1.00  0.00     0.032 A 
ENDBRANCH  14  17
ENDBRANCH   9  13
BRANCH   4  24
HETATM   24  C   UNL     1      44.262 -20.088   4.169  1.00  0.00     0.060 A 
HETATM   25  C   UNL     1      44.623 -21.017   5.153  1.00  0.00     0.031 A 
HETATM   26  C   UNL     1      44.870 -22.347   4.805  1.00  0.00     0.002 A 
HETATM   27  C   UNL     1      44.768 -22.757   3.477  1.00  0.00     0.000 A 
HETATM   28  C   UNL     1      44.434 -21.835   2.488  1.00  0.00     0.002 A 
HETATM   29  C   UNL     1      44.191 -20.503   2.829  1.00  0.00     0.031 A 
ENDBRANCH   4  24
TORSDOF 3
ENDMDL
MODEL 8
REMARK VINA RESULT:      -8.6      6.411      9.720
REMARK  3 active torsions:
REMARK  status: ('A' for Active; 'I' for Inactive)
REMARK    1  A    between atoms: N_4  and  C_5 
REMARK    2  A    between atoms: C_15  and  C_16 
REMARK       I    between atoms: C_16  and  N_17 
REMARK    3  A    between atoms: N_17  and  C_18 
ROOT
HETATM    1  C   UNL     1      40.720 -15.074  -2.509  1.00  0.00     0.073 C 
HETATM    2  C   UNL     1      41.190 -14.264  -1.359  1.00  0.00     0.069 A 
HETATM    3  N   UNL     1      41.390 -12.946  -1.493  1.00  0.00    -0.170 NA
HETATM    4  N   UNL     1      41.770 -12.504  -0.254  1.00  0.00    -0.216 N 
HETATM    5  C   UNL     1      41.939 -13.582   0.602  1.00  0.00     0.145 A 
HETATM    6  C   UNL     1      41.529 -14.710  -0.068  1.00  0.00     0.087 A 
HETATM    7  N   UNL     1      42.461 -13.629   1.852  1.00  0.00    -0.349 N 
HETATM    8  C   UNL     1      42.593 -14.868   2.457  1.00  0.00     0.111 A 
HETATM    9  C   UNL     1      42.188 -16.041   1.919  1.00  0.00     0.098 A 
HETATM   10  C   UNL     1      41.563 -16.019   0.551  1.00  0.00     0.205 A 
HETATM   11  O   UNL     1      41.137 -17.036   0.009  1.00  0.00    -0.286 OA
HETATM   12  H   UNL     1      42.992 -12.865   2.269  1.00  0.00     0.167 HD
ENDROOT
BRANCH   9  13
HETATM   13  C   UNL     1      42.422 -17.296   2.702  1.00  0.00     0.261 C 
HETATM   14  N   UNL     1      43.242 -18.215   2.082  1.00  0.00    -0.323 N 
HETATM   15  H   UNL     1      43.581 -17.974   1.149  1.00  0.00     0.169 HD
HETATM   16  O   UNL     1      41.893 -17.434   3.801  1.00  0.00    -0.267 OA
BRANCH  14  17
HETATM   17  C   UNL     1      43.689 -19.454   2.583  1.00  0.00     0.035 A 
HETATM   18  C   UNL     1      44.305 -19.622   3.827  1.00  0.00     0.032 A 
HETATM   19  C   UNL     1      44.734 -20.888   4.238  1.00  0.00     0.044 A 
HETATM   20  C   UNL     1      44.542 -21.984   3.408  1.00  0.00     0.116 A 
HETATM   21  F   UNL     1      44.955 -23.196   3.805  1.00  0.00    -0.206 F 
HETATM   22  C   UNL     1      43.930 -21.841   2.171  1.00  0.00     0.044 A 
HETATM   23  C   UNL     1      43.507 -20.576   1.758  1.00  0.00     0.032 A 
ENDBRANCH  14  17
ENDBRANCH   9  13
BRANCH   4  24
HETATM   24  C   UNL     1      41.921 -11.109  -0.012  1.00  0.00     0.060 A 
HETATM   25  C   UNL     1      41.011 -10.394   0.777  1.00  0.00     0.031 A 
HETATM   26  C   UNL     1      41.196  -9.025   0.994  1.00  0.00     0.002 A 
HETATM   27  C   UNL     1      42.279  -8.362   0.420  1.00  0.00     0.000 A 
HETATM   28  C   UNL     1      43.175  -9.061  -0.386  1.00  0.00     0.002 A 
HETATM   29  C   UNL     1      42.993 -10.427  -0.611  1.00  0.00     0.031 A 
ENDBRANCH   4  24
TORSDOF 3
ENDMDL
MODEL 9
REMARK VINA RESULT:      -8.6      5.940      9.574
REMARK  3 active torsions:
REMARK  status: ('A' for Active; 'I' for Inactive)
REMARK    1  A    between atoms: N_4  and  C_5 
REMARK    2  A    between atoms: C_15  and  C_16 
REMARK       I    between atoms: C_16  and  N_17 
REMARK    3  A    between atoms: N_17  and  C_18 
ROOT
HETATM    1  C   UNL     1      41.350 -11.725   3.152  1.00  0.00     0.073 C 
HETATM    2  C   UNL     1      41.460 -12.417   1.844  1.00  0.00     0.069 A 
HETATM    3  N   UNL     1      41.213 -11.758   0.704  1.00  0.00    -0.170 NA
HETATM    4  N   UNL     1      41.447 -12.660  -0.299  1.00  0.00    -0.216 N 
HETATM    5  C   UNL     1      41.699 -13.913   0.239  1.00  0.00     0.145 A 
HETATM    6  C   UNL     1      41.758 -13.771   1.605  1.00  0.00     0.087 A 
HETATM    7  N   UNL     1      41.813 -15.118  -0.372  1.00  0.00    -0.349 N 
HETATM    8  C   UNL     1      41.982 -16.239   0.424  1.00  0.00     0.111 A 
HETATM    9  C   UNL     1      42.099 -16.223   1.771  1.00  0.00     0.098 A 
HETATM   10  C   UNL     1      42.021 -14.897   2.477  1.00  0.00     0.205 A 
HETATM   11  O   UNL     1      42.154 -14.794   3.694  1.00  0.00    -0.286 OA
HETATM   12  H   UNL     1      41.531 -15.289  -1.336  1.00  0.00     0.167 HD
ENDROOT
BRANCH   9  13
HETATM   13  C   UNL     1      42.260 -17.531   2.482  1.00  0.00     0.261 C 
HETATM   14  N   UNL     1      43.326 -18.292   2.051  1.00  0.00    -0.323 N 
HETATM   15  H   UNL     1      43.876 -17.916   1.278  1.00  0.00     0.169 HD
HETATM   16  O   UNL     1      41.469 -17.843   3.368  1.00  0.00    -0.267 OA
BRANCH  14  17
HETATM   17  C   UNL     1      43.766 -19.533   2.555  1.00  0.00     0.035 A 
HETATM   18  C   UNL     1      44.403 -19.697   3.788  1.00  0.00     0.032 A 
HETATM   19  C   UNL     1      44.824 -20.964   4.204  1.00  0.00     0.044 A 
HETATM   20  C   UNL     1      44.601 -22.066   3.389  1.00  0.00     0.116 A 
HETATM   21  F   UNL     1      45.006 -23.279   3.789  1.00  0.00    -0.206 F 
HETATM   22  C   UNL     1      43.967 -21.926   2.162  1.00  0.00     0.044 A 
HETATM   23  C   UNL     1      43.553 -20.659   1.745  1.00  0.00     0.032 A 
ENDBRANCH  14  17
ENDBRANCH   9  13
BRANCH   4  24
HETATM   24  C   UNL     1      41.417 -12.236  -1.658  1.00  0.00     0.060 A 
HETATM   25  C   UNL     1      40.303 -12.458  -2.478  1.00  0.00     0.031 A 
HETATM   26  C   UNL     1      40.312 -12.024  -3.806  1.00  0.00     0.002 A 
HETATM   27  C   UNL     1      41.431 -11.377  -4.327  1.00  0.00     0.000 A 
HETATM   28  C   UNL     1      42.553 -11.174  -3.527  1.00  0.00     0.002 A 
HETATM   29  C   UNL     1      42.552 -11.610  -2.200  1.00  0.00     0.031 A 
ENDBRANCH   4  24
TORSDOF 3
ENDMDL
MODEL 10
REMARK VINA RESULT:      -8.5      6.217      9.699
REMARK  3 active torsions:
REMARK  status: ('A' for Active; 'I' for Inactive)
REMARK    1  A    between atoms: N_4  and  C_5 
REMARK    2  A    between atoms: C_15  and  C_16 
REMARK       I    between atoms: C_16  and  N_17 
REMARK    3  A    between atoms: N_17  and  C_18 
ROOT
HETATM    1  C   UNL     1      40.074 -12.562   3.133  1.00  0.00     0.073 C 
HETATM    2  C   UNL     1      39.979 -13.226   1.810  1.00  0.00     0.069 A 
HETATM    3  N   UNL     1      39.040 -12.855   0.929  1.00  0.00    -0.170 NA
HETATM    4  N   UNL     1      39.258 -13.621  -0.184  1.00  0.00    -0.216 N 
HETATM    5  C   UNL     1      40.243 -14.562   0.073  1.00  0.00     0.145 A 
HETATM    6  C   UNL     1      40.750 -14.298   1.324  1.00  0.00     0.087 A 
HETATM    7  N   UNL     1      40.655 -15.619  -0.669  1.00  0.00    -0.349 N 
HETATM    8  C   UNL     1      41.613 -16.462  -0.129  1.00  0.00     0.111 A 
HETATM    9  C   UNL     1      42.216 -16.283   1.068  1.00  0.00     0.098 A 
HETATM   10  C   UNL     1      41.814 -15.094   1.898  1.00  0.00     0.205 A 
HETATM   11  O   UNL     1      42.340 -14.843   2.979  1.00  0.00    -0.286 OA
HETATM   12  H   UNL     1      40.138 -15.980  -1.470  1.00  0.00     0.167 HD
ENDROOT
BRANCH   9  13
HETATM   13  C   UNL     1      43.221 -17.301   1.512  1.00  0.00     0.261 C 
HETATM   14  N   UNL     1      42.678 -18.440   2.068  1.00  0.00    -0.323 N 
HETATM   15  H   UNL     1      41.660 -18.469   2.154  1.00  0.00     0.169 HD
HETATM   16  O   UNL     1      44.419 -17.075   1.369  1.00  0.00    -0.267 OA
BRANCH  14  17
HETATM   17  C   UNL     1      43.353 -19.589   2.525  1.00  0.00     0.035 A 
HETATM   18  C   UNL     1      43.473 -20.773   1.792  1.00  0.00     0.032 A 
HETATM   19  C   UNL     1      44.147 -21.874   2.330  1.00  0.00     0.044 A 
HETATM   20  C   UNL     1      44.706 -21.787   3.598  1.00  0.00     0.116 A 
HETATM   21  F   UNL     1      45.351 -22.843   4.112  1.00  0.00    -0.206 F 
HETATM   22  C   UNL     1      44.601 -20.620   4.342  1.00  0.00     0.044 A 
HETATM   23  C   UNL     1      43.923 -19.523   3.807  1.00  0.00     0.032 A 
ENDBRANCH  14  17
ENDBRANCH   9  13
BRANCH   4  24
HETATM   24  C   UNL     1      38.517 -13.373  -1.375  1.00  0.00     0.060 A 
HETATM   25  C   UNL     1      38.275 -14.379  -2.318  1.00  0.00     0.031 A 
HETATM   26  C   UNL     1      37.541 -14.096  -3.473  1.00  0.00     0.002 A 
HETATM   27  C   UNL     1      37.053 -12.811  -3.699  1.00  0.00     0.000 A 
HETATM   28  C   UNL     1      37.310 -11.798  -2.778  1.00  0.00     0.002 A 
HETATM   29  C   UNL     1      38.047 -12.073  -1.625  1.00  0.00     0.031 A 
ENDBRANCH   4  24
TORSDOF 3
ENDMDL
