MODEL 1
REMARK VINA RESULT:      -8.2      0.000      0.000
REMARK  10 active torsions:
REMARK  status: ('A' for Active; 'I' for Inactive)
REMARK    1  A    between atoms: O_2  and  C_3 
REMARK    2  A    between atoms: C_4  and  O_5 
REMARK    3  A    between atoms: O_5  and  C_6 
REMARK    4  A    between atoms: C_6  and  C_7 
REMARK    5  A    between atoms: C_16  and  C_17 
REMARK       I    between atoms: C_17  and  N_18 
REMARK    6  A    between atoms: N_18  and  C_19 
REMARK    7  A    between atoms: C_19  and  N_20 
REMARK    8  A    between atoms: N_20  and  C_21 
REMARK    9  A    between atoms: C_24  and  C_25 
REMARK   10  A    between atoms: C_25  and  N_26 
ROOT
HETATM    1  C   UNL     1      40.026 -11.943   6.366  1.00  0.00     0.257 C 
HETATM    2  N   UNL     1      40.598 -10.697   6.126  1.00  0.00    -0.299 N 
HETATM    3  O   UNL     1      38.995 -12.131   6.996  1.00  0.00    -0.267 OA
HETATM    4  H   UNL     1      41.588 -10.710   5.938  1.00  0.00     0.171 HD
ENDROOT
BRANCH   2   5
HETATM    5  C   UNL     1      39.990  -9.593   5.567  1.00  0.00     0.179 C 
HETATM    6  S   UNL     1      39.059  -8.459   6.362  1.00  0.00    -0.040 SA
BRANCH   5   7
HETATM    7  N   UNL     1      40.060  -9.507   4.196  1.00  0.00    -0.333 N 
HETATM    8  H   UNL     1      40.536  -8.664   3.880  1.00  0.00     0.168 HD
BRANCH   7   9
HETATM    9  C   UNL     1      39.707 -10.435   3.197  1.00  0.00     0.034 A 
HETATM   10  C   UNL     1      40.704 -10.846   2.310  1.00  0.00     0.030 A 
HETATM   11  C   UNL     1      40.438 -11.795   1.311  1.00  0.00     0.011 A 
HETATM   12  C   UNL     1      39.172 -12.384   1.202  1.00  0.00    -0.032 A 
HETATM   13  C   UNL     1      38.183 -11.980   2.118  1.00  0.00     0.011 A 
HETATM   14  C   UNL     1      38.444 -11.015   3.100  1.00  0.00     0.030 A 
BRANCH  12  15
HETATM   15  C   UNL     1      38.790 -13.441   0.189  1.00  0.00     0.273 C 
BRANCH  15  16
HETATM   16  N   UNL     1      39.502 -14.777   0.270  1.00  0.00    -0.067 N 
HETATM   17  H   UNL     1      38.867 -15.471  -0.142  1.00  0.00     0.280 HD
HETATM   18  C   UNL     1      40.807 -14.785  -0.498  1.00  0.00     0.235 C 
HETATM   19  C   UNL     1      41.385 -16.194  -0.488  1.00  0.00     0.028 C 
HETATM   20  C   UNL     1      41.587 -16.706   0.934  1.00  0.00     0.003 C 
HETATM   21  C   UNL     1      40.302 -16.604   1.746  1.00  0.00     0.028 C 
HETATM   22  C   UNL     1      39.717 -15.199   1.709  1.00  0.00     0.235 C 
ENDBRANCH  15  16
ENDBRANCH  12  15
ENDBRANCH   7   9
ENDBRANCH   5   7
ENDBRANCH   2   5
BRANCH   1  23
HETATM   23  C   UNL     1      40.898 -13.089   5.991  1.00  0.00     0.035 A 
HETATM   24  C   UNL     1      40.330 -14.320   5.630  1.00  0.00     0.020 A 
HETATM   25  C   UNL     1      41.147 -15.352   5.171  1.00  0.00     0.040 A 
HETATM   26  C   UNL     1      42.527 -15.168   5.093  1.00  0.00     0.102 A 
HETATM   27  C   UNL     1      43.094 -13.948   5.477  1.00  0.00     0.102 A 
HETATM   28  C   UNL     1      42.284 -12.916   5.958  1.00  0.00     0.056 A 
BRANCH  26  29
HETATM   29  O   UNL     1      43.230 -16.177   4.502  1.00  0.00    -0.344 OA
BRANCH  29  30
HETATM   30  C   UNL     1      43.585 -17.231   5.401  1.00  0.00     0.214 C 
BRANCH  30  31
HETATM   31  C   UNL     1      43.792 -18.450   4.532  1.00  0.00    -0.034 A 
HETATM   32  C   UNL     1      44.721 -19.432   4.914  1.00  0.00     0.011 A 
HETATM   33  C   UNL     1      44.987 -20.519   4.079  1.00  0.00     0.024 A 
HETATM   34  C   UNL     1      44.328 -20.629   2.857  1.00  0.00     0.034 A 
HETATM   35 CL   UNL     1      44.677 -21.953   1.815  1.00  0.00    -0.084 Cl
HETATM   36  C   UNL     1      43.401 -19.666   2.467  1.00  0.00     0.024 A 
HETATM   37  C   UNL     1      43.134 -18.576   3.300  1.00  0.00     0.011 A 
ENDBRANCH  30  31
ENDBRANCH  29  30
ENDBRANCH  26  29
BRANCH  27  38
HETATM   38  O   UNL     1      44.443 -13.726   5.419  1.00  0.00    -0.353 OA
HETATM   39  C   UNL     1      45.046 -13.968   6.690  1.00  0.00     0.210 C 
ENDBRANCH  27  38
ENDBRANCH   1  23
TORSDOF 10
ENDMDL
MODEL 2
REMARK VINA RESULT:      -8.2      1.538      2.265
REMARK  10 active torsions:
REMARK  status: ('A' for Active; 'I' for Inactive)
REMARK    1  A    between atoms: O_2  and  C_3 
REMARK    2  A    between atoms: C_4  and  O_5 
REMARK    3  A    between atoms: O_5  and  C_6 
REMARK    4  A    between atoms: C_6  and  C_7 
REMARK    5  A    between atoms: C_16  and  C_17 
REMARK       I    between atoms: C_17  and  N_18 
REMARK    6  A    between atoms: N_18  and  C_19 
REMARK    7  A    between atoms: C_19  and  N_20 
REMARK    8  A    between atoms: N_20  and  C_21 
REMARK    9  A    between atoms: C_24  and  C_25 
REMARK   10  A    between atoms: C_25  and  N_26 
ROOT
HETATM    1  C   UNL     1      39.766 -12.262   5.903  1.00  0.00     0.257 C 
HETATM    2  N   UNL     1      39.991 -11.117   5.145  1.00  0.00    -0.299 N 
HETATM    3  O   UNL     1      38.974 -12.343   6.832  1.00  0.00    -0.267 OA
HETATM    4  H   UNL     1      40.890 -11.074   4.690  1.00  0.00     0.171 HD
ENDROOT
BRANCH   2   5
HETATM    5  C   UNL     1      39.051 -10.357   4.481  1.00  0.00     0.179 C 
HETATM    6  S   UNL     1      38.498  -8.846   4.924  1.00  0.00    -0.040 SA
BRANCH   5   7
HETATM    7  N   UNL     1      38.423 -10.978   3.426  1.00  0.00    -0.333 N 
HETATM    8  H   UNL     1      37.445 -10.710   3.340  1.00  0.00     0.168 HD
BRANCH   7   9
HETATM    9  C   UNL     1      38.939 -11.795   2.401  1.00  0.00     0.034 A 
HETATM   10  C   UNL     1      39.750 -11.193   1.436  1.00  0.00     0.030 A 
HETATM   11  C   UNL     1      40.328 -11.948   0.405  1.00  0.00     0.011 A 
HETATM   12  C   UNL     1      40.139 -13.334   0.338  1.00  0.00    -0.032 A 
HETATM   13  C   UNL     1      39.341 -13.932   1.331  1.00  0.00     0.011 A 
HETATM   14  C   UNL     1      38.744 -13.173   2.346  1.00  0.00     0.030 A 
BRANCH  12  15
HETATM   15  C   UNL     1      40.745 -14.245  -0.707  1.00  0.00     0.273 C 
BRANCH  15  16
HETATM   16  N   UNL     1      39.797 -14.928  -1.673  1.00  0.00    -0.067 N 
HETATM   17  H   UNL     1      39.320 -15.666  -1.141  1.00  0.00     0.280 HD
HETATM   18  C   UNL     1      38.762 -13.978  -2.238  1.00  0.00     0.235 C 
HETATM   19  C   UNL     1      37.767 -14.765  -3.080  1.00  0.00     0.028 C 
HETATM   20  C   UNL     1      38.464 -15.536  -4.196  1.00  0.00     0.003 C 
HETATM   21  C   UNL     1      39.579 -16.417  -3.646  1.00  0.00     0.028 C 
HETATM   22  C   UNL     1      40.554 -15.627  -2.784  1.00  0.00     0.235 C 
ENDBRANCH  15  16
ENDBRANCH  12  15
ENDBRANCH   7   9
ENDBRANCH   5   7
ENDBRANCH   2   5
BRANCH   1  23
HETATM   23  C   UNL     1      40.748 -13.352   5.655  1.00  0.00     0.035 A 
HETATM   24  C   UNL     1      40.304 -14.639   5.316  1.00  0.00     0.020 A 
HETATM   25  C   UNL     1      41.229 -15.624   4.974  1.00  0.00     0.040 A 
HETATM   26  C   UNL     1      42.594 -15.336   4.991  1.00  0.00     0.102 A 
HETATM   27  C   UNL     1      43.035 -14.060   5.354  1.00  0.00     0.102 A 
HETATM   28  C   UNL     1      42.116 -13.074   5.718  1.00  0.00     0.056 A 
BRANCH  26  29
HETATM   29  O   UNL     1      43.414 -16.313   4.507  1.00  0.00    -0.344 OA
BRANCH  29  30
HETATM   30  C   UNL     1      43.351 -17.534   5.249  1.00  0.00     0.214 C 
BRANCH  30  31
HETATM   31  C   UNL     1      43.665 -18.627   4.255  1.00  0.00    -0.034 A 
HETATM   32  C   UNL     1      43.008 -18.656   3.015  1.00  0.00     0.011 A 
HETATM   33  C   UNL     1      43.223 -19.709   2.122  1.00  0.00     0.024 A 
HETATM   34  C   UNL     1      44.095 -20.738   2.466  1.00  0.00     0.034 A 
HETATM   35 CL   UNL     1      44.338 -22.050   1.379  1.00  0.00    -0.084 Cl
HETATM   36  C   UNL     1      44.759 -20.721   3.690  1.00  0.00     0.024 A 
HETATM   37  C   UNL     1      44.543 -19.670   4.586  1.00  0.00     0.011 A 
ENDBRANCH  30  31
ENDBRANCH  29  30
ENDBRANCH  26  29
BRANCH  27  38
HETATM   38  O   UNL     1      44.364 -13.736   5.386  1.00  0.00    -0.353 OA
HETATM   39  C   UNL     1      44.924 -14.041   6.664  1.00  0.00     0.210 C 
ENDBRANCH  27  38
ENDBRANCH   1  23
TORSDOF 10
ENDMDL
MODEL 3
REMARK VINA RESULT:      -8.1      2.494      3.534
REMARK  10 active torsions:
REMARK  status: ('A' for Active; 'I' for Inactive)
REMARK    1  A    between atoms: O_2  and  C_3 
REMARK    2  A    between atoms: C_4  and  O_5 
REMARK    3  A    between atoms: O_5  and  C_6 
REMARK    4  A    between atoms: C_6  and  C_7 
REMARK    5  A    between atoms: C_16  and  C_17 
REMARK       I    between atoms: C_17  and  N_18 
REMARK    6  A    between atoms: N_18  and  C_19 
REMARK    7  A    between atoms: C_19  and  N_20 
REMARK    8  A    between atoms: N_20  and  C_21 
REMARK    9  A    between atoms: C_24  and  C_25 
REMARK   10  A    between atoms: C_25  and  N_26 
ROOT
HETATM    1  C   UNL     1      40.491 -14.392   4.011  1.00  0.00     0.257 C 
HETATM    2  N   UNL     1      40.923 -13.097   4.279  1.00  0.00    -0.299 N 
HETATM    3  O   UNL     1      39.510 -14.679   3.340  1.00  0.00    -0.267 OA
HETATM    4  H   UNL     1      41.483 -12.995   5.111  1.00  0.00     0.171 HD
ENDROOT
BRANCH   2   5
HETATM    5  C   UNL     1      41.190 -12.100   3.364  1.00  0.00     0.179 C 
HETATM    6  S   UNL     1      40.341 -10.677   3.166  1.00  0.00    -0.040 SA
BRANCH   5   7
HETATM    7  N   UNL     1      42.174 -12.384   2.446  1.00  0.00    -0.333 N 
HETATM    8  H   UNL     1      43.095 -12.466   2.872  1.00  0.00     0.168 HD
BRANCH   7   9
HETATM    9  C   UNL     1      42.090 -12.699   1.076  1.00  0.00     0.034 A 
HETATM   10  C   UNL     1      41.761 -14.012   0.731  1.00  0.00     0.030 A 
HETATM   11  C   UNL     1      41.624 -14.395  -0.611  1.00  0.00     0.011 A 
HETATM   12  C   UNL     1      41.776 -13.458  -1.643  1.00  0.00    -0.032 A 
HETATM   13  C   UNL     1      42.082 -12.134  -1.280  1.00  0.00     0.011 A 
HETATM   14  C   UNL     1      42.242 -11.759   0.060  1.00  0.00     0.030 A 
BRANCH  12  15
HETATM   15  C   UNL     1      41.614 -13.755  -3.117  1.00  0.00     0.273 C 
BRANCH  15  16
HETATM   16  N   UNL     1      40.230 -14.143  -3.604  1.00  0.00    -0.067 N 
HETATM   17  H   UNL     1      40.172 -13.843  -4.585  1.00  0.00     0.280 HD
HETATM   18  C   UNL     1      39.987 -15.635  -3.528  1.00  0.00     0.235 C 
HETATM   19  C   UNL     1      38.642 -15.956  -4.164  1.00  0.00     0.028 C 
HETATM   20  C   UNL     1      37.508 -15.186  -3.497  1.00  0.00     0.003 C 
HETATM   21  C   UNL     1      37.795 -13.689  -3.476  1.00  0.00     0.028 C 
HETATM   22  C   UNL     1      39.152 -13.380  -2.862  1.00  0.00     0.235 C 
ENDBRANCH  15  16
ENDBRANCH  12  15
ENDBRANCH   7   9
ENDBRANCH   5   7
ENDBRANCH   2   5
BRANCH   1  23
HETATM   23  C   UNL     1      41.187 -15.437   4.810  1.00  0.00     0.035 A 
HETATM   24  C   UNL     1      40.918 -16.795   4.584  1.00  0.00     0.020 A 
HETATM   25  C   UNL     1      41.656 -17.769   5.255  1.00  0.00     0.040 A 
HETATM   26  C   UNL     1      42.644 -17.392   6.165  1.00  0.00     0.102 A 
HETATM   27  C   UNL     1      42.893 -16.038   6.408  1.00  0.00     0.102 A 
HETATM   28  C   UNL     1      42.144 -15.056   5.755  1.00  0.00     0.056 A 
BRANCH  26  29
HETATM   29  O   UNL     1      43.409 -18.406   6.666  1.00  0.00    -0.344 OA
BRANCH  29  30
HETATM   30  C   UNL     1      44.736 -18.436   6.135  1.00  0.00     0.214 C 
BRANCH  30  31
HETATM   31  C   UNL     1      44.671 -19.358   4.939  1.00  0.00    -0.034 A 
HETATM   32  C   UNL     1      44.423 -18.830   3.662  1.00  0.00     0.011 A 
HETATM   33  C   UNL     1      44.272 -19.677   2.562  1.00  0.00     0.024 A 
HETATM   34  C   UNL     1      44.368 -21.056   2.734  1.00  0.00     0.034 A 
HETATM   35 CL   UNL     1      44.154 -22.101   1.384  1.00  0.00    -0.084 Cl
HETATM   36  C   UNL     1      44.619 -21.594   3.993  1.00  0.00     0.024 A 
HETATM   37  C   UNL     1      44.768 -20.748   5.096  1.00  0.00     0.011 A 
ENDBRANCH  30  31
ENDBRANCH  29  30
ENDBRANCH  26  29
BRANCH  27  38
HETATM   38  O   UNL     1      43.851 -15.625   7.293  1.00  0.00    -0.353 OA
HETATM   39  C   UNL     1      44.497 -14.443   6.819  1.00  0.00     0.210 C 
ENDBRANCH  27  38
ENDBRANCH   1  23
TORSDOF 10
ENDMDL
MODEL 4
REMARK VINA RESULT:      -8.1      4.020      7.858
REMARK  10 active torsions:
REMARK  status: ('A' for Active; 'I' for Inactive)
REMARK    1  A    between atoms: O_2  and  C_3 
REMARK    2  A    between atoms: C_4  and  O_5 
REMARK    3  A    between atoms: O_5  and  C_6 
REMARK    4  A    between atoms: C_6  and  C_7 
REMARK    5  A    between atoms: C_16  and  C_17 
REMARK       I    between atoms: C_17  and  N_18 
REMARK    6  A    between atoms: N_18  and  C_19 
REMARK    7  A    between atoms: C_19  and  N_20 
REMARK    8  A    between atoms: N_20  and  C_21 
REMARK    9  A    between atoms: C_24  and  C_25 
REMARK   10  A    between atoms: C_25  and  N_26 
ROOT
HETATM    1  C   UNL     1      39.256 -13.639   1.281  1.00  0.00     0.257 C 
HETATM    2  N   UNL     1      40.453 -13.896   0.619  1.00  0.00    -0.299 N 
HETATM    3  O   UNL     1      38.168 -13.513   0.738  1.00  0.00    -0.267 OA
HETATM    4  H   UNL     1      41.285 -13.611   1.112  1.00  0.00     0.171 HD
ENDROOT
BRANCH   2   5
HETATM    5  C   UNL     1      40.715 -14.921  -0.265  1.00  0.00     0.179 C 
HETATM    6  S   UNL     1      40.894 -14.789  -1.919  1.00  0.00    -0.040 SA
BRANCH   5   7
HETATM    7  N   UNL     1      40.692 -16.188   0.271  1.00  0.00    -0.333 N 
HETATM    8  H   UNL     1      40.006 -16.791  -0.178  1.00  0.00     0.168 HD
BRANCH   7   9
HETATM    9  C   UNL     1      41.533 -16.800   1.221  1.00  0.00     0.034 A 
HETATM   10  C   UNL     1      42.903 -16.829   0.953  1.00  0.00     0.030 A 
HETATM   11  C   UNL     1      43.808 -17.389   1.867  1.00  0.00     0.011 A 
HETATM   12  C   UNL     1      43.363 -17.900   3.093  1.00  0.00    -0.032 A 
HETATM   13  C   UNL     1      41.983 -17.841   3.363  1.00  0.00     0.011 A 
HETATM   14  C   UNL     1      41.079 -17.303   2.438  1.00  0.00     0.030 A 
BRANCH  12  15
HETATM   15  C   UNL     1      44.255 -18.491   4.163  1.00  0.00     0.273 C 
BRANCH  15  16
HETATM   16  N   UNL     1      44.719 -19.922   3.975  1.00  0.00    -0.067 N 
HETATM   17  H   UNL     1      45.714 -19.875   3.724  1.00  0.00     0.280 HD
HETATM   18  C   UNL     1      44.566 -20.751   5.233  1.00  0.00     0.235 C 
HETATM   19  C   UNL     1      45.183 -22.124   5.006  1.00  0.00     0.028 C 
HETATM   20  C   UNL     1      44.555 -22.830   3.810  1.00  0.00     0.003 C 
HETATM   21  C   UNL     1      44.612 -21.958   2.562  1.00  0.00     0.028 C 
HETATM   22  C   UNL     1      44.016 -20.579   2.805  1.00  0.00     0.235 C 
ENDBRANCH  15  16
ENDBRANCH  12  15
ENDBRANCH   7   9
ENDBRANCH   5   7
ENDBRANCH   2   5
BRANCH   1  23
HETATM   23  C   UNL     1      39.426 -13.287   2.718  1.00  0.00     0.035 A 
HETATM   24  C   UNL     1      39.040 -12.022   3.185  1.00  0.00     0.020 A 
HETATM   25  C   UNL     1      39.095 -11.740   4.549  1.00  0.00     0.040 A 
HETATM   26  C   UNL     1      39.555 -12.707   5.443  1.00  0.00     0.102 A 
HETATM   27  C   UNL     1      39.963 -13.959   4.972  1.00  0.00     0.102 A 
HETATM   28  C   UNL     1      39.930 -14.242   3.605  1.00  0.00     0.056 A 
BRANCH  26  29
HETATM   29  O   UNL     1      39.441 -12.396   6.767  1.00  0.00    -0.344 OA
BRANCH  29  30
HETATM   30  C   UNL     1      39.512 -10.992   7.033  1.00  0.00     0.214 C 
BRANCH  30  31
HETATM   31  C   UNL     1      40.472 -10.850   8.191  1.00  0.00    -0.034 A 
HETATM   32  C   UNL     1      41.852 -10.754   7.949  1.00  0.00     0.011 A 
HETATM   33  C   UNL     1      42.758 -10.711   9.012  1.00  0.00     0.024 A 
HETATM   34  C   UNL     1      42.288 -10.764  10.321  1.00  0.00     0.034 A 
HETATM   35 CL   UNL     1      43.404 -10.740  11.630  1.00  0.00    -0.084 Cl
HETATM   36  C   UNL     1      40.922 -10.854  10.578  1.00  0.00     0.024 A 
HETATM   37  C   UNL     1      40.014 -10.900   9.516  1.00  0.00     0.011 A 
ENDBRANCH  30  31
ENDBRANCH  29  30
ENDBRANCH  26  29
BRANCH  27  38
HETATM   38  O   UNL     1      40.422 -14.935   5.814  1.00  0.00    -0.353 OA
HETATM   39  C   UNL     1      41.845 -15.032   5.740  1.00  0.00     0.210 C 
ENDBRANCH  27  38
ENDBRANCH   1  23
TORSDOF 10
ENDMDL
MODEL 5
REMARK VINA RESULT:      -7.9      3.674      7.518
REMARK  10 active torsions:
REMARK  status: ('A' for Active; 'I' for Inactive)
REMARK    1  A    between atoms: O_2  and  C_3 
REMARK    2  A    between atoms: C_4  and  O_5 
REMARK    3  A    between atoms: O_5  and  C_6 
REMARK    4  A    between atoms: C_6  and  C_7 
REMARK    5  A    between atoms: C_16  and  C_17 
REMARK       I    between atoms: C_17  and  N_18 
REMARK    6  A    between atoms: N_18  and  C_19 
REMARK    7  A    between atoms: C_19  and  N_20 
REMARK    8  A    between atoms: N_20  and  C_21 
REMARK    9  A    between atoms: C_24  and  C_25 
REMARK   10  A    between atoms: C_25  and  N_26 
ROOT
HETATM    1  C   UNL     1      41.388 -13.038   3.655  1.00  0.00     0.257 C 
HETATM    2  N   UNL     1      40.151 -13.098   4.290  1.00  0.00    -0.299 N 
HETATM    3  O   UNL     1      42.389 -12.514   4.121  1.00  0.00    -0.267 OA
HETATM    4  H   UNL     1      39.359 -13.209   3.675  1.00  0.00     0.171 HD
ENDROOT
BRANCH   2   5
HETATM    5  C   UNL     1      39.883 -13.582   5.553  1.00  0.00     0.179 C 
HETATM    6  S   UNL     1      39.656 -12.680   6.938  1.00  0.00    -0.040 SA
BRANCH   5   7
HETATM    7  N   UNL     1      39.944 -14.950   5.690  1.00  0.00    -0.333 N 
HETATM    8  H   UNL     1      39.027 -15.371   5.826  1.00  0.00     0.168 HD
BRANCH   7   9
HETATM    9  C   UNL     1      41.025 -15.841   5.545  1.00  0.00     0.034 A 
HETATM   10  C   UNL     1      40.768 -17.085   4.966  1.00  0.00     0.030 A 
HETATM   11  C   UNL     1      41.799 -18.013   4.756  1.00  0.00     0.011 A 
HETATM   12  C   UNL     1      43.124 -17.699   5.086  1.00  0.00    -0.032 A 
HETATM   13  C   UNL     1      43.374 -16.431   5.645  1.00  0.00     0.011 A 
HETATM   14  C   UNL     1      42.338 -15.516   5.877  1.00  0.00     0.030 A 
BRANCH  12  15
HETATM   15  C   UNL     1      44.313 -18.608   4.868  1.00  0.00     0.273 C 
BRANCH  15  16
HETATM   16  N   UNL     1      44.078 -19.895   4.101  1.00  0.00    -0.067 N 
HETATM   17  H   UNL     1      43.119 -20.192   4.319  1.00  0.00     0.280 HD
HETATM   18  C   UNL     1      44.210 -19.709   2.604  1.00  0.00     0.235 C 
HETATM   19  C   UNL     1      43.819 -21.003   1.903  1.00  0.00     0.028 C 
HETATM   20  C   UNL     1      44.665 -22.178   2.382  1.00  0.00     0.003 C 
HETATM   21  C   UNL     1      44.620 -22.307   3.900  1.00  0.00     0.028 C 
HETATM   22  C   UNL     1      44.987 -21.002   4.592  1.00  0.00     0.235 C 
ENDBRANCH  15  16
ENDBRANCH  12  15
ENDBRANCH   7   9
ENDBRANCH   5   7
ENDBRANCH   2   5
BRANCH   1  23
HETATM   23  C   UNL     1      41.356 -13.464   2.229  1.00  0.00     0.035 A 
HETATM   24  C   UNL     1      41.576 -12.529   1.208  1.00  0.00     0.020 A 
HETATM   25  C   UNL     1      41.657 -12.955  -0.117  1.00  0.00     0.040 A 
HETATM   26  C   UNL     1      41.497 -14.306  -0.427  1.00  0.00     0.102 A 
HETATM   27  C   UNL     1      41.252 -15.233   0.591  1.00  0.00     0.102 A 
HETATM   28  C   UNL     1      41.148 -14.811   1.918  1.00  0.00     0.056 A 
BRANCH  26  29
HETATM   29  O   UNL     1      41.732 -14.650  -1.726  1.00  0.00    -0.344 OA
BRANCH  29  30
HETATM   30  C   UNL     1      41.488 -13.589  -2.653  1.00  0.00     0.214 C 
BRANCH  30  31
HETATM   31  C   UNL     1      40.088 -13.822  -3.172  1.00  0.00    -0.034 A 
HETATM   32  C   UNL     1      39.163 -12.766  -3.189  1.00  0.00     0.011 A 
HETATM   33  C   UNL     1      37.841 -12.986  -3.583  1.00  0.00     0.024 A 
HETATM   34  C   UNL     1      37.438 -14.265  -3.961  1.00  0.00     0.034 A 
HETATM   35 CL   UNL     1      35.803 -14.543  -4.420  1.00  0.00    -0.084 Cl
HETATM   36  C   UNL     1      38.345 -15.321  -3.955  1.00  0.00     0.024 A 
HETATM   37  C   UNL     1      39.668 -15.103  -3.559  1.00  0.00     0.011 A 
ENDBRANCH  30  31
ENDBRANCH  29  30
ENDBRANCH  26  29
BRANCH  27  38
HETATM   38  O   UNL     1      41.087 -16.566   0.331  1.00  0.00    -0.353 OA
HETATM   39  C   UNL     1      42.097 -17.334   0.988  1.00  0.00     0.210 C 
ENDBRANCH  27  38
ENDBRANCH   1  23
TORSDOF 10
ENDMDL
MODEL 6
REMARK VINA RESULT:      -7.8      4.237      7.843
REMARK  10 active torsions:
REMARK  status: ('A' for Active; 'I' for Inactive)
REMARK    1  A    between atoms: O_2  and  C_3 
REMARK    2  A    between atoms: C_4  and  O_5 
REMARK    3  A    between atoms: O_5  and  C_6 
REMARK    4  A    between atoms: C_6  and  C_7 
REMARK    5  A    between atoms: C_16  and  C_17 
REMARK       I    between atoms: C_17  and  N_18 
REMARK    6  A    between atoms: N_18  and  C_19 
REMARK    7  A    between atoms: C_19  and  N_20 
REMARK    8  A    between atoms: N_20  and  C_21 
REMARK    9  A    between atoms: C_24  and  C_25 
REMARK   10  A    between atoms: C_25  and  N_26 
ROOT
HETATM    1  C   UNL     1      39.532 -13.674   1.557  1.00  0.00     0.257 C 
HETATM    2  N   UNL     1      40.396 -13.630   0.467  1.00  0.00    -0.299 N 
HETATM    3  O   UNL     1      38.342 -13.948   1.497  1.00  0.00    -0.267 OA
HETATM    4  H   UNL     1      41.212 -13.051   0.590  1.00  0.00     0.171 HD
ENDROOT
BRANCH   2   5
HETATM    5  C   UNL     1      40.615 -14.622  -0.465  1.00  0.00     0.179 C 
HETATM    6  S   UNL     1      40.736 -14.427  -2.118  1.00  0.00    -0.040 SA
BRANCH   5   7
HETATM    7  N   UNL     1      40.599 -15.909   0.021  1.00  0.00    -0.333 N 
HETATM    8  H   UNL     1      39.907 -16.494  -0.441  1.00  0.00     0.168 HD
BRANCH   7   9
HETATM    9  C   UNL     1      41.452 -16.556   0.936  1.00  0.00     0.034 A 
HETATM   10  C   UNL     1      40.895 -17.011   2.134  1.00  0.00     0.030 A 
HETATM   11  C   UNL     1      41.673 -17.696   3.079  1.00  0.00     0.011 A 
HETATM   12  C   UNL     1      43.022 -17.977   2.829  1.00  0.00    -0.032 A 
HETATM   13  C   UNL     1      43.565 -17.536   1.608  1.00  0.00     0.011 A 
HETATM   14  C   UNL     1      42.792 -16.831   0.675  1.00  0.00     0.030 A 
BRANCH  12  15
HETATM   15  C   UNL     1      43.939 -18.739   3.761  1.00  0.00     0.273 C 
BRANCH  15  16
HETATM   16  N   UNL     1      43.631 -18.682   5.245  1.00  0.00    -0.067 N 
HETATM   17  H   UNL     1      42.607 -18.693   5.330  1.00  0.00     0.280 HD
HETATM   18  C   UNL     1      44.202 -19.864   6.000  1.00  0.00     0.235 C 
HETATM   19  C   UNL     1      43.730 -19.809   7.446  1.00  0.00     0.028 C 
HETATM   20  C   UNL     1      44.123 -18.496   8.114  1.00  0.00     0.003 C 
HETATM   21  C   UNL     1      43.640 -17.299   7.304  1.00  0.00     0.028 C 
HETATM   22  C   UNL     1      44.095 -17.375   5.853  1.00  0.00     0.235 C 
ENDBRANCH  15  16
ENDBRANCH  12  15
ENDBRANCH   7   9
ENDBRANCH   5   7
ENDBRANCH   2   5
BRANCH   1  23
HETATM   23  C   UNL     1      40.116 -13.124   2.811  1.00  0.00     0.035 A 
HETATM   24  C   UNL     1      39.334 -12.333   3.666  1.00  0.00     0.020 A 
HETATM   25  C   UNL     1      39.852 -11.917   4.892  1.00  0.00     0.040 A 
HETATM   26  C   UNL     1      41.152 -12.268   5.256  1.00  0.00     0.102 A 
HETATM   27  C   UNL     1      41.938 -13.036   4.390  1.00  0.00     0.102 A 
HETATM   28  C   UNL     1      41.434 -13.438   3.152  1.00  0.00     0.056 A 
BRANCH  26  29
HETATM   29  O   UNL     1      41.523 -11.940   6.527  1.00  0.00    -0.344 OA
BRANCH  29  30
HETATM   30  C   UNL     1      41.255 -10.577   6.868  1.00  0.00     0.214 C 
BRANCH  30  31
HETATM   31  C   UNL     1      41.901 -10.364   8.217  1.00  0.00    -0.034 A 
HETATM   32  C   UNL     1      43.032 -11.114   8.578  1.00  0.00     0.011 A 
HETATM   33  C   UNL     1      43.587 -10.992   9.854  1.00  0.00     0.024 A 
HETATM   34  C   UNL     1      43.012 -10.121  10.776  1.00  0.00     0.034 A 
HETATM   35 CL   UNL     1      43.677  -9.992  12.357  1.00  0.00    -0.084 Cl
HETATM   36  C   UNL     1      41.892  -9.367  10.432  1.00  0.00     0.024 A 
HETATM   37  C   UNL     1      41.335  -9.489   9.156  1.00  0.00     0.011 A 
ENDBRANCH  30  31
ENDBRANCH  29  30
ENDBRANCH  26  29
BRANCH  27  38
HETATM   38  O   UNL     1      43.218 -13.400   4.707  1.00  0.00    -0.353 OA
HETATM   39  C   UNL     1      43.796 -14.170   3.651  1.00  0.00     0.210 C 
ENDBRANCH  27  38
ENDBRANCH   1  23
TORSDOF 10
ENDMDL
MODEL 7
REMARK VINA RESULT:      -7.7      3.467      7.574
REMARK  10 active torsions:
REMARK  status: ('A' for Active; 'I' for Inactive)
REMARK    1  A    between atoms: O_2  and  C_3 
REMARK    2  A    between atoms: C_4  and  O_5 
REMARK    3  A    between atoms: O_5  and  C_6 
REMARK    4  A    between atoms: C_6  and  C_7 
REMARK    5  A    between atoms: C_16  and  C_17 
REMARK       I    between atoms: C_17  and  N_18 
REMARK    6  A    between atoms: N_18  and  C_19 
REMARK    7  A    between atoms: C_19  and  N_20 
REMARK    8  A    between atoms: N_20  and  C_21 
REMARK    9  A    between atoms: C_24  and  C_25 
REMARK   10  A    between atoms: C_25  and  N_26 
ROOT
HETATM    1  C   UNL     1      43.159 -13.543   4.247  1.00  0.00     0.257 C 
HETATM    2  N   UNL     1      43.079 -13.222   5.599  1.00  0.00    -0.299 N 
HETATM    3  O   UNL     1      44.199 -13.716   3.628  1.00  0.00    -0.267 OA
HETATM    4  H   UNL     1      42.230 -12.756   5.879  1.00  0.00     0.171 HD
ENDROOT
BRANCH   2   5
HETATM    5  C   UNL     1      43.658 -13.897   6.653  1.00  0.00     0.179 C 
HETATM    6  S   UNL     1      45.059 -13.478   7.456  1.00  0.00    -0.040 SA
BRANCH   5   7
HETATM    7  N   UNL     1      43.081 -15.104   6.974  1.00  0.00    -0.333 N 
HETATM    8  H   UNL     1      42.175 -14.998   7.427  1.00  0.00     0.168 HD
BRANCH   7   9
HETATM    9  C   UNL     1      43.472 -16.421   6.664  1.00  0.00     0.034 A 
HETATM   10  C   UNL     1      42.516 -17.268   6.099  1.00  0.00     0.030 A 
HETATM   11  C   UNL     1      42.840 -18.582   5.731  1.00  0.00     0.011 A 
HETATM   12  C   UNL     1      44.144 -19.069   5.886  1.00  0.00    -0.032 A 
HETATM   13  C   UNL     1      45.105 -18.198   6.433  1.00  0.00     0.011 A 
HETATM   14  C   UNL     1      44.773 -16.893   6.822  1.00  0.00     0.030 A 
BRANCH  12  15
HETATM   15  C   UNL     1      44.608 -20.453   5.489  1.00  0.00     0.273 C 
BRANCH  15  16
HETATM   16  N   UNL     1      44.673 -20.770   4.007  1.00  0.00    -0.067 N 
HETATM   17  H   UNL     1      45.606 -20.481   3.688  1.00  0.00     0.280 HD
HETATM   18  C   UNL     1      44.488 -22.245   3.722  1.00  0.00     0.235 C 
HETATM   19  C   UNL     1      44.709 -22.500   2.238  1.00  0.00     0.028 C 
HETATM   20  C   UNL     1      43.772 -21.659   1.379  1.00  0.00     0.003 C 
HETATM   21  C   UNL     1      43.877 -20.180   1.733  1.00  0.00     0.028 C 
HETATM   22  C   UNL     1      43.680 -19.938   3.223  1.00  0.00     0.235 C 
ENDBRANCH  15  16
ENDBRANCH  12  15
ENDBRANCH   7   9
ENDBRANCH   5   7
ENDBRANCH   2   5
BRANCH   1  23
HETATM   23  C   UNL     1      41.863 -13.433   3.524  1.00  0.00     0.035 A 
HETATM   24  C   UNL     1      41.342 -12.173   3.195  1.00  0.00     0.020 A 
HETATM   25  C   UNL     1      40.188 -12.081   2.419  1.00  0.00     0.040 A 
HETATM   26  C   UNL     1      39.540 -13.240   1.991  1.00  0.00     0.102 A 
HETATM   27  C   UNL     1      40.047 -14.496   2.342  1.00  0.00     0.102 A 
HETATM   28  C   UNL     1      41.191 -14.596   3.137  1.00  0.00     0.056 A 
BRANCH  26  29
HETATM   29  O   UNL     1      38.504 -13.057   1.122  1.00  0.00    -0.344 OA
BRANCH  29  30
HETATM   30  C   UNL     1      38.873 -12.354  -0.067  1.00  0.00     0.214 C 
BRANCH  30  31
HETATM   31  C   UNL     1      38.883 -13.393  -1.164  1.00  0.00    -0.034 A 
HETATM   32  C   UNL     1      40.068 -14.084  -1.464  1.00  0.00     0.011 A 
HETATM   33  C   UNL     1      40.115 -14.983  -2.531  1.00  0.00     0.024 A 
HETATM   34  C   UNL     1      38.977 -15.195  -3.306  1.00  0.00     0.034 A 
HETATM   35 CL   UNL     1      39.043 -16.281  -4.638  1.00  0.00    -0.084 Cl
HETATM   36  C   UNL     1      37.793 -14.522  -3.018  1.00  0.00     0.024 A 
HETATM   37  C   UNL     1      37.744 -13.620  -1.951  1.00  0.00     0.011 A 
ENDBRANCH  30  31
ENDBRANCH  29  30
ENDBRANCH  26  29
BRANCH  27  38
HETATM   38  O   UNL     1      39.442 -15.657   1.946  1.00  0.00    -0.353 OA
HETATM   39  C   UNL     1      40.338 -16.761   2.081  1.00  0.00     0.210 C 
ENDBRANCH  27  38
ENDBRANCH   1  23
TORSDOF 10
ENDMDL
MODEL 8
REMARK VINA RESULT:      -7.7      3.777      7.226
REMARK  10 active torsions:
REMARK  status: ('A' for Active; 'I' for Inactive)
REMARK    1  A    between atoms: O_2  and  C_3 
REMARK    2  A    between atoms: C_4  and  O_5 
REMARK    3  A    between atoms: O_5  and  C_6 
REMARK    4  A    between atoms: C_6  and  C_7 
REMARK    5  A    between atoms: C_16  and  C_17 
REMARK       I    between atoms: C_17  and  N_18 
REMARK    6  A    between atoms: N_18  and  C_19 
REMARK    7  A    between atoms: C_19  and  N_20 
REMARK    8  A    between atoms: N_20  and  C_21 
REMARK    9  A    between atoms: C_24  and  C_25 
REMARK   10  A    between atoms: C_25  and  N_26 
ROOT
HETATM    1  C   UNL     1      39.321 -12.222   3.846  1.00  0.00     0.257 C 
HETATM    2  N   UNL     1      38.927 -11.571   5.010  1.00  0.00    -0.299 N 
HETATM    3  O   UNL     1      38.906 -11.966   2.724  1.00  0.00    -0.267 OA
HETATM    4  H   UNL     1      39.046 -12.101   5.859  1.00  0.00     0.171 HD
ENDROOT
BRANCH   2   5
HETATM    5  C   UNL     1      38.944 -10.214   5.255  1.00  0.00     0.179 C 
HETATM    6  S   UNL     1      38.199  -9.028   4.347  1.00  0.00    -0.040 SA
BRANCH   5   7
HETATM    7  N   UNL     1      39.771  -9.804   6.275  1.00  0.00    -0.333 N 
HETATM    8  H   UNL     1      40.606  -9.331   5.937  1.00  0.00     0.168 HD
BRANCH   7   9
HETATM    9  C   UNL     1      39.585  -9.819   7.671  1.00  0.00     0.034 A 
HETATM   10  C   UNL     1      40.125 -10.889   8.388  1.00  0.00     0.030 A 
HETATM   11  C   UNL     1      40.012 -10.956   9.784  1.00  0.00     0.011 A 
HETATM   12  C   UNL     1      39.386  -9.929  10.503  1.00  0.00    -0.032 A 
HETATM   13  C   UNL     1      38.868  -8.844   9.771  1.00  0.00     0.011 A 
HETATM   14  C   UNL     1      38.961  -8.791   8.374  1.00  0.00     0.030 A 
BRANCH  12  15
HETATM   15  C   UNL     1      39.242  -9.884  12.008  1.00  0.00     0.273 C 
BRANCH  15  16
HETATM   16  N   UNL     1      40.477  -9.539  12.817  1.00  0.00    -0.067 N 
HETATM   17  H   UNL     1      40.153  -8.993  13.625  1.00  0.00     0.280 HD
HETATM   18  C   UNL     1      41.207 -10.769  13.313  1.00  0.00     0.235 C 
HETATM   19  C   UNL     1      42.344 -10.342  14.231  1.00  0.00     0.028 C 
HETATM   20  C   UNL     1      43.303  -9.387  13.528  1.00  0.00     0.003 C 
HETATM   21  C   UNL     1      42.560  -8.196  12.935  1.00  0.00     0.028 C 
HETATM   22  C   UNL     1      41.410  -8.633  12.039  1.00  0.00     0.235 C 
ENDBRANCH  15  16
ENDBRANCH  12  15
ENDBRANCH   7   9
ENDBRANCH   5   7
ENDBRANCH   2   5
BRANCH   1  23
HETATM   23  C   UNL     1      40.136 -13.444   4.085  1.00  0.00     0.035 A 
HETATM   24  C   UNL     1      40.961 -13.533   5.216  1.00  0.00     0.020 A 
HETATM   25  C   UNL     1      41.632 -14.724   5.493  1.00  0.00     0.040 A 
HETATM   26  C   UNL     1      41.500 -15.815   4.634  1.00  0.00     0.102 A 
HETATM   27  C   UNL     1      40.697 -15.716   3.493  1.00  0.00     0.102 A 
HETATM   28  C   UNL     1      40.038 -14.520   3.198  1.00  0.00     0.056 A 
BRANCH  26  29
HETATM   29  O   UNL     1      42.076 -16.978   5.057  1.00  0.00    -0.344 OA
BRANCH  29  30
HETATM   30  C   UNL     1      43.503 -16.974   4.969  1.00  0.00     0.214 C 
BRANCH  30  31
HETATM   31  C   UNL     1      43.862 -18.214   4.182  1.00  0.00    -0.034 A 
HETATM   32  C   UNL     1      43.531 -18.298   2.820  1.00  0.00     0.011 A 
HETATM   33  C   UNL     1      43.776 -19.470   2.101  1.00  0.00     0.024 A 
HETATM   34  C   UNL     1      44.352 -20.564   2.741  1.00  0.00     0.034 A 
HETATM   35 CL   UNL     1      44.628 -22.018   1.863  1.00  0.00    -0.084 Cl
HETATM   36  C   UNL     1      44.691 -20.495   4.090  1.00  0.00     0.024 A 
HETATM   37  C   UNL     1      44.444 -19.323   4.812  1.00  0.00     0.011 A 
ENDBRANCH  30  31
ENDBRANCH  29  30
ENDBRANCH  26  29
BRANCH  27  38
HETATM   38  O   UNL     1      40.542 -16.761   2.624  1.00  0.00    -0.353 OA
HETATM   39  C   UNL     1      40.693 -16.317   1.274  1.00  0.00     0.210 C 
ENDBRANCH  27  38
ENDBRANCH   1  23
TORSDOF 10
ENDMDL
MODEL 9
REMARK VINA RESULT:      -7.6      2.137      3.065
REMARK  10 active torsions:
REMARK  status: ('A' for Active; 'I' for Inactive)
REMARK    1  A    between atoms: O_2  and  C_3 
REMARK    2  A    between atoms: C_4  and  O_5 
REMARK    3  A    between atoms: O_5  and  C_6 
REMARK    4  A    between atoms: C_6  and  C_7 
REMARK    5  A    between atoms: C_16  and  C_17 
REMARK       I    between atoms: C_17  and  N_18 
REMARK    6  A    between atoms: N_18  and  C_19 
REMARK    7  A    between atoms: C_19  and  N_20 
REMARK    8  A    between atoms: N_20  and  C_21 
REMARK    9  A    between atoms: C_24  and  C_25 
REMARK   10  A    between atoms: C_25  and  N_26 
ROOT
HETATM    1  C   UNL     1      39.453 -12.523   5.511  1.00  0.00     0.257 C 
HETATM    2  N   UNL     1      39.669 -11.352   4.790  1.00  0.00    -0.299 N 
HETATM    3  O   UNL     1      38.903 -12.583   6.602  1.00  0.00    -0.267 OA
HETATM    4  H   UNL     1      40.429 -11.391   4.128  1.00  0.00     0.171 HD
ENDROOT
BRANCH   2   5
HETATM    5  C   UNL     1      38.731 -10.408   4.430  1.00  0.00     0.179 C 
HETATM    6  S   UNL     1      38.332  -9.027   5.277  1.00  0.00    -0.040 SA
BRANCH   5   7
HETATM    7  N   UNL     1      37.967 -10.720   3.330  1.00  0.00    -0.333 N 
HETATM    8  H   UNL     1      36.976 -10.536   3.476  1.00  0.00     0.168 HD
BRANCH   7   9
HETATM    9  C   UNL     1      38.343 -11.115   2.031  1.00  0.00     0.034 A 
HETATM   10  C   UNL     1      37.772 -12.281   1.516  1.00  0.00     0.030 A 
HETATM   11  C   UNL     1      38.070 -12.720   0.217  1.00  0.00     0.011 A 
HETATM   12  C   UNL     1      38.920 -11.977  -0.613  1.00  0.00    -0.032 A 
HETATM   13  C   UNL     1      39.469 -10.791  -0.091  1.00  0.00     0.011 A 
HETATM   14  C   UNL     1      39.188 -10.367   1.215  1.00  0.00     0.030 A 
BRANCH  12  15
HETATM   15  C   UNL     1      39.278 -12.339  -2.038  1.00  0.00     0.273 C 
BRANCH  15  16
HETATM   16  N   UNL     1      39.075 -13.780  -2.465  1.00  0.00    -0.067 N 
HETATM   17  H   UNL     1      38.884 -14.313  -1.608  1.00  0.00     0.280 HD
HETATM   18  C   UNL     1      37.911 -13.943  -3.419  1.00  0.00     0.235 C 
HETATM   19  C   UNL     1      37.685 -15.425  -3.684  1.00  0.00     0.028 C 
HETATM   20  C   UNL     1      38.938 -16.093  -4.237  1.00  0.00     0.003 C 
HETATM   21  C   UNL     1      40.141 -15.845  -3.334  1.00  0.00     0.028 C 
HETATM   22  C   UNL     1      40.344 -14.363  -3.054  1.00  0.00     0.235 C 
ENDBRANCH  15  16
ENDBRANCH  12  15
ENDBRANCH   7   9
ENDBRANCH   5   7
ENDBRANCH   2   5
BRANCH   1  23
HETATM   23  C   UNL     1      40.161 -13.710   4.959  1.00  0.00     0.035 A 
HETATM   24  C   UNL     1      40.524 -14.771   5.803  1.00  0.00     0.020 A 
HETATM   25  C   UNL     1      41.083 -15.927   5.261  1.00  0.00     0.040 A 
HETATM   26  C   UNL     1      41.301 -16.019   3.886  1.00  0.00     0.102 A 
HETATM   27  C   UNL     1      40.961 -14.950   3.050  1.00  0.00     0.102 A 
HETATM   28  C   UNL     1      40.420 -13.780   3.588  1.00  0.00     0.056 A 
BRANCH  26  29
HETATM   29  O   UNL     1      41.719 -17.235   3.429  1.00  0.00    -0.344 OA
BRANCH  29  30
HETATM   30  C   UNL     1      43.068 -17.237   2.957  1.00  0.00     0.214 C 
BRANCH  30  31
HETATM   31  C   UNL     1      43.695 -18.486   3.533  1.00  0.00    -0.034 A 
HETATM   32  C   UNL     1      44.144 -19.503   2.675  1.00  0.00     0.011 A 
HETATM   33  C   UNL     1      44.644 -20.699   3.194  1.00  0.00     0.024 A 
HETATM   34  C   UNL     1      44.697 -20.884   4.573  1.00  0.00     0.034 A 
HETATM   35 CL   UNL     1      45.287 -22.369   5.213  1.00  0.00    -0.084 Cl
HETATM   36  C   UNL     1      44.262 -19.883   5.437  1.00  0.00     0.024 A 
HETATM   37  C   UNL     1      43.758 -18.686   4.919  1.00  0.00     0.011 A 
ENDBRANCH  30  31
ENDBRANCH  29  30
ENDBRANCH  26  29
BRANCH  27  38
HETATM   38  O   UNL     1      41.160 -14.997   1.697  1.00  0.00    -0.353 OA
HETATM   39  C   UNL     1      41.688 -13.757   1.225  1.00  0.00     0.210 C 
ENDBRANCH  27  38
ENDBRANCH   1  23
TORSDOF 10
ENDMDL
MODEL 10
REMARK VINA RESULT:      -7.5      3.809      7.121
REMARK  10 active torsions:
REMARK  status: ('A' for Active; 'I' for Inactive)
REMARK    1  A    between atoms: O_2  and  C_3 
REMARK    2  A    between atoms: C_4  and  O_5 
REMARK    3  A    between atoms: O_5  and  C_6 
REMARK    4  A    between atoms: C_6  and  C_7 
REMARK    5  A    between atoms: C_16  and  C_17 
REMARK       I    between atoms: C_17  and  N_18 
REMARK    6  A    between atoms: N_18  and  C_19 
REMARK    7  A    between atoms: C_19  and  N_20 
REMARK    8  A    between atoms: N_20  and  C_21 
REMARK    9  A    between atoms: C_24  and  C_25 
REMARK   10  A    between atoms: C_25  and  N_26 
ROOT
HETATM    1  C   UNL     1      39.423 -12.561   3.507  1.00  0.00     0.257 C 
HETATM    2  N   UNL     1      39.596 -12.067   4.797  1.00  0.00    -0.299 N 
HETATM    3  O   UNL     1      38.759 -12.021   2.634  1.00  0.00    -0.267 OA
HETATM    4  H   UNL     1      39.833 -12.758   5.492  1.00  0.00     0.171 HD
ENDROOT
BRANCH   2   5
HETATM    5  C   UNL     1      40.041 -10.813   5.158  1.00  0.00     0.179 C 
HETATM    6  S   UNL     1      41.528 -10.144   4.806  1.00  0.00    -0.040 SA
BRANCH   5   7
HETATM    7  N   UNL     1      39.214 -10.111   6.004  1.00  0.00    -0.333 N 
HETATM    8  H   UNL     1      38.389  -9.745   5.533  1.00  0.00     0.168 HD
BRANCH   7   9
HETATM    9  C   UNL     1      39.262  -9.937   7.401  1.00  0.00     0.034 A 
HETATM   10  C   UNL     1      39.468 -11.071   8.190  1.00  0.00     0.030 A 
HETATM   11  C   UNL     1      39.562 -10.974   9.586  1.00  0.00     0.011 A 
HETATM   12  C   UNL     1      39.491  -9.729  10.225  1.00  0.00    -0.032 A 
HETATM   13  C   UNL     1      39.310  -8.591   9.416  1.00  0.00     0.011 A 
HETATM   14  C   UNL     1      39.192  -8.693   8.024  1.00  0.00     0.030 A 
BRANCH  12  15
HETATM   15  C   UNL     1      39.618  -9.508  11.716  1.00  0.00     0.273 C 
BRANCH  15  16
HETATM   16  N   UNL     1      40.952  -9.836  12.360  1.00  0.00    -0.067 N 
HETATM   17  H   UNL     1      41.087 -10.848  12.250  1.00  0.00     0.280 HD
HETATM   18  C   UNL     1      42.106  -9.109  11.703  1.00  0.00     0.235 C 
HETATM   19  C   UNL     1      43.415  -9.599  12.307  1.00  0.00     0.028 C 
HETATM   20  C   UNL     1      43.441  -9.406  13.820  1.00  0.00     0.003 C 
HETATM   21  C   UNL     1      42.225 -10.046  14.479  1.00  0.00     0.028 C 
HETATM   22  C   UNL     1      40.922  -9.570  13.851  1.00  0.00     0.235 C 
ENDBRANCH  15  16
ENDBRANCH  12  15
ENDBRANCH   7   9
ENDBRANCH   5   7
ENDBRANCH   2   5
BRANCH   1  23
HETATM   23  C   UNL     1      39.924 -13.950   3.321  1.00  0.00     0.035 A 
HETATM   24  C   UNL     1      39.911 -14.541   2.049  1.00  0.00     0.020 A 
HETATM   25  C   UNL     1      40.486 -15.797   1.862  1.00  0.00     0.040 A 
HETATM   26  C   UNL     1      41.053 -16.473   2.943  1.00  0.00     0.102 A 
HETATM   27  C   UNL     1      41.043 -15.892   4.215  1.00  0.00     0.102 A 
HETATM   28  C   UNL     1      40.450 -14.643   4.415  1.00  0.00     0.056 A 
BRANCH  26  29
HETATM   29  O   UNL     1      41.716 -17.627   2.642  1.00  0.00    -0.344 OA
BRANCH  29  30
HETATM   30  C   UNL     1      43.126 -17.451   2.482  1.00  0.00     0.214 C 
BRANCH  30  31
HETATM   31  C   UNL     1      43.760 -18.653   3.144  1.00  0.00    -0.034 A 
HETATM   32  C   UNL     1      43.950 -19.837   2.412  1.00  0.00     0.011 A 
HETATM   33  C   UNL     1      44.453 -20.982   3.033  1.00  0.00     0.024 A 
HETATM   34  C   UNL     1      44.766 -20.950   4.390  1.00  0.00     0.034 A 
HETATM   35 CL   UNL     1      45.358 -22.369   5.162  1.00  0.00    -0.084 Cl
HETATM   36  C   UNL     1      44.588 -19.783   5.128  1.00  0.00     0.024 A 
HETATM   37  C   UNL     1      44.083 -18.636   4.508  1.00  0.00     0.011 A 
ENDBRANCH  30  31
ENDBRANCH  29  30
ENDBRANCH  26  29
BRANCH  27  38
HETATM   38  O   UNL     1      41.587 -16.521   5.302  1.00  0.00    -0.353 OA
HETATM   39  C   UNL     1      42.497 -15.654   5.980  1.00  0.00     0.210 C 
ENDBRANCH  27  38
ENDBRANCH   1  23
TORSDOF 10
ENDMDL
