MODEL 1
REMARK VINA RESULT:      -8.1      0.000      0.000
REMARK  5 active torsions:
REMARK  status: ('A' for Active; 'I' for Inactive)
REMARK    1  A    between atoms: C_3  and  N_4 
REMARK    2  A    between atoms: N_5  and  C_6 
REMARK    3  A    between atoms: C_6  and  C_7 
REMARK    4  A    between atoms: C_7  and  C_8 
REMARK    5  A    between atoms: C_19  and  C_20 
ROOT
HETATM    1  C   UNL     1      41.290 -17.729   4.992  1.00  0.00     0.175 C 
HETATM    2  N   UNL     1      41.664 -17.156   3.708  1.00  0.00    -0.186 N 
HETATM    3  C   UNL     1      41.177 -16.017   3.229  1.00  0.00     0.680 C 
HETATM    4  N   UNL     1      41.944 -15.611   2.223  1.00  0.00    -0.184 N 
HETATM    5  C   UNL     1      42.848 -16.624   1.938  1.00  0.00     0.140 C 
HETATM    6  C   UNL     1      42.638 -17.658   2.825  1.00  0.00     0.077 C 
ENDROOT
BRANCH   4   7
HETATM    7  C   UNL     1      41.922 -14.296   1.549  1.00  0.00     0.231 C 
BRANCH   7   8
HETATM    8  C   UNL     1      40.566 -13.940   0.949  1.00  0.00     0.178 C 
HETATM    9  O   UNL     1      39.736 -13.265   1.562  1.00  0.00    -0.290 OA
BRANCH   8  10
HETATM   10  C   UNL     1      40.259 -14.376  -0.439  1.00  0.00     0.014 A 
HETATM   11  C   UNL     1      39.011 -14.136  -1.025  1.00  0.00     0.055 A 
HETATM   12  C   UNL     1      38.813 -14.600  -2.311  1.00  0.00     0.106 A 
HETATM   13  C   UNL     1      39.791 -15.272  -3.006  1.00  0.00     0.105 A 
HETATM   14  O   UNL     1      37.666 -14.467  -3.028  1.00  0.00    -0.323 OA
HETATM   15  O   UNL     1      39.383 -15.641  -4.247  1.00  0.00    -0.323 OA
HETATM   16  C   UNL     1      41.026 -15.526  -2.454  1.00  0.00     0.040 A 
HETATM   17  C   UNL     1      38.025 -15.151  -4.250  1.00  0.00     0.352 A 
HETATM   18  C   UNL     1      41.261 -15.077  -1.150  1.00  0.00     0.018 A 
ENDBRANCH   8  10
ENDBRANCH   7   8
ENDBRANCH   4   7
BRANCH   3  19
HETATM   19  N   UNL     1      40.105 -15.394   3.705  1.00  0.00    -0.234 N 
HETATM   20  H   UNL     1      40.146 -14.451   4.055  1.00  0.00     0.174 HD
HETATM   21  H   UNL     1      39.318 -15.963   4.019  1.00  0.00     0.174 HD
ENDBRANCH   3  19
BRANCH   6  22
HETATM   22  C   UNL     1      43.339 -18.987   2.809  1.00  0.00    -0.007 A 
HETATM   23  C   UNL     1      43.014 -19.943   1.836  1.00  0.00     0.014 A 
HETATM   24  C   UNL     1      43.655 -21.184   1.827  1.00  0.00     0.001 A 
HETATM   25  C   UNL     1      44.612 -21.484   2.794  1.00  0.00     0.000 A 
HETATM   26  C   UNL     1      44.925 -20.547   3.774  1.00  0.00     0.001 A 
HETATM   27  C   UNL     1      44.291 -19.302   3.784  1.00  0.00     0.014 A 
ENDBRANCH   6  22
TORSDOF 5
ENDMDL
MODEL 2
REMARK VINA RESULT:      -8.1      2.252      3.325
REMARK  5 active torsions:
REMARK  status: ('A' for Active; 'I' for Inactive)
REMARK    1  A    between atoms: C_3  and  N_4 
REMARK    2  A    between atoms: N_5  and  C_6 
REMARK    3  A    between atoms: C_6  and  C_7 
REMARK    4  A    between atoms: C_7  and  C_8 
REMARK    5  A    between atoms: C_19  and  C_20 
ROOT
HETATM    1  C   UNL     1      45.184 -18.074   6.646  1.00  0.00     0.175 C 
HETATM    2  N   UNL     1      44.148 -17.578   5.753  1.00  0.00    -0.186 N 
HETATM    3  C   UNL     1      43.503 -16.430   5.921  1.00  0.00     0.680 C 
HETATM    4  N   UNL     1      42.881 -16.116   4.791  1.00  0.00    -0.184 N 
HETATM    5  C   UNL     1      42.988 -17.197   3.928  1.00  0.00     0.140 C 
HETATM    6  C   UNL     1      43.730 -18.180   4.551  1.00  0.00     0.077 C 
ENDROOT
BRANCH   4   7
HETATM    7  C   UNL     1      42.240 -14.830   4.443  1.00  0.00     0.231 C 
BRANCH   7   8
HETATM    8  C   UNL     1      42.983 -14.050   3.363  1.00  0.00     0.178 C 
HETATM    9  O   UNL     1      44.097 -13.560   3.559  1.00  0.00    -0.290 OA
BRANCH   8  10
HETATM   10  C   UNL     1      42.364 -13.924   2.016  1.00  0.00     0.014 A 
HETATM   11  C   UNL     1      42.068 -15.048   1.237  1.00  0.00     0.055 A 
HETATM   12  C   UNL     1      41.515 -14.828  -0.010  1.00  0.00     0.106 A 
HETATM   13  C   UNL     1      41.257 -13.564  -0.484  1.00  0.00     0.105 A 
HETATM   14  O   UNL     1      41.176 -15.796  -0.902  1.00  0.00    -0.323 OA
HETATM   15  O   UNL     1      40.720 -13.578  -1.731  1.00  0.00    -0.323 OA
HETATM   16  C   UNL     1      41.542 -12.440   0.258  1.00  0.00     0.040 A 
HETATM   17  C   UNL     1      40.691 -14.995  -2.005  1.00  0.00     0.352 A 
HETATM   18  C   UNL     1      42.109 -12.624   1.523  1.00  0.00     0.018 A 
ENDBRANCH   8  10
ENDBRANCH   7   8
ENDBRANCH   4   7
BRANCH   3  19
HETATM   19  N   UNL     1      43.508 -15.718   7.043  1.00  0.00    -0.234 N 
HETATM   20  H   UNL     1      42.945 -15.971   7.838  1.00  0.00     0.174 HD
HETATM   21  H   UNL     1      43.823 -14.749   6.997  1.00  0.00     0.174 HD
ENDBRANCH   3  19
BRANCH   6  22
HETATM   22  C   UNL     1      44.006 -19.552   4.004  1.00  0.00    -0.007 A 
HETATM   23  C   UNL     1      44.549 -20.543   4.834  1.00  0.00     0.014 A 
HETATM   24  C   UNL     1      44.820 -21.816   4.324  1.00  0.00     0.001 A 
HETATM   25  C   UNL     1      44.564 -22.102   2.986  1.00  0.00     0.000 A 
HETATM   26  C   UNL     1      44.043 -21.116   2.152  1.00  0.00     0.001 A 
HETATM   27  C   UNL     1      43.766 -19.843   2.658  1.00  0.00     0.014 A 
ENDBRANCH   6  22
TORSDOF 5
ENDMDL
MODEL 3
REMARK VINA RESULT:      -8.0      3.174      7.137
REMARK  5 active torsions:
REMARK  status: ('A' for Active; 'I' for Inactive)
REMARK    1  A    between atoms: C_3  and  N_4 
REMARK    2  A    between atoms: N_5  and  C_6 
REMARK    3  A    between atoms: C_6  and  C_7 
REMARK    4  A    between atoms: C_7  and  C_8 
REMARK    5  A    between atoms: C_19  and  C_20 
ROOT
HETATM    1  C   UNL     1      38.901 -15.092   1.708  1.00  0.00     0.175 C 
HETATM    2  N   UNL     1      40.313 -15.002   2.047  1.00  0.00    -0.186 N 
HETATM    3  C   UNL     1      40.786 -15.018   3.288  1.00  0.00     0.680 C 
HETATM    4  N   UNL     1      42.093 -15.252   3.248  1.00  0.00    -0.184 N 
HETATM    5  C   UNL     1      42.495 -15.204   1.921  1.00  0.00     0.140 C 
HETATM    6  C   UNL     1      41.386 -14.968   1.136  1.00  0.00     0.077 C 
ENDROOT
BRANCH   4   7
HETATM    7  C   UNL     1      42.983 -15.582   4.380  1.00  0.00     0.231 C 
BRANCH   7   8
HETATM    8  C   UNL     1      42.652 -16.911   5.050  1.00  0.00     0.178 C 
HETATM    9  O   UNL     1      41.853 -16.990   5.987  1.00  0.00    -0.290 OA
BRANCH   8  10
HETATM   10  C   UNL     1      43.272 -18.155   4.522  1.00  0.00     0.014 A 
HETATM   11  C   UNL     1      42.938 -18.664   3.261  1.00  0.00     0.055 A 
HETATM   12  C   UNL     1      43.550 -19.837   2.868  1.00  0.00     0.106 A 
HETATM   13  C   UNL     1      44.456 -20.495   3.666  1.00  0.00     0.105 A 
HETATM   14  O   UNL     1      43.339 -20.477   1.687  1.00  0.00    -0.323 OA
HETATM   15  O   UNL     1      44.931 -21.627   3.087  1.00  0.00    -0.323 OA
HETATM   16  C   UNL     1      44.801 -20.021   4.912  1.00  0.00     0.040 A 
HETATM   17  C   UNL     1      44.202 -21.628   1.841  1.00  0.00     0.352 A 
HETATM   18  C   UNL     1      44.195 -18.838   5.348  1.00  0.00     0.018 A 
ENDBRANCH   8  10
ENDBRANCH   7   8
ENDBRANCH   4   7
BRANCH   3  19
HETATM   19  N   UNL     1      40.049 -14.842   4.379  1.00  0.00    -0.234 N 
HETATM   20  H   UNL     1      40.461 -14.742   5.292  1.00  0.00     0.174 HD
HETATM   21  H   UNL     1      39.070 -15.130   4.350  1.00  0.00     0.174 HD
ENDBRANCH   3  19
BRANCH   6  22
HETATM   22  C   UNL     1      41.390 -14.751  -0.350  1.00  0.00    -0.007 A 
HETATM   23  C   UNL     1      41.696 -13.488  -0.877  1.00  0.00     0.014 A 
HETATM   24  C   UNL     1      41.687 -13.281  -2.258  1.00  0.00     0.001 A 
HETATM   25  C   UNL     1      41.361 -14.325  -3.120  1.00  0.00     0.000 A 
HETATM   26  C   UNL     1      41.037 -15.577  -2.603  1.00  0.00     0.001 A 
HETATM   27  C   UNL     1      41.049 -15.790  -1.222  1.00  0.00     0.014 A 
ENDBRANCH   6  22
TORSDOF 5
ENDMDL
MODEL 4
REMARK VINA RESULT:      -8.0      3.806      7.700
REMARK  5 active torsions:
REMARK  status: ('A' for Active; 'I' for Inactive)
REMARK    1  A    between atoms: C_3  and  N_4 
REMARK    2  A    between atoms: N_5  and  C_6 
REMARK    3  A    between atoms: C_6  and  C_7 
REMARK    4  A    between atoms: C_7  and  C_8 
REMARK    5  A    between atoms: C_19  and  C_20 
ROOT
HETATM    1  C   UNL     1      41.958 -13.049   5.303  1.00  0.00     0.175 C 
HETATM    2  N   UNL     1      42.133 -14.475   5.078  1.00  0.00    -0.186 N 
HETATM    3  C   UNL     1      42.791 -15.286   5.899  1.00  0.00     0.680 C 
HETATM    4  N   UNL     1      42.491 -16.543   5.594  1.00  0.00    -0.184 N 
HETATM    5  C   UNL     1      41.755 -16.535   4.418  1.00  0.00     0.140 C 
HETATM    6  C   UNL     1      41.577 -15.225   4.024  1.00  0.00     0.077 C 
ENDROOT
BRANCH   4   7
HETATM    7  C   UNL     1      42.802 -17.758   6.377  1.00  0.00     0.231 C 
BRANCH   7   8
HETATM    8  C   UNL     1      44.185 -18.333   6.088  1.00  0.00     0.178 C 
HETATM    9  O   UNL     1      45.201 -17.896   6.633  1.00  0.00    -0.290 OA
BRANCH   8  10
HETATM   10  C   UNL     1      44.302 -19.489   5.161  1.00  0.00     0.014 A 
HETATM   11  C   UNL     1      44.035 -19.363   3.792  1.00  0.00     0.055 A 
HETATM   12  C   UNL     1      44.148 -20.499   3.015  1.00  0.00     0.106 A 
HETATM   13  C   UNL     1      44.511 -21.715   3.544  1.00  0.00     0.105 A 
HETATM   14  O   UNL     1      43.917 -20.564   1.678  1.00  0.00    -0.323 OA
HETATM   15  O   UNL     1      44.557 -22.695   2.606  1.00  0.00    -0.323 OA
HETATM   16  C   UNL     1      44.777 -21.870   4.886  1.00  0.00     0.040 A 
HETATM   17  C   UNL     1      44.156 -21.968   1.426  1.00  0.00     0.352 A 
HETATM   18  C   UNL     1      44.664 -20.742   5.706  1.00  0.00     0.018 A 
ENDBRANCH   8  10
ENDBRANCH   7   8
ENDBRANCH   4   7
BRANCH   3  19
HETATM   19  N   UNL     1      43.599 -14.881   6.873  1.00  0.00    -0.234 N 
HETATM   20  H   UNL     1      44.402 -14.301   6.693  1.00  0.00     0.174 HD
HETATM   21  H   UNL     1      43.605 -15.410   7.745  1.00  0.00     0.174 HD
ENDBRANCH   3  19
BRANCH   6  22
HETATM   22  C   UNL     1      40.915 -14.771   2.755  1.00  0.00    -0.007 A 
HETATM   23  C   UNL     1      41.677 -14.188   1.732  1.00  0.00     0.014 A 
HETATM   24  C   UNL     1      41.062 -13.753   0.556  1.00  0.00     0.001 A 
HETATM   25  C   UNL     1      39.684 -13.882   0.399  1.00  0.00     0.000 A 
HETATM   26  C   UNL     1      38.918 -14.442   1.418  1.00  0.00     0.001 A 
HETATM   27  C   UNL     1      39.530 -14.884   2.594  1.00  0.00     0.014 A 
ENDBRANCH   6  22
TORSDOF 5
ENDMDL
MODEL 5
REMARK VINA RESULT:      -8.0      3.794      5.041
REMARK  5 active torsions:
REMARK  status: ('A' for Active; 'I' for Inactive)
REMARK    1  A    between atoms: C_3  and  N_4 
REMARK    2  A    between atoms: N_5  and  C_6 
REMARK    3  A    between atoms: C_6  and  C_7 
REMARK    4  A    between atoms: C_7  and  C_8 
REMARK    5  A    between atoms: C_19  and  C_20 
ROOT
HETATM    1  C   UNL     1      43.708 -17.141   1.206  1.00  0.00     0.175 C 
HETATM    2  N   UNL     1      43.597 -17.103   2.656  1.00  0.00    -0.186 N 
HETATM    3  C   UNL     1      43.421 -15.993   3.363  1.00  0.00     0.680 C 
HETATM    4  N   UNL     1      43.033 -16.321   4.590  1.00  0.00    -0.184 N 
HETATM    5  C   UNL     1      43.140 -17.698   4.719  1.00  0.00     0.140 C 
HETATM    6  C   UNL     1      43.574 -18.216   3.517  1.00  0.00     0.077 C 
ENDROOT
BRANCH   4   7
HETATM    7  C   UNL     1      42.504 -15.422   5.637  1.00  0.00     0.231 C 
BRANCH   7   8
HETATM    8  C   UNL     1      40.981 -15.342   5.662  1.00  0.00     0.178 C 
HETATM    9  O   UNL     1      40.295 -16.148   6.295  1.00  0.00    -0.290 OA
BRANCH   8  10
HETATM   10  C   UNL     1      40.309 -14.227   4.944  1.00  0.00     0.014 A 
HETATM   11  C   UNL     1      39.874 -13.078   5.615  1.00  0.00     0.055 A 
HETATM   12  C   UNL     1      39.240 -12.107   4.865  1.00  0.00     0.106 A 
HETATM   13  C   UNL     1      39.036 -12.242   3.512  1.00  0.00     0.105 A 
HETATM   14  O   UNL     1      38.744 -10.938   5.350  1.00  0.00    -0.323 OA
HETATM   15  O   UNL     1      38.392 -11.175   2.976  1.00  0.00    -0.323 OA
HETATM   16  C   UNL     1      39.450 -13.362   2.827  1.00  0.00     0.040 A 
HETATM   17  C   UNL     1      38.185 -10.358   4.148  1.00  0.00     0.352 A 
HETATM   18  C   UNL     1      40.090 -14.371   3.554  1.00  0.00     0.018 A 
ENDBRANCH   8  10
ENDBRANCH   7   8
ENDBRANCH   4   7
BRANCH   3  19
HETATM   19  N   UNL     1      43.595 -14.762   2.893  1.00  0.00    -0.234 N 
HETATM   20  H   UNL     1      43.043 -13.985   3.214  1.00  0.00     0.174 HD
HETATM   21  H   UNL     1      44.051 -14.654   1.987  1.00  0.00     0.174 HD
ENDBRANCH   3  19
BRANCH   6  22
HETATM   22  C   UNL     1      43.910 -19.656   3.251  1.00  0.00    -0.007 A 
HETATM   23  C   UNL     1      43.528 -20.256   2.042  1.00  0.00     0.014 A 
HETATM   24  C   UNL     1      43.828 -21.599   1.798  1.00  0.00     0.001 A 
HETATM   25  C   UNL     1      44.496 -22.353   2.760  1.00  0.00     0.000 A 
HETATM   26  C   UNL     1      44.861 -21.768   3.970  1.00  0.00     0.001 A 
HETATM   27  C   UNL     1      44.568 -20.424   4.217  1.00  0.00     0.014 A 
ENDBRANCH   6  22
TORSDOF 5
ENDMDL
MODEL 6
REMARK VINA RESULT:      -8.0      2.935      3.602
REMARK  5 active torsions:
REMARK  status: ('A' for Active; 'I' for Inactive)
REMARK    1  A    between atoms: C_3  and  N_4 
REMARK    2  A    between atoms: N_5  and  C_6 
REMARK    3  A    between atoms: C_6  and  C_7 
REMARK    4  A    between atoms: C_7  and  C_8 
REMARK    5  A    between atoms: C_19  and  C_20 
ROOT
HETATM    1  C   UNL     1      44.761 -18.092   6.629  1.00  0.00     0.175 C 
HETATM    2  N   UNL     1      43.991 -17.400   5.607  1.00  0.00    -0.186 N 
HETATM    3  C   UNL     1      43.467 -16.189   5.758  1.00  0.00     0.680 C 
HETATM    4  N   UNL     1      43.125 -15.716   4.565  1.00  0.00    -0.184 N 
HETATM    5  C   UNL     1      43.272 -16.740   3.640  1.00  0.00     0.140 C 
HETATM    6  C   UNL     1      43.751 -17.854   4.296  1.00  0.00     0.077 C 
ENDROOT
BRANCH   4   7
HETATM    7  C   UNL     1      42.725 -14.334   4.225  1.00  0.00     0.231 C 
BRANCH   7   8
HETATM    8  C   UNL     1      41.274 -14.017   4.569  1.00  0.00     0.178 C 
HETATM    9  O   UNL     1      40.918 -13.744   5.717  1.00  0.00    -0.290 OA
BRANCH   8  10
HETATM   10  C   UNL     1      40.268 -13.985   3.474  1.00  0.00     0.014 A 
HETATM   11  C   UNL     1      39.604 -12.804   3.121  1.00  0.00     0.055 A 
HETATM   12  C   UNL     1      38.670 -12.879   2.107  1.00  0.00     0.106 A 
HETATM   13  C   UNL     1      38.390 -14.056   1.454  1.00  0.00     0.105 A 
HETATM   14  O   UNL     1      37.927 -11.840   1.643  1.00  0.00    -0.323 OA
HETATM   15  O   UNL     1      37.440 -13.905   0.497  1.00  0.00    -0.323 OA
HETATM   16  C   UNL     1      39.024 -15.234   1.782  1.00  0.00     0.040 A 
HETATM   17  C   UNL     1      37.128 -12.502   0.635  1.00  0.00     0.352 A 
HETATM   18  C   UNL     1      39.971 -15.198   2.811  1.00  0.00     0.018 A 
ENDBRANCH   8  10
ENDBRANCH   7   8
ENDBRANCH   4   7
BRANCH   3  19
HETATM   19  N   UNL     1      43.334 -15.564   6.922  1.00  0.00    -0.234 N 
HETATM   20  H   UNL     1      42.469 -15.130   7.200  1.00  0.00     0.174 HD
HETATM   21  H   UNL     1      44.179 -15.239   7.394  1.00  0.00     0.174 HD
ENDBRANCH   3  19
BRANCH   6  22
HETATM   22  C   UNL     1      43.965 -19.210   3.685  1.00  0.00    -0.007 A 
HETATM   23  C   UNL     1      43.448 -19.499   2.414  1.00  0.00     0.014 A 
HETATM   24  C   UNL     1      43.634 -20.764   1.850  1.00  0.00     0.001 A 
HETATM   25  C   UNL     1      44.322 -21.749   2.554  1.00  0.00     0.000 A 
HETATM   26  C   UNL     1      44.821 -21.475   3.825  1.00  0.00     0.001 A 
HETATM   27  C   UNL     1      44.642 -20.210   4.391  1.00  0.00     0.014 A 
ENDBRANCH   6  22
TORSDOF 5
ENDMDL
MODEL 7
REMARK VINA RESULT:      -8.0      1.835      2.439
REMARK  5 active torsions:
REMARK  status: ('A' for Active; 'I' for Inactive)
REMARK    1  A    between atoms: C_3  and  N_4 
REMARK    2  A    between atoms: N_5  and  C_6 
REMARK    3  A    between atoms: C_6  and  C_7 
REMARK    4  A    between atoms: C_7  and  C_8 
REMARK    5  A    between atoms: C_19  and  C_20 
ROOT
HETATM    1  C   UNL     1      42.854 -17.933   6.186  1.00  0.00     0.175 C 
HETATM    2  N   UNL     1      42.964 -17.230   4.917  1.00  0.00    -0.186 N 
HETATM    3  C   UNL     1      42.672 -15.946   4.747  1.00  0.00     0.680 C 
HETATM    4  N   UNL     1      43.182 -15.538   3.590  1.00  0.00    -0.184 N 
HETATM    5  C   UNL     1      43.662 -16.652   2.918  1.00  0.00     0.140 C 
HETATM    6  C   UNL     1      43.464 -17.761   3.713  1.00  0.00     0.077 C 
ENDROOT
BRANCH   4   7
HETATM    7  C   UNL     1      43.304 -14.149   3.101  1.00  0.00     0.231 C 
BRANCH   7   8
HETATM    8  C   UNL     1      42.014 -13.596   2.504  1.00  0.00     0.178 C 
HETATM    9  O   UNL     1      41.137 -13.085   3.204  1.00  0.00    -0.290 OA
BRANCH   8  10
HETATM   10  C   UNL     1      41.835 -13.627   1.029  1.00  0.00     0.014 A 
HETATM   11  C   UNL     1      41.472 -14.801   0.358  1.00  0.00     0.055 A 
HETATM   12  C   UNL     1      41.353 -14.736  -1.016  1.00  0.00     0.106 A 
HETATM   13  C   UNL     1      41.575 -13.574  -1.717  1.00  0.00     0.105 A 
HETATM   14  O   UNL     1      41.021 -15.775  -1.828  1.00  0.00    -0.323 OA
HETATM   15  O   UNL     1      41.407 -13.735  -3.055  1.00  0.00    -0.323 OA
HETATM   16  C   UNL     1      41.936 -12.406  -1.085  1.00  0.00     0.040 A 
HETATM   17  C   UNL     1      41.080 -15.140  -3.126  1.00  0.00     0.352 A 
HETATM   18  C   UNL     1      42.074 -12.435   0.306  1.00  0.00     0.018 A 
ENDBRANCH   8  10
ENDBRANCH   7   8
ENDBRANCH   4   7
BRANCH   3  19
HETATM   19  N   UNL     1      41.992 -15.205   5.615  1.00  0.00    -0.234 N 
HETATM   20  H   UNL     1      42.413 -14.846   6.455  1.00  0.00     0.174 HD
HETATM   21  H   UNL     1      40.973 -15.266   5.606  1.00  0.00     0.174 HD
ENDBRANCH   3  19
BRANCH   6  22
HETATM   22  C   UNL     1      43.756 -19.184   3.327  1.00  0.00    -0.007 A 
HETATM   23  C   UNL     1      44.561 -19.985   4.148  1.00  0.00     0.014 A 
HETATM   24  C   UNL     1      44.845 -21.304   3.785  1.00  0.00     0.001 A 
HETATM   25  C   UNL     1      44.340 -21.826   2.596  1.00  0.00     0.000 A 
HETATM   26  C   UNL     1      43.556 -21.029   1.766  1.00  0.00     0.001 A 
HETATM   27  C   UNL     1      43.265 -19.711   2.128  1.00  0.00     0.014 A 
ENDBRANCH   6  22
TORSDOF 5
ENDMDL
MODEL 8
REMARK VINA RESULT:      -7.9      2.261      2.552
REMARK  5 active torsions:
REMARK  status: ('A' for Active; 'I' for Inactive)
REMARK    1  A    between atoms: C_3  and  N_4 
REMARK    2  A    between atoms: N_5  and  C_6 
REMARK    3  A    between atoms: C_6  and  C_7 
REMARK    4  A    between atoms: C_7  and  C_8 
REMARK    5  A    between atoms: C_19  and  C_20 
ROOT
HETATM    1  C   UNL     1      41.378 -17.778   4.990  1.00  0.00     0.175 C 
HETATM    2  N   UNL     1      41.750 -17.240   3.690  1.00  0.00    -0.186 N 
HETATM    3  C   UNL     1      41.280 -16.103   3.190  1.00  0.00     0.680 C 
HETATM    4  N   UNL     1      42.045 -15.734   2.169  1.00  0.00    -0.184 N 
HETATM    5  C   UNL     1      42.927 -16.771   1.898  1.00  0.00     0.140 C 
HETATM    6  C   UNL     1      42.706 -17.781   2.810  1.00  0.00     0.077 C 
ENDROOT
BRANCH   4   7
HETATM    7  C   UNL     1      42.042 -14.434   1.466  1.00  0.00     0.231 C 
BRANCH   7   8
HETATM    8  C   UNL     1      41.002 -14.344   0.354  1.00  0.00     0.178 C 
HETATM    9  O   UNL     1      39.861 -14.791   0.488  1.00  0.00    -0.290 OA
BRANCH   8  10
HETATM   10  C   UNL     1      41.362 -13.647  -0.910  1.00  0.00     0.014 A 
HETATM   11  C   UNL     1      41.813 -12.322  -0.915  1.00  0.00     0.055 A 
HETATM   12  C   UNL     1      42.101 -11.754  -2.140  1.00  0.00     0.106 A 
HETATM   13  C   UNL     1      41.958 -12.446  -3.320  1.00  0.00     0.105 A 
HETATM   14  O   UNL     1      42.538 -10.482  -2.335  1.00  0.00    -0.323 OA
HETATM   15  O   UNL     1      42.291 -11.698  -4.403  1.00  0.00    -0.323 OA
HETATM   16  C   UNL     1      41.513 -13.748  -3.346  1.00  0.00     0.040 A 
HETATM   17  C   UNL     1      42.635 -10.443  -3.778  1.00  0.00     0.352 A 
HETATM   18  C   UNL     1      41.205 -14.355  -2.124  1.00  0.00     0.018 A 
ENDBRANCH   8  10
ENDBRANCH   7   8
ENDBRANCH   4   7
BRANCH   3  19
HETATM   19  N   UNL     1      40.225 -15.449   3.662  1.00  0.00    -0.234 N 
HETATM   20  H   UNL     1      39.351 -15.912   3.852  1.00  0.00     0.174 HD
HETATM   21  H   UNL     1      40.186 -14.438   3.530  1.00  0.00     0.174 HD
ENDBRANCH   3  19
BRANCH   6  22
HETATM   22  C   UNL     1      43.381 -19.123   2.816  1.00  0.00    -0.007 A 
HETATM   23  C   UNL     1      43.050 -20.083   1.849  1.00  0.00     0.014 A 
HETATM   24  C   UNL     1      43.666 -21.336   1.862  1.00  0.00     0.001 A 
HETATM   25  C   UNL     1      44.605 -21.644   2.844  1.00  0.00     0.000 A 
HETATM   26  C   UNL     1      44.924 -20.703   3.819  1.00  0.00     0.001 A 
HETATM   27  C   UNL     1      44.313 -19.446   3.807  1.00  0.00     0.014 A 
ENDBRANCH   6  22
TORSDOF 5
ENDMDL
MODEL 9
REMARK VINA RESULT:      -7.5      1.982      2.524
REMARK  5 active torsions:
REMARK  status: ('A' for Active; 'I' for Inactive)
REMARK    1  A    between atoms: C_3  and  N_4 
REMARK    2  A    between atoms: N_5  and  C_6 
REMARK    3  A    between atoms: C_6  and  C_7 
REMARK    4  A    between atoms: C_7  and  C_8 
REMARK    5  A    between atoms: C_19  and  C_20 
ROOT
HETATM    1  C   UNL     1      43.869 -14.027   4.847  1.00  0.00     0.175 C 
HETATM    2  N   UNL     1      42.953 -14.027   3.717  1.00  0.00    -0.186 N 
HETATM    3  C   UNL     1      42.252 -12.970   3.323  1.00  0.00     0.680 C 
HETATM    4  N   UNL     1      41.785 -13.194   2.100  1.00  0.00    -0.184 N 
HETATM    5  C   UNL     1      42.051 -14.517   1.776  1.00  0.00     0.140 C 
HETATM    6  C   UNL     1      42.731 -15.095   2.827  1.00  0.00     0.077 C 
ENDROOT
BRANCH   4   7
HETATM    7  C   UNL     1      41.156 -12.219   1.185  1.00  0.00     0.231 C 
BRANCH   7   8
HETATM    8  C   UNL     1      41.800 -12.175  -0.197  1.00  0.00     0.178 C 
HETATM    9  O   UNL     1      42.812 -11.509  -0.426  1.00  0.00    -0.290 OA
BRANCH   8  10
HETATM   10  C   UNL     1      41.219 -13.004  -1.286  1.00  0.00     0.014 A 
HETATM   11  C   UNL     1      39.859 -13.333  -1.312  1.00  0.00     0.055 A 
HETATM   12  C   UNL     1      39.417 -14.127  -2.352  1.00  0.00     0.106 A 
HETATM   13  C   UNL     1      40.262 -14.585  -3.334  1.00  0.00     0.105 A 
HETATM   14  O   UNL     1      38.138 -14.551  -2.530  1.00  0.00    -0.323 OA
HETATM   15  O   UNL     1      39.622 -15.351  -4.254  1.00  0.00    -0.323 OA
HETATM   16  C   UNL     1      41.605 -14.282  -3.333  1.00  0.00     0.040 A 
HETATM   17  C   UNL     1      38.277 -15.349  -3.729  1.00  0.00     0.352 A 
HETATM   18  C   UNL     1      42.091 -13.486  -2.290  1.00  0.00     0.018 A 
ENDBRANCH   8  10
ENDBRANCH   7   8
ENDBRANCH   4   7
BRANCH   3  19
HETATM   19  N   UNL     1      42.073 -11.870   4.047  1.00  0.00    -0.234 N 
HETATM   20  H   UNL     1      42.835 -11.411   4.518  1.00  0.00     0.174 HD
HETATM   21  H   UNL     1      41.136 -11.671   4.396  1.00  0.00     0.174 HD
ENDBRANCH   3  19
BRANCH   6  22
HETATM   22  C   UNL     1      43.129 -16.540   2.928  1.00  0.00    -0.007 A 
HETATM   23  C   UNL     1      43.830 -17.152   1.879  1.00  0.00     0.014 A 
HETATM   24  C   UNL     1      44.189 -18.499   1.965  1.00  0.00     0.001 A 
HETATM   25  C   UNL     1      43.841 -19.246   3.088  1.00  0.00     0.000 A 
HETATM   26  C   UNL     1      43.128 -18.650   4.124  1.00  0.00     0.001 A 
HETATM   27  C   UNL     1      42.771 -17.301   4.045  1.00  0.00     0.014 A 
ENDBRANCH   6  22
TORSDOF 5
ENDMDL
MODEL 10
REMARK VINA RESULT:      -7.5      5.145      8.061
REMARK  5 active torsions:
REMARK  status: ('A' for Active; 'I' for Inactive)
REMARK    1  A    between atoms: C_3  and  N_4 
REMARK    2  A    between atoms: N_5  and  C_6 
REMARK    3  A    between atoms: C_6  and  C_7 
REMARK    4  A    between atoms: C_7  and  C_8 
REMARK    5  A    between atoms: C_19  and  C_20 
ROOT
HETATM    1  C   UNL     1      43.509 -16.652   8.608  1.00  0.00     0.175 C 
HETATM    2  N   UNL     1      43.622 -16.309   7.199  1.00  0.00    -0.186 N 
HETATM    3  C   UNL     1      43.232 -17.099   6.205  1.00  0.00     0.680 C 
HETATM    4  N   UNL     1      43.160 -16.382   5.089  1.00  0.00    -0.184 N 
HETATM    5  C   UNL     1      43.698 -15.130   5.349  1.00  0.00     0.140 C 
HETATM    6  C   UNL     1      44.073 -15.083   6.675  1.00  0.00     0.077 C 
ENDROOT
BRANCH   4   7
HETATM    7  C   UNL     1      42.556 -16.781   3.800  1.00  0.00     0.231 C 
BRANCH   7   8
HETATM    8  C   UNL     1      43.552 -17.397   2.823  1.00  0.00     0.178 C 
HETATM    9  O   UNL     1      44.185 -16.712   2.017  1.00  0.00    -0.290 OA
BRANCH   8  10
HETATM   10  C   UNL     1      43.804 -18.861   2.883  1.00  0.00     0.014 A 
HETATM   11  C   UNL     1      44.424 -19.454   3.989  1.00  0.00     0.055 A 
HETATM   12  C   UNL     1      44.636 -20.818   3.943  1.00  0.00     0.106 A 
HETATM   13  C   UNL     1      44.259 -21.582   2.863  1.00  0.00     0.105 A 
HETATM   14  O   UNL     1      45.231 -21.556   4.917  1.00  0.00    -0.323 OA
HETATM   15  O   UNL     1      44.565 -22.895   3.024  1.00  0.00    -0.323 OA
HETATM   16  C   UNL     1      43.651 -21.026   1.760  1.00  0.00     0.040 A 
HETATM   17  C   UNL     1      45.204 -22.873   4.319  1.00  0.00     0.352 A 
HETATM   18  C   UNL     1      43.427 -19.645   1.769  1.00  0.00     0.018 A 
ENDBRANCH   8  10
ENDBRANCH   7   8
ENDBRANCH   4   7
BRANCH   3  19
HETATM   19  N   UNL     1      42.948 -18.390   6.333  1.00  0.00    -0.234 N 
HETATM   20  H   UNL     1      42.145 -18.807   5.892  1.00  0.00     0.174 HD
HETATM   21  H   UNL     1      43.345 -18.893   7.127  1.00  0.00     0.174 HD
ENDBRANCH   3  19
BRANCH   6  22
HETATM   22  C   UNL     1      44.783 -13.943   7.348  1.00  0.00    -0.007 A 
HETATM   23  C   UNL     1      46.039 -13.524   6.886  1.00  0.00     0.014 A 
HETATM   24  C   UNL     1      46.707 -12.473   7.519  1.00  0.00     0.001 A 
HETATM   25  C   UNL     1      46.135 -11.844   8.622  1.00  0.00     0.000 A 
HETATM   26  C   UNL     1      44.897 -12.268   9.098  1.00  0.00     0.001 A 
HETATM   27  C   UNL     1      44.222 -13.316   8.465  1.00  0.00     0.014 A 
ENDBRANCH   6  22
TORSDOF 5
ENDMDL
