MODEL 1
REMARK VINA RESULT:      -7.6      0.000      0.000
REMARK  6 active torsions:
REMARK  status: ('A' for Active; 'I' for Inactive)
REMARK    1  A    between atoms: C_2  and  N_3 
REMARK    2  A    between atoms: C_2  and  C_16 
REMARK    3  A    between atoms: N_3  and  C_6 
REMARK    4  A    between atoms: C_16  and  C_17 
REMARK       I    between atoms: C_17  and  N_18 
REMARK    5  A    between atoms: N_18  and  C_19 
REMARK    6  A    between atoms: C_21  and  O_22 
ROOT
HETATM    1  C   UNL     1      39.978 -16.250   1.847  1.00  0.00     0.040 C 
HETATM    2  C   UNL     1      41.376 -15.705   1.584  1.00  0.00     0.191 C 
ENDROOT
BRANCH   2   3
HETATM    3  N   UNL     1      42.107 -15.476   2.887  1.00  0.00    -0.063 N 
HETATM    4  H   UNL     1      42.820 -16.235   2.957  1.00  0.00     0.278 HD
HETATM    5  H   UNL     1      42.674 -14.627   2.768  1.00  0.00     0.278 HD
BRANCH   3   6
HETATM    6  C   UNL     1      41.373 -15.390   4.200  1.00  0.00     0.221 C 
HETATM    7  C   UNL     1      42.116 -15.996   5.360  1.00  0.00    -0.011 A 
HETATM    8  C   UNL     1      43.247 -15.351   5.882  1.00  0.00     0.009 A 
HETATM    9  C   UNL     1      41.684 -17.203   5.940  1.00  0.00     0.011 A 
HETATM   10  C   UNL     1      43.967 -15.942   6.923  1.00  0.00     0.019 A 
HETATM   11  S   UNL     1      43.829 -13.810   5.208  1.00  0.00    -0.129 SA
HETATM   12  C   UNL     1      43.545 -17.151   7.476  1.00  0.00     0.001 A 
HETATM   13  C   UNL     1      42.399 -17.777   6.991  1.00  0.00     0.001 A 
HETATM   14  C   UNL     1      42.275 -13.012   4.688  1.00  0.00     0.082 C 
HETATM   15  C   UNL     1      41.062 -13.923   4.519  1.00  0.00     0.048 C 
ENDBRANCH   3   6
ENDBRANCH   2   3
BRANCH   2  16
HETATM   16  C   UNL     1      42.159 -16.567   0.586  1.00  0.00     0.135 C 
BRANCH  16  17
HETATM   17  C   UNL     1      43.171 -17.438   1.298  1.00  0.00     0.224 C 
HETATM   18  N   UNL     1      42.619 -18.581   1.830  1.00  0.00    -0.327 N 
HETATM   19  H   UNL     1      41.608 -18.648   1.861  1.00  0.00     0.169 HD
HETATM   20  O   UNL     1      44.336 -17.058   1.389  1.00  0.00    -0.273 OA
BRANCH  18  21
HETATM   21  C   UNL     1      43.306 -19.629   2.482  1.00  0.00     0.037 A 
HETATM   22  C   UNL     1      43.719 -19.573   3.817  1.00  0.00     0.066 A 
HETATM   23  C   UNL     1      44.430 -20.639   4.378  1.00  0.00     0.070 A 
HETATM   24  C   UNL     1      44.682 -21.783   3.621  1.00  0.00     0.037 A 
HETATM   25  C   UNL     1      44.278 -21.846   2.290  1.00  0.00     0.005 A 
HETATM   26  C   UNL     1      43.605 -20.765   1.718  1.00  0.00     0.029 A 
BRANCH  23  27
HETATM   27  O   UNL     1      44.899 -20.678   5.663  1.00  0.00    -0.356 OA
HETATM   28  C   UNL     1      43.987 -21.187   6.630  1.00  0.00     0.210 C 
ENDBRANCH  23  27
ENDBRANCH  18  21
ENDBRANCH  16  17
ENDBRANCH   2  16
TORSDOF 6
ENDMDL
MODEL 2
REMARK VINA RESULT:      -7.6      3.139      6.793
REMARK  6 active torsions:
REMARK  status: ('A' for Active; 'I' for Inactive)
REMARK    1  A    between atoms: C_2  and  N_3 
REMARK    2  A    between atoms: C_2  and  C_16 
REMARK    3  A    between atoms: N_3  and  C_6 
REMARK    4  A    between atoms: C_16  and  C_17 
REMARK       I    between atoms: C_17  and  N_18 
REMARK    5  A    between atoms: N_18  and  C_19 
REMARK    6  A    between atoms: C_21  and  O_22 
ROOT
HETATM    1  C   UNL     1      43.065 -14.141   4.752  1.00  0.00     0.040 C 
HETATM    2  C   UNL     1      43.096 -15.072   3.547  1.00  0.00     0.191 C 
ENDROOT
BRANCH   2   3
HETATM    3  N   UNL     1      43.579 -16.445   3.953  1.00  0.00    -0.063 N 
HETATM    4  H   UNL     1      44.392 -16.661   3.336  1.00  0.00     0.278 HD
HETATM    5  H   UNL     1      44.005 -16.350   4.884  1.00  0.00     0.278 HD
BRANCH   3   6
HETATM    6  C   UNL     1      42.658 -17.638   3.960  1.00  0.00     0.221 C 
HETATM    7  C   UNL     1      43.302 -18.914   3.489  1.00  0.00    -0.011 A 
HETATM    8  C   UNL     1      44.246 -19.563   4.299  1.00  0.00     0.009 A 
HETATM    9  C   UNL     1      42.961 -19.475   2.245  1.00  0.00     0.011 A 
HETATM   10  C   UNL     1      44.882 -20.718   3.838  1.00  0.00     0.019 A 
HETATM   11  S   UNL     1      44.701 -18.916   5.893  1.00  0.00    -0.129 SA
HETATM   12  C   UNL     1      44.555 -21.255   2.593  1.00  0.00     0.001 A 
HETATM   13  C   UNL     1      43.589 -20.639   1.800  1.00  0.00     0.001 A 
HETATM   14  C   UNL     1      43.143 -18.151   6.452  1.00  0.00     0.082 C 
HETATM   15  C   UNL     1      42.104 -17.851   5.374  1.00  0.00     0.048 C 
ENDBRANCH   3   6
ENDBRANCH   2   3
BRANCH   2  16
HETATM   16  C   UNL     1      41.762 -15.091   2.791  1.00  0.00     0.135 C 
BRANCH  16  17
HETATM   17  C   UNL     1      41.983 -15.235   1.301  1.00  0.00     0.224 C 
HETATM   18  N   UNL     1      41.269 -14.322   0.560  1.00  0.00    -0.327 N 
HETATM   19  H   UNL     1      40.553 -13.783   1.034  1.00  0.00     0.169 HD
HETATM   20  O   UNL     1      42.703 -16.138   0.883  1.00  0.00    -0.273 OA
BRANCH  18  21
HETATM   21  C   UNL     1      41.318 -14.144  -0.841  1.00  0.00     0.037 A 
HETATM   22  C   UNL     1      40.681 -14.992  -1.752  1.00  0.00     0.066 A 
HETATM   23  C   UNL     1      40.811 -14.771  -3.128  1.00  0.00     0.070 A 
HETATM   24  C   UNL     1      41.533 -13.671  -3.591  1.00  0.00     0.037 A 
HETATM   25  C   UNL     1      42.173 -12.823  -2.690  1.00  0.00     0.005 A 
HETATM   26  C   UNL     1      42.078 -13.069  -1.320  1.00  0.00     0.029 A 
BRANCH  23  27
HETATM   27  O   UNL     1      40.249 -15.550  -4.103  1.00  0.00    -0.356 OA
HETATM   28  C   UNL     1      38.836 -15.702  -4.024  1.00  0.00     0.210 C 
ENDBRANCH  23  27
ENDBRANCH  18  21
ENDBRANCH  16  17
ENDBRANCH   2  16
TORSDOF 6
ENDMDL
MODEL 3
REMARK VINA RESULT:      -7.0      3.435      7.094
REMARK  6 active torsions:
REMARK  status: ('A' for Active; 'I' for Inactive)
REMARK    1  A    between atoms: C_2  and  N_3 
REMARK    2  A    between atoms: C_2  and  C_16 
REMARK    3  A    between atoms: N_3  and  C_6 
REMARK    4  A    between atoms: C_16  and  C_17 
REMARK       I    between atoms: C_17  and  N_18 
REMARK    5  A    between atoms: N_18  and  C_19 
REMARK    6  A    between atoms: C_21  and  O_22 
ROOT
HETATM    1  C   UNL     1      43.596 -13.980   3.828  1.00  0.00     0.040 C 
HETATM    2  C   UNL     1      43.254 -15.218   3.009  1.00  0.00     0.191 C 
ENDROOT
BRANCH   2   3
HETATM    3  N   UNL     1      43.584 -16.472   3.785  1.00  0.00    -0.063 N 
HETATM    4  H   UNL     1      44.517 -16.790   3.441  1.00  0.00     0.278 HD
HETATM    5  H   UNL     1      43.773 -16.185   4.754  1.00  0.00     0.278 HD
BRANCH   3   6
HETATM    6  C   UNL     1      42.655 -17.658   3.804  1.00  0.00     0.221 C 
HETATM    7  C   UNL     1      43.304 -18.953   3.396  1.00  0.00    -0.011 A 
HETATM    8  C   UNL     1      44.218 -19.581   4.255  1.00  0.00     0.009 A 
HETATM    9  C   UNL     1      42.997 -19.554   2.162  1.00  0.00     0.011 A 
HETATM   10  C   UNL     1      44.860 -20.755   3.852  1.00  0.00     0.019 A 
HETATM   11  S   UNL     1      44.629 -18.883   5.840  1.00  0.00    -0.129 SA
HETATM   12  C   UNL     1      44.567 -21.330   2.616  1.00  0.00     0.001 A 
HETATM   13  C   UNL     1      43.630 -20.736   1.775  1.00  0.00     0.001 A 
HETATM   14  C   UNL     1      43.061 -18.091   6.325  1.00  0.00     0.082 C 
HETATM   15  C   UNL     1      42.057 -17.820   5.206  1.00  0.00     0.048 C 
ENDBRANCH   3   6
ENDBRANCH   2   3
BRANCH   2  16
HETATM   16  C   UNL     1      41.816 -15.187   2.478  1.00  0.00     0.135 C 
BRANCH  16  17
HETATM   17  C   UNL     1      41.791 -15.304   0.970  1.00  0.00     0.224 C 
HETATM   18  N   UNL     1      41.327 -14.167   0.348  1.00  0.00    -0.327 N 
HETATM   19  H   UNL     1      40.891 -13.457   0.926  1.00  0.00     0.169 HD
HETATM   20  O   UNL     1      42.119 -16.364   0.441  1.00  0.00    -0.273 OA
BRANCH  18  21
HETATM   21  C   UNL     1      41.256 -13.930  -1.042  1.00  0.00     0.037 A 
HETATM   22  C   UNL     1      42.041 -12.984  -1.709  1.00  0.00     0.066 A 
HETATM   23  C   UNL     1      41.882 -12.782  -3.084  1.00  0.00     0.070 A 
HETATM   24  C   UNL     1      40.977 -13.563  -3.802  1.00  0.00     0.037 A 
HETATM   25  C   UNL     1      40.189 -14.505  -3.146  1.00  0.00     0.005 A 
HETATM   26  C   UNL     1      40.318 -14.677  -1.767  1.00  0.00     0.029 A 
BRANCH  23  27
HETATM   27  O   UNL     1      42.580 -11.869  -3.828  1.00  0.00    -0.356 OA
HETATM   28  C   UNL     1      42.533 -10.529  -3.350  1.00  0.00     0.210 C 
ENDBRANCH  23  27
ENDBRANCH  18  21
ENDBRANCH  16  17
ENDBRANCH   2  16
TORSDOF 6
ENDMDL
MODEL 4
REMARK VINA RESULT:      -6.9      2.609      5.346
REMARK  6 active torsions:
REMARK  status: ('A' for Active; 'I' for Inactive)
REMARK    1  A    between atoms: C_2  and  N_3 
REMARK    2  A    between atoms: C_2  and  C_16 
REMARK    3  A    between atoms: N_3  and  C_6 
REMARK    4  A    between atoms: C_16  and  C_17 
REMARK       I    between atoms: C_17  and  N_18 
REMARK    5  A    between atoms: N_18  and  C_19 
REMARK    6  A    between atoms: C_21  and  O_22 
ROOT
HETATM    1  C   UNL     1      40.064 -12.830   4.644  1.00  0.00     0.040 C 
HETATM    2  C   UNL     1      40.682 -14.195   4.367  1.00  0.00     0.191 C 
ENDROOT
BRANCH   2   3
HETATM    3  N   UNL     1      40.744 -14.454   2.880  1.00  0.00    -0.063 N 
HETATM    4  H   UNL     1      40.844 -13.520   2.426  1.00  0.00     0.278 HD
HETATM    5  H   UNL     1      41.647 -14.909   2.691  1.00  0.00     0.278 HD
BRANCH   3   6
HETATM    6  C   UNL     1      39.659 -15.217   2.164  1.00  0.00     0.221 C 
HETATM    7  C   UNL     1      39.076 -14.491   0.982  1.00  0.00    -0.011 A 
HETATM    8  C   UNL     1      39.830 -14.346  -0.193  1.00  0.00     0.009 A 
HETATM    9  C   UNL     1      37.774 -13.963   1.032  1.00  0.00     0.011 A 
HETATM   10  C   UNL     1      39.308 -13.626  -1.270  1.00  0.00     0.019 A 
HETATM   11  S   UNL     1      41.474 -15.013  -0.327  1.00  0.00    -0.129 SA
HETATM   12  C   UNL     1      38.025 -13.085  -1.202  1.00  0.00     0.001 A 
HETATM   13  C   UNL     1      37.254 -13.260  -0.056  1.00  0.00     0.001 A 
HETATM   14  C   UNL     1      41.362 -16.512   0.705  1.00  0.00     0.082 C 
HETATM   15  C   UNL     1      40.204 -16.572   1.699  1.00  0.00     0.048 C 
ENDBRANCH   3   6
ENDBRANCH   2   3
BRANCH   2  16
HETATM   16  C   UNL     1      42.029 -14.379   5.078  1.00  0.00     0.135 C 
BRANCH  16  17
HETATM   17  C   UNL     1      42.873 -15.421   4.379  1.00  0.00     0.224 C 
HETATM   18  N   UNL     1      42.793 -16.663   4.967  1.00  0.00    -0.327 N 
HETATM   19  H   UNL     1      42.348 -16.728   5.875  1.00  0.00     0.169 HD
HETATM   20  O   UNL     1      43.571 -15.091   3.423  1.00  0.00    -0.273 OA
BRANCH  18  21
HETATM   21  C   UNL     1      43.395 -17.857   4.511  1.00  0.00     0.037 A 
HETATM   22  C   UNL     1      43.082 -18.467   3.293  1.00  0.00     0.066 A 
HETATM   23  C   UNL     1      43.695 -19.672   2.932  1.00  0.00     0.070 A 
HETATM   24  C   UNL     1      44.661 -20.238   3.764  1.00  0.00     0.037 A 
HETATM   25  C   UNL     1      44.976 -19.640   4.981  1.00  0.00     0.005 A 
HETATM   26  C   UNL     1      44.333 -18.460   5.360  1.00  0.00     0.029 A 
BRANCH  23  27
HETATM   27  O   UNL     1      43.446 -20.362   1.776  1.00  0.00    -0.356 OA
HETATM   28  C   UNL     1      43.930 -21.701   1.749  1.00  0.00     0.210 C 
ENDBRANCH  23  27
ENDBRANCH  18  21
ENDBRANCH  16  17
ENDBRANCH   2  16
TORSDOF 6
ENDMDL
MODEL 5
REMARK VINA RESULT:      -6.9      2.550      6.090
REMARK  6 active torsions:
REMARK  status: ('A' for Active; 'I' for Inactive)
REMARK    1  A    between atoms: C_2  and  N_3 
REMARK    2  A    between atoms: C_2  and  C_16 
REMARK    3  A    between atoms: N_3  and  C_6 
REMARK    4  A    between atoms: C_16  and  C_17 
REMARK       I    between atoms: C_17  and  N_18 
REMARK    5  A    between atoms: N_18  and  C_19 
REMARK    6  A    between atoms: C_21  and  O_22 
ROOT
HETATM    1  C   UNL     1      40.696 -14.334   5.772  1.00  0.00     0.040 C 
HETATM    2  C   UNL     1      42.200 -14.091   5.755  1.00  0.00     0.191 C 
ENDROOT
BRANCH   2   3
HETATM    3  N   UNL     1      42.942 -15.397   5.590  1.00  0.00    -0.063 N 
HETATM    4  H   UNL     1      43.518 -15.296   4.726  1.00  0.00     0.278 HD
HETATM    5  H   UNL     1      43.644 -15.441   6.340  1.00  0.00     0.278 HD
BRANCH   3   6
HETATM    6  C   UNL     1      42.218 -16.717   5.528  1.00  0.00     0.221 C 
HETATM    7  C   UNL     1      42.893 -17.748   4.665  1.00  0.00    -0.011 A 
HETATM    8  C   UNL     1      44.082 -18.355   5.098  1.00  0.00     0.009 A 
HETATM    9  C   UNL     1      42.341 -18.125   3.428  1.00  0.00     0.011 A 
HETATM   10  C   UNL     1      44.736 -19.273   4.273  1.00  0.00     0.019 A 
HETATM   11  S   UNL     1      44.817 -17.939   6.665  1.00  0.00    -0.129 SA
HETATM   12  C   UNL     1      44.193 -19.622   3.037  1.00  0.00     0.001 A 
HETATM   13  C   UNL     1      42.992 -19.056   2.618  1.00  0.00     0.001 A 
HETATM   14  C   UNL     1      43.352 -17.581   7.689  1.00  0.00     0.082 C 
HETATM   15  C   UNL     1      42.054 -17.281   6.944  1.00  0.00     0.048 C 
ENDBRANCH   3   6
ENDBRANCH   2   3
BRANCH   2  16
HETATM   16  C   UNL     1      42.606 -13.022   4.734  1.00  0.00     0.135 C 
BRANCH  16  17
HETATM   17  C   UNL     1      42.840 -13.634   3.371  1.00  0.00     0.224 C 
HETATM   18  N   UNL     1      41.695 -13.710   2.610  1.00  0.00    -0.327 N 
HETATM   19  H   UNL     1      40.809 -13.532   3.070  1.00  0.00     0.169 HD
HETATM   20  O   UNL     1      43.961 -14.044   3.077  1.00  0.00    -0.273 OA
BRANCH  18  21
HETATM   21  C   UNL     1      41.594 -14.155   1.274  1.00  0.00     0.037 A 
HETATM   22  C   UNL     1      41.622 -13.300   0.168  1.00  0.00     0.066 A 
HETATM   23  C   UNL     1      41.475 -13.817  -1.124  1.00  0.00     0.070 A 
HETATM   24  C   UNL     1      41.354 -15.194  -1.314  1.00  0.00     0.037 A 
HETATM   25  C   UNL     1      41.322 -16.052  -0.218  1.00  0.00     0.005 A 
HETATM   26  C   UNL     1      41.425 -15.532   1.073  1.00  0.00     0.029 A 
BRANCH  23  27
HETATM   27  O   UNL     1      41.466 -13.069  -2.271  1.00  0.00    -0.356 OA
HETATM   28  C   UNL     1      42.746 -12.797  -2.832  1.00  0.00     0.210 C 
ENDBRANCH  23  27
ENDBRANCH  18  21
ENDBRANCH  16  17
ENDBRANCH   2  16
TORSDOF 6
ENDMDL
MODEL 6
REMARK VINA RESULT:      -6.8      3.735      6.156
REMARK  6 active torsions:
REMARK  status: ('A' for Active; 'I' for Inactive)
REMARK    1  A    between atoms: C_2  and  N_3 
REMARK    2  A    between atoms: C_2  and  C_16 
REMARK    3  A    between atoms: N_3  and  C_6 
REMARK    4  A    between atoms: C_16  and  C_17 
REMARK       I    between atoms: C_17  and  N_18 
REMARK    5  A    between atoms: N_18  and  C_19 
REMARK    6  A    between atoms: C_21  and  O_22 
ROOT
HETATM    1  C   UNL     1      42.412 -14.352   1.806  1.00  0.00     0.040 C 
HETATM    2  C   UNL     1      41.313 -15.016   0.987  1.00  0.00     0.191 C 
ENDROOT
BRANCH   2   3
HETATM    3  N   UNL     1      40.762 -14.051  -0.038  1.00  0.00    -0.063 N 
HETATM    4  H   UNL     1      39.726 -14.169  -0.020  1.00  0.00     0.278 HD
HETATM    5  H   UNL     1      40.901 -13.104   0.337  1.00  0.00     0.278 HD
BRANCH   3   6
HETATM    6  C   UNL     1      41.219 -14.076  -1.473  1.00  0.00     0.221 C 
HETATM    7  C   UNL     1      40.184 -14.586  -2.439  1.00  0.00    -0.011 A 
HETATM    8  C   UNL     1      39.065 -13.799  -2.747  1.00  0.00     0.009 A 
HETATM    9  C   UNL     1      40.329 -15.844  -3.050  1.00  0.00     0.011 A 
HETATM   10  C   UNL     1      38.078 -14.296  -3.602  1.00  0.00     0.019 A 
HETATM   11  S   UNL     1      38.838 -12.188  -2.026  1.00  0.00    -0.129 SA
HETATM   12  C   UNL     1      38.218 -15.555  -4.185  1.00  0.00     0.001 A 
HETATM   13  C   UNL     1      39.346 -16.325  -3.917  1.00  0.00     0.001 A 
HETATM   14  C   UNL     1      40.556 -11.602  -1.855  1.00  0.00     0.082 C 
HETATM   15  C   UNL     1      41.649 -12.667  -1.900  1.00  0.00     0.048 C 
ENDBRANCH   3   6
ENDBRANCH   2   3
BRANCH   2  16
HETATM   16  C   UNL     1      41.760 -16.355   0.388  1.00  0.00     0.135 C 
BRANCH  16  17
HETATM   17  C   UNL     1      41.927 -17.403   1.466  1.00  0.00     0.224 C 
HETATM   18  N   UNL     1      43.131 -18.066   1.393  1.00  0.00    -0.327 N 
HETATM   19  H   UNL     1      43.693 -17.933   0.560  1.00  0.00     0.169 HD
HETATM   20  O   UNL     1      41.006 -17.612   2.253  1.00  0.00    -0.273 OA
BRANCH  18  21
HETATM   21  C   UNL     1      43.619 -19.038   2.294  1.00  0.00     0.037 A 
HETATM   22  C   UNL     1      43.975 -18.760   3.617  1.00  0.00     0.066 A 
HETATM   23  C   UNL     1      44.489 -19.772   4.435  1.00  0.00     0.070 A 
HETATM   24  C   UNL     1      44.598 -21.074   3.946  1.00  0.00     0.037 A 
HETATM   25  C   UNL     1      44.250 -21.359   2.628  1.00  0.00     0.005 A 
HETATM   26  C   UNL     1      43.777 -20.340   1.800  1.00  0.00     0.029 A 
BRANCH  23  27
HETATM   27  O   UNL     1      44.888 -19.603   5.733  1.00  0.00    -0.356 OA
HETATM   28  C   UNL     1      45.057 -18.252   6.148  1.00  0.00     0.210 C 
ENDBRANCH  23  27
ENDBRANCH  18  21
ENDBRANCH  16  17
ENDBRANCH   2  16
TORSDOF 6
ENDMDL
MODEL 7
REMARK VINA RESULT:      -6.8      1.540      2.921
REMARK  6 active torsions:
REMARK  status: ('A' for Active; 'I' for Inactive)
REMARK    1  A    between atoms: C_2  and  N_3 
REMARK    2  A    between atoms: C_2  and  C_16 
REMARK    3  A    between atoms: N_3  and  C_6 
REMARK    4  A    between atoms: C_16  and  C_17 
REMARK       I    between atoms: C_17  and  N_18 
REMARK    5  A    between atoms: N_18  and  C_19 
REMARK    6  A    between atoms: C_21  and  O_22 
ROOT
HETATM    1  C   UNL     1      39.746 -15.147   1.257  1.00  0.00     0.040 C 
HETATM    2  C   UNL     1      41.261 -15.221   1.116  1.00  0.00     0.191 C 
ENDROOT
BRANCH   2   3
HETATM    3  N   UNL     1      41.925 -15.052   2.463  1.00  0.00    -0.063 N 
HETATM    4  H   UNL     1      41.346 -15.593   3.142  1.00  0.00     0.278 HD
HETATM    5  H   UNL     1      42.808 -15.576   2.431  1.00  0.00     0.278 HD
BRANCH   3   6
HETATM    6  C   UNL     1      42.192 -13.689   3.047  1.00  0.00     0.221 C 
HETATM    7  C   UNL     1      41.112 -13.194   3.971  1.00  0.00    -0.011 A 
HETATM    8  C   UNL     1      40.956 -13.772   5.240  1.00  0.00     0.009 A 
HETATM    9  C   UNL     1      40.258 -12.146   3.584  1.00  0.00     0.011 A 
HETATM   10  C   UNL     1      39.920 -13.349   6.076  1.00  0.00     0.019 A 
HETATM   11  S   UNL     1      42.022 -15.085   5.797  1.00  0.00    -0.129 SA
HETATM   12  C   UNL     1      39.063 -12.325   5.674  1.00  0.00     0.001 A 
HETATM   13  C   UNL     1      39.236 -11.718   4.433  1.00  0.00     0.001 A 
HETATM   14  C   UNL     1      43.600 -14.662   4.990  1.00  0.00     0.082 C 
HETATM   15  C   UNL     1      43.526 -13.705   3.802  1.00  0.00     0.048 C 
ENDBRANCH   3   6
ENDBRANCH   2   3
BRANCH   2  16
HETATM   16  C   UNL     1      41.715 -16.478   0.363  1.00  0.00     0.135 C 
BRANCH  16  17
HETATM   17  C   UNL     1      42.820 -17.190   1.112  1.00  0.00     0.224 C 
HETATM   18  N   UNL     1      42.365 -18.250   1.863  1.00  0.00    -0.327 N 
HETATM   19  H   UNL     1      41.363 -18.343   1.992  1.00  0.00     0.169 HD
HETATM   20  O   UNL     1      43.969 -16.764   1.041  1.00  0.00    -0.273 OA
BRANCH  18  21
HETATM   21  C   UNL     1      43.148 -19.158   2.610  1.00  0.00     0.037 A 
HETATM   22  C   UNL     1      43.538 -18.938   3.934  1.00  0.00     0.066 A 
HETATM   23  C   UNL     1      44.350 -19.869   4.592  1.00  0.00     0.070 A 
HETATM   24  C   UNL     1      44.726 -21.045   3.943  1.00  0.00     0.037 A 
HETATM   25  C   UNL     1      44.346 -21.270   2.623  1.00  0.00     0.005 A 
HETATM   26  C   UNL     1      43.572 -20.321   1.954  1.00  0.00     0.029 A 
BRANCH  23  27
HETATM   27  O   UNL     1      44.805 -19.742   5.877  1.00  0.00    -0.356 OA
HETATM   28  C   UNL     1      45.068 -18.408   6.301  1.00  0.00     0.210 C 
ENDBRANCH  23  27
ENDBRANCH  18  21
ENDBRANCH  16  17
ENDBRANCH   2  16
TORSDOF 6
ENDMDL
MODEL 8
REMARK VINA RESULT:      -6.8      3.500      5.998
REMARK  6 active torsions:
REMARK  status: ('A' for Active; 'I' for Inactive)
REMARK    1  A    between atoms: C_2  and  N_3 
REMARK    2  A    between atoms: C_2  and  C_16 
REMARK    3  A    between atoms: N_3  and  C_6 
REMARK    4  A    between atoms: C_16  and  C_17 
REMARK       I    between atoms: C_17  and  N_18 
REMARK    5  A    between atoms: N_18  and  C_19 
REMARK    6  A    between atoms: C_21  and  O_22 
ROOT
HETATM    1  C   UNL     1      40.057 -15.416   1.930  1.00  0.00     0.040 C 
HETATM    2  C   UNL     1      40.641 -15.666   0.545  1.00  0.00     0.191 C 
ENDROOT
BRANCH   2   3
HETATM    3  N   UNL     1      41.400 -14.450   0.066  1.00  0.00    -0.063 N 
HETATM    4  H   UNL     1      40.988 -13.634   0.570  1.00  0.00     0.278 HD
HETATM    5  H   UNL     1      42.349 -14.516   0.454  1.00  0.00     0.278 HD
BRANCH   3   6
HETATM    6  C   UNL     1      41.497 -14.105  -1.398  1.00  0.00     0.221 C 
HETATM    7  C   UNL     1      40.332 -14.583  -2.221  1.00  0.00    -0.011 A 
HETATM    8  C   UNL     1      39.082 -13.958  -2.096  1.00  0.00     0.009 A 
HETATM    9  C   UNL     1      40.480 -15.648  -3.128  1.00  0.00     0.011 A 
HETATM   10  C   UNL     1      37.988 -14.437  -2.820  1.00  0.00     0.019 A 
HETATM   11  S   UNL     1      38.837 -12.590  -0.984  1.00  0.00    -0.129 SA
HETATM   12  C   UNL     1      38.139 -15.509  -3.700  1.00  0.00     0.001 A 
HETATM   13  C   UNL     1      39.385 -16.109  -3.860  1.00  0.00     0.001 A 
HETATM   14  C   UNL     1      40.459 -11.760  -1.039  1.00  0.00     0.082 C 
HETATM   15  C   UNL     1      41.633 -12.587  -1.560  1.00  0.00     0.048 C 
ENDBRANCH   3   6
ENDBRANCH   2   3
BRANCH   2  16
HETATM   16  C   UNL     1      41.458 -16.962   0.483  1.00  0.00     0.135 C 
BRANCH  16  17
HETATM   17  C   UNL     1      42.397 -17.070   1.663  1.00  0.00     0.224 C 
HETATM   18  N   UNL     1      42.133 -18.158   2.465  1.00  0.00    -0.327 N 
HETATM   19  H   UNL     1      41.266 -18.660   2.310  1.00  0.00     0.169 HD
HETATM   20  O   UNL     1      43.246 -16.200   1.841  1.00  0.00    -0.273 OA
BRANCH  18  21
HETATM   21  C   UNL     1      42.872 -18.578   3.592  1.00  0.00     0.037 A 
HETATM   22  C   UNL     1      42.563 -18.207   4.905  1.00  0.00     0.066 A 
HETATM   23  C   UNL     1      43.370 -18.635   5.965  1.00  0.00     0.070 A 
HETATM   24  C   UNL     1      44.454 -19.477   5.719  1.00  0.00     0.037 A 
HETATM   25  C   UNL     1      44.771 -19.849   4.415  1.00  0.00     0.005 A 
HETATM   26  C   UNL     1      43.991 -19.388   3.354  1.00  0.00     0.029 A 
BRANCH  23  27
HETATM   27  O   UNL     1      43.171 -18.312   7.280  1.00  0.00    -0.356 OA
HETATM   28  C   UNL     1      44.210 -18.707   8.169  1.00  0.00     0.210 C 
ENDBRANCH  23  27
ENDBRANCH  18  21
ENDBRANCH  16  17
ENDBRANCH   2  16
TORSDOF 6
ENDMDL
MODEL 9
REMARK VINA RESULT:      -6.7      5.620      7.681
REMARK  6 active torsions:
REMARK  status: ('A' for Active; 'I' for Inactive)
REMARK    1  A    between atoms: C_2  and  N_3 
REMARK    2  A    between atoms: C_2  and  C_16 
REMARK    3  A    between atoms: N_3  and  C_6 
REMARK    4  A    between atoms: C_16  and  C_17 
REMARK       I    between atoms: C_17  and  N_18 
REMARK    5  A    between atoms: N_18  and  C_19 
REMARK    6  A    between atoms: C_21  and  O_22 
ROOT
HETATM    1  C   UNL     1      45.716 -12.150  10.532  1.00  0.00     0.040 C 
HETATM    2  C   UNL     1      44.380 -12.503   9.891  1.00  0.00     0.191 C 
ENDROOT
BRANCH   2   3
HETATM    3  N   UNL     1      43.239 -11.924  10.696  1.00  0.00    -0.063 N 
HETATM    4  H   UNL     1      42.365 -12.326  10.291  1.00  0.00     0.278 HD
HETATM    5  H   UNL     1      43.286 -12.348  11.631  1.00  0.00     0.278 HD
BRANCH   3   6
HETATM    6  C   UNL     1      43.052 -10.437  10.847  1.00  0.00     0.221 C 
HETATM    7  C   UNL     1      41.657  -9.959  10.547  1.00  0.00    -0.011 A 
HETATM    8  C   UNL     1      40.613 -10.241  11.441  1.00  0.00     0.009 A 
HETATM    9  C   UNL     1      41.383  -9.220   9.383  1.00  0.00     0.011 A 
HETATM   10  C   UNL     1      39.309  -9.843  11.136  1.00  0.00     0.019 A 
HETATM   11  S   UNL     1      40.900 -11.150  12.944  1.00  0.00    -0.129 SA
HETATM   12  C   UNL     1      39.044  -9.131   9.967  1.00  0.00     0.001 A 
HETATM   13  C   UNL     1      40.081  -8.812   9.095  1.00  0.00     0.001 A 
HETATM   14  C   UNL     1      42.589 -10.630  13.387  1.00  0.00     0.082 C 
HETATM   15  C   UNL     1      43.430 -10.013  12.271  1.00  0.00     0.048 C 
ENDBRANCH   3   6
ENDBRANCH   2   3
BRANCH   2  16
HETATM   16  C   UNL     1      44.331 -12.132   8.404  1.00  0.00     0.135 C 
BRANCH  16  17
HETATM   17  C   UNL     1      44.710 -13.312   7.536  1.00  0.00     0.224 C 
HETATM   18  N   UNL     1      43.672 -14.195   7.345  1.00  0.00    -0.327 N 
HETATM   19  H   UNL     1      42.844 -14.084   7.919  1.00  0.00     0.169 HD
HETATM   20  O   UNL     1      45.865 -13.417   7.132  1.00  0.00    -0.273 OA
BRANCH  18  21
HETATM   21  C   UNL     1      43.679 -15.347   6.527  1.00  0.00     0.037 A 
HETATM   22  C   UNL     1      44.120 -16.601   6.960  1.00  0.00     0.066 A 
HETATM   23  C   UNL     1      44.133 -17.686   6.075  1.00  0.00     0.070 A 
HETATM   24  C   UNL     1      43.657 -17.528   4.774  1.00  0.00     0.037 A 
HETATM   25  C   UNL     1      43.220 -16.281   4.334  1.00  0.00     0.005 A 
HETATM   26  C   UNL     1      43.246 -15.191   5.204  1.00  0.00     0.029 A 
BRANCH  23  27
HETATM   27  O   UNL     1      44.564 -18.947   6.389  1.00  0.00    -0.356 OA
HETATM   28  C   UNL     1      44.711 -19.833   5.284  1.00  0.00     0.210 C 
ENDBRANCH  23  27
ENDBRANCH  18  21
ENDBRANCH  16  17
ENDBRANCH   2  16
TORSDOF 6
ENDMDL
MODEL 10
REMARK VINA RESULT:      -6.7      3.186      6.568
REMARK  6 active torsions:
REMARK  status: ('A' for Active; 'I' for Inactive)
REMARK    1  A    between atoms: C_2  and  N_3 
REMARK    2  A    between atoms: C_2  and  C_16 
REMARK    3  A    between atoms: N_3  and  C_6 
REMARK    4  A    between atoms: C_16  and  C_17 
REMARK       I    between atoms: C_17  and  N_18 
REMARK    5  A    between atoms: N_18  and  C_19 
REMARK    6  A    between atoms: C_21  and  O_22 
ROOT
HETATM    1  C   UNL     1      44.031 -13.917   4.512  1.00  0.00     0.040 C 
HETATM    2  C   UNL     1      42.631 -14.128   3.949  1.00  0.00     0.191 C 
ENDROOT
BRANCH   2   3
HETATM    3  N   UNL     1      41.742 -14.786   4.978  1.00  0.00    -0.063 N 
HETATM    4  H   UNL     1      42.303 -14.837   5.856  1.00  0.00     0.278 HD
HETATM    5  H   UNL     1      41.000 -14.113   5.208  1.00  0.00     0.278 HD
BRANCH   3   6
HETATM    6  C   UNL     1      41.115 -16.134   4.736  1.00  0.00     0.221 C 
HETATM    7  C   UNL     1      41.931 -17.042   3.857  1.00  0.00    -0.011 A 
HETATM    8  C   UNL     1      43.114 -17.615   4.347  1.00  0.00     0.009 A 
HETATM    9  C   UNL     1      41.518 -17.337   2.545  1.00  0.00     0.011 A 
HETATM   10  C   UNL     1      43.899 -18.415   3.513  1.00  0.00     0.019 A 
HETATM   11  S   UNL     1      43.677 -17.300   6.006  1.00  0.00    -0.129 SA
HETATM   12  C   UNL     1      43.493 -18.682   2.206  1.00  0.00     0.001 A 
HETATM   13  C   UNL     1      42.299 -18.151   1.725  1.00  0.00     0.001 A 
HETATM   14  C   UNL     1      42.107 -17.123   6.914  1.00  0.00     0.082 C 
HETATM   15  C   UNL     1      40.863 -16.832   6.077  1.00  0.00     0.048 C 
ENDBRANCH   3   6
ENDBRANCH   2   3
BRANCH   2  16
HETATM   16  C   UNL     1      42.040 -12.841   3.360  1.00  0.00     0.135 C 
BRANCH  16  17
HETATM   17  C   UNL     1      41.881 -12.952   1.860  1.00  0.00     0.224 C 
HETATM   18  N   UNL     1      40.992 -13.933   1.483  1.00  0.00    -0.327 N 
HETATM   19  H   UNL     1      40.678 -14.585   2.193  1.00  0.00     0.169 HD
HETATM   20  O   UNL     1      42.558 -12.235   1.127  1.00  0.00    -0.273 OA
BRANCH  18  21
HETATM   21  C   UNL     1      40.569 -14.233   0.170  1.00  0.00     0.037 A 
HETATM   22  C   UNL     1      39.427 -13.682  -0.421  1.00  0.00     0.066 A 
HETATM   23  C   UNL     1      39.053 -14.062  -1.715  1.00  0.00     0.070 A 
HETATM   24  C   UNL     1      39.848 -14.951  -2.437  1.00  0.00     0.037 A 
HETATM   25  C   UNL     1      40.984 -15.507  -1.855  1.00  0.00     0.005 A 
HETATM   26  C   UNL     1      41.334 -15.161  -0.549  1.00  0.00     0.029 A 
BRANCH  23  27
HETATM   27  O   UNL     1      37.946 -13.602  -2.376  1.00  0.00    -0.356 OA
HETATM   28  C   UNL     1      37.683 -14.224  -3.630  1.00  0.00     0.210 C 
ENDBRANCH  23  27
ENDBRANCH  18  21
ENDBRANCH  16  17
ENDBRANCH   2  16
TORSDOF 6
ENDMDL
