MODEL 1
REMARK VINA RESULT:      -8.5      0.000      0.000
REMARK  3 active torsions:
REMARK  status: ('A' for Active; 'I' for Inactive)
REMARK    1  A    between atoms: C_9  and  C_10 
REMARK    2  A    between atoms: C_16  and  C_17 
REMARK       I    between atoms: C_17  and  N_18 
REMARK    3  A    between atoms: N_18  and  C_19 
ROOT
HETATM    1  C   UNL     1      40.216 -16.150   1.623  1.00  0.00     0.070 C 
HETATM    2  C   UNL     1      40.374 -15.408   2.928  1.00  0.00     0.037 C 
HETATM    3  N   UNL     1      39.827 -14.127   2.958  1.00  0.00    -0.191 N 
HETATM    4  C   UNL     1      39.658 -13.431   4.102  1.00  0.00     0.735 A 
HETATM    5  N   UNL     1      40.178 -13.922   5.265  1.00  0.00    -0.092 N 
HETATM    6  N   UNL     1      39.846 -13.131   6.295  1.00  0.00     0.012 NA
HETATM    7  N   UNL     1      39.156 -12.138   5.741  1.00  0.00     0.033 NA
HETATM    8  N   UNL     1      39.032 -12.313   4.375  1.00  0.00     0.030 NA
HETATM    9  C   UNL     1      40.948 -15.159   5.374  1.00  0.00     0.199 C 
HETATM   10  C   UNL     1      40.933 -15.925   4.052  1.00  0.00     0.062 C 
HETATM   11  H   UNL     1      39.341 -13.805   2.123  1.00  0.00     0.184 HD
ENDROOT
BRANCH  10  12
HETATM   12  C   UNL     1      41.470 -17.309   4.158  1.00  0.00     0.256 C 
HETATM   13  N   UNL     1      42.599 -17.524   3.403  1.00  0.00    -0.323 N 
HETATM   14  H   UNL     1      42.974 -16.734   2.892  1.00  0.00     0.169 HD
HETATM   15  O   UNL     1      40.913 -18.091   4.919  1.00  0.00    -0.267 OA
BRANCH  13  16
HETATM   16  C   UNL     1      43.296 -18.740   3.234  1.00  0.00     0.035 A 
HETATM   17  C   UNL     1      44.213 -19.249   4.155  1.00  0.00     0.029 A 
HETATM   18  C   UNL     1      44.846 -20.475   3.924  1.00  0.00     0.002 A 
HETATM   19  C   UNL     1      44.562 -21.205   2.773  1.00  0.00     0.000 A 
HETATM   20  C   UNL     1      43.649 -20.707   1.846  1.00  0.00     0.002 A 
HETATM   21  C   UNL     1      43.024 -19.478   2.074  1.00  0.00     0.029 A 
ENDBRANCH  13  16
ENDBRANCH  10  12
BRANCH   9  22
HETATM   22  C   UNL     1      42.360 -14.864   5.846  1.00  0.00    -0.011 A 
HETATM   23  C   UNL     1      43.138 -13.854   5.281  1.00  0.00     0.125 A 
HETATM   24  N   UNL     1      44.409 -13.578   5.646  1.00  0.00    -0.272 NA
HETATM   25  C   UNL     1      44.936 -14.330   6.635  1.00  0.00     0.116 A 
HETATM   26  C   UNL     1      44.255 -15.358   7.263  1.00  0.00     0.020 A 
HETATM   27  C   UNL     1      42.953 -15.633   6.856  1.00  0.00     0.012 A 
ENDBRANCH   9  22
TORSDOF 3
ENDMDL
MODEL 2
REMARK VINA RESULT:      -8.4      2.132      4.064
REMARK  3 active torsions:
REMARK  status: ('A' for Active; 'I' for Inactive)
REMARK    1  A    between atoms: C_9  and  C_10 
REMARK    2  A    between atoms: C_16  and  C_17 
REMARK       I    between atoms: C_17  and  N_18 
REMARK    3  A    between atoms: N_18  and  C_19 
ROOT
HETATM    1  C   UNL     1      42.838 -17.246   7.821  1.00  0.00     0.070 C 
HETATM    2  C   UNL     1      42.826 -16.415   6.562  1.00  0.00     0.037 C 
HETATM    3  N   UNL     1      42.179 -15.184   6.663  1.00  0.00    -0.191 N 
HETATM    4  C   UNL     1      42.289 -14.222   5.723  1.00  0.00     0.735 A 
HETATM    5  N   UNL     1      42.929 -14.504   4.551  1.00  0.00    -0.092 N 
HETATM    6  N   UNL     1      42.999 -13.408   3.782  1.00  0.00     0.012 NA
HETATM    7  N   UNL     1      42.362 -12.473   4.481  1.00  0.00     0.033 NA
HETATM    8  N   UNL     1      41.915 -12.967   5.693  1.00  0.00     0.030 NA
HETATM    9  C   UNL     1      43.497 -15.806   4.205  1.00  0.00     0.199 C 
HETATM   10  C   UNL     1      43.446 -16.754   5.403  1.00  0.00     0.062 C 
HETATM   11  H   UNL     1      41.799 -14.928   7.571  1.00  0.00     0.184 HD
ENDROOT
BRANCH  10  12
HETATM   12  C   UNL     1      44.237 -18.000   5.211  1.00  0.00     0.256 C 
HETATM   13  N   UNL     1      43.610 -18.935   4.420  1.00  0.00    -0.323 N 
HETATM   14  H   UNL     1      42.715 -18.682   4.020  1.00  0.00     0.169 HD
HETATM   15  O   UNL     1      45.354 -18.062   5.709  1.00  0.00    -0.267 OA
BRANCH  13  16
HETATM   16  C   UNL     1      44.064 -20.236   4.113  1.00  0.00     0.035 A 
HETATM   17  C   UNL     1      44.509 -21.153   5.067  1.00  0.00     0.029 A 
HETATM   18  C   UNL     1      44.922 -22.434   4.683  1.00  0.00     0.002 A 
HETATM   19  C   UNL     1      44.888 -22.810   3.343  1.00  0.00     0.000 A 
HETATM   20  C   UNL     1      44.446 -21.903   2.382  1.00  0.00     0.002 A 
HETATM   21  C   UNL     1      44.042 -20.621   2.766  1.00  0.00     0.029 A 
ENDBRANCH  13  16
ENDBRANCH  10  12
BRANCH   9  22
HETATM   22  C   UNL     1      42.794 -16.384   2.990  1.00  0.00    -0.011 A 
HETATM   23  C   UNL     1      41.421 -16.626   2.970  1.00  0.00     0.125 A 
HETATM   24  N   UNL     1      40.759 -17.170   1.925  1.00  0.00    -0.272 NA
HETATM   25  C   UNL     1      41.492 -17.476   0.833  1.00  0.00     0.116 A 
HETATM   26  C   UNL     1      42.859 -17.280   0.747  1.00  0.00     0.020 A 
HETATM   27  C   UNL     1      43.518 -16.735   1.844  1.00  0.00     0.012 A 
ENDBRANCH   9  22
TORSDOF 3
ENDMDL
MODEL 3
REMARK VINA RESULT:      -8.1      1.973      4.160
REMARK  3 active torsions:
REMARK  status: ('A' for Active; 'I' for Inactive)
REMARK    1  A    between atoms: C_9  and  C_10 
REMARK    2  A    between atoms: C_16  and  C_17 
REMARK       I    between atoms: C_17  and  N_18 
REMARK    3  A    between atoms: N_18  and  C_19 
ROOT
HETATM    1  C   UNL     1      43.501 -18.469   8.123  1.00  0.00     0.070 C 
HETATM    2  C   UNL     1      43.539 -17.185   7.330  1.00  0.00     0.037 C 
HETATM    3  N   UNL     1      43.894 -16.047   8.051  1.00  0.00    -0.191 N 
HETATM    4  C   UNL     1      44.217 -14.878   7.459  1.00  0.00     0.735 A 
HETATM    5  N   UNL     1      44.047 -14.744   6.111  1.00  0.00    -0.092 N 
HETATM    6  N   UNL     1      44.489 -13.546   5.702  1.00  0.00     0.012 NA
HETATM    7  N   UNL     1      44.889 -12.942   6.818  1.00  0.00     0.033 NA
HETATM    8  N   UNL     1      44.726 -13.762   7.920  1.00  0.00     0.030 NA
HETATM    9  C   UNL     1      43.503 -15.778   5.234  1.00  0.00     0.199 C 
HETATM   10  C   UNL     1      43.326 -17.093   5.993  1.00  0.00     0.062 C 
HETATM   11  H   UNL     1      44.128 -16.168   9.034  1.00  0.00     0.184 HD
ENDROOT
BRANCH  10  12
HETATM   12  C   UNL     1      43.028 -18.255   5.111  1.00  0.00     0.256 C 
HETATM   13  N   UNL     1      44.151 -18.907   4.658  1.00  0.00    -0.323 N 
HETATM   14  H   UNL     1      45.048 -18.573   4.988  1.00  0.00     0.169 HD
HETATM   15  O   UNL     1      41.855 -18.550   4.916  1.00  0.00    -0.267 OA
BRANCH  13  16
HETATM   16  C   UNL     1      44.203 -19.990   3.755  1.00  0.00     0.035 A 
HETATM   17  C   UNL     1      44.665 -21.264   4.088  1.00  0.00     0.029 A 
HETATM   18  C   UNL     1      44.664 -22.292   3.139  1.00  0.00     0.002 A 
HETATM   19  C   UNL     1      44.195 -22.055   1.849  1.00  0.00     0.000 A 
HETATM   20  C   UNL     1      43.733 -20.787   1.504  1.00  0.00     0.002 A 
HETATM   21  C   UNL     1      43.742 -19.759   2.451  1.00  0.00     0.029 A 
ENDBRANCH  13  16
ENDBRANCH  10  12
BRANCH   9  22
HETATM   22  C   UNL     1      42.206 -15.307   4.600  1.00  0.00    -0.011 A 
HETATM   23  C   UNL     1      42.057 -15.180   3.220  1.00  0.00     0.125 A 
HETATM   24  N   UNL     1      40.934 -14.733   2.615  1.00  0.00    -0.272 NA
HETATM   25  C   UNL     1      39.897 -14.411   3.416  1.00  0.00     0.116 A 
HETATM   26  C   UNL     1      39.938 -14.497   4.797  1.00  0.00     0.020 A 
HETATM   27  C   UNL     1      41.112 -14.943   5.395  1.00  0.00     0.012 A 
ENDBRANCH   9  22
TORSDOF 3
ENDMDL
MODEL 4
REMARK VINA RESULT:      -8.1      1.991      3.767
REMARK  3 active torsions:
REMARK  status: ('A' for Active; 'I' for Inactive)
REMARK    1  A    between atoms: C_9  and  C_10 
REMARK    2  A    between atoms: C_16  and  C_17 
REMARK       I    between atoms: C_17  and  N_18 
REMARK    3  A    between atoms: N_18  and  C_19 
ROOT
HETATM    1  C   UNL     1      40.921 -16.681   6.662  1.00  0.00     0.070 C 
HETATM    2  C   UNL     1      40.743 -15.434   5.831  1.00  0.00     0.037 C 
HETATM    3  N   UNL     1      39.844 -14.499   6.341  1.00  0.00    -0.191 N 
HETATM    4  C   UNL     1      39.753 -13.239   5.866  1.00  0.00     0.735 A 
HETATM    5  N   UNL     1      40.451 -12.897   4.743  1.00  0.00    -0.092 N 
HETATM    6  N   UNL     1      40.291 -11.593   4.473  1.00  0.00     0.012 NA
HETATM    7  N   UNL     1      39.459 -11.160   5.416  1.00  0.00     0.033 NA
HETATM    8  N   UNL     1      39.117 -12.176   6.290  1.00  0.00     0.030 NA
HETATM    9  C   UNL     1      41.291 -13.813   3.975  1.00  0.00     0.199 C 
HETATM   10  C   UNL     1      41.434 -15.152   4.697  1.00  0.00     0.062 C 
HETATM   11  H   UNL     1      39.407 -14.708   7.236  1.00  0.00     0.184 HD
ENDROOT
BRANCH  10  12
HETATM   12  C   UNL     1      42.478 -16.037   4.112  1.00  0.00     0.256 C 
HETATM   13  N   UNL     1      42.058 -17.333   3.919  1.00  0.00    -0.323 N 
HETATM   14  H   UNL     1      41.096 -17.550   4.148  1.00  0.00     0.169 HD
HETATM   15  O   UNL     1      43.559 -15.544   3.816  1.00  0.00    -0.267 OA
BRANCH  13  16
HETATM   16  C   UNL     1      42.830 -18.421   3.455  1.00  0.00     0.035 A 
HETATM   17  C   UNL     1      42.756 -18.934   2.160  1.00  0.00     0.029 A 
HETATM   18  C   UNL     1      43.572 -20.002   1.771  1.00  0.00     0.002 A 
HETATM   19  C   UNL     1      44.473 -20.561   2.672  1.00  0.00     0.000 A 
HETATM   20  C   UNL     1      44.555 -20.057   3.969  1.00  0.00     0.002 A 
HETATM   21  C   UNL     1      43.733 -18.996   4.359  1.00  0.00     0.029 A 
ENDBRANCH  13  16
ENDBRANCH  10  12
BRANCH   9  22
HETATM   22  C   UNL     1      40.743 -13.980   2.569  1.00  0.00    -0.011 A 
HETATM   23  C   UNL     1      41.483 -13.641   1.437  1.00  0.00     0.125 A 
HETATM   24  N   UNL     1      41.025 -13.741   0.170  1.00  0.00    -0.272 NA
HETATM   25  C   UNL     1      39.772 -14.219   0.011  1.00  0.00     0.116 A 
HETATM   26  C   UNL     1      38.950 -14.582   1.064  1.00  0.00     0.020 A 
HETATM   27  C   UNL     1      39.441 -14.453   2.360  1.00  0.00     0.012 A 
ENDBRANCH   9  22
TORSDOF 3
ENDMDL
MODEL 5
REMARK VINA RESULT:      -7.7      2.415      4.307
REMARK  3 active torsions:
REMARK  status: ('A' for Active; 'I' for Inactive)
REMARK    1  A    between atoms: C_9  and  C_10 
REMARK    2  A    between atoms: C_16  and  C_17 
REMARK       I    between atoms: C_17  and  N_18 
REMARK    3  A    between atoms: N_18  and  C_19 
ROOT
HETATM    1  C   UNL     1      43.620 -17.523   1.158  1.00  0.00     0.070 C 
HETATM    2  C   UNL     1      42.486 -16.529   1.209  1.00  0.00     0.037 C 
HETATM    3  N   UNL     1      42.214 -15.869   0.011  1.00  0.00    -0.191 N 
HETATM    4  C   UNL     1      41.093 -15.145  -0.186  1.00  0.00     0.735 A 
HETATM    5  N   UNL     1      40.255 -14.912   0.866  1.00  0.00    -0.092 N 
HETATM    6  N   UNL     1      39.168 -14.242   0.458  1.00  0.00     0.012 NA
HETATM    7  N   UNL     1      39.375 -14.036  -0.840  1.00  0.00     0.033 NA
HETATM    8  N   UNL     1      40.570 -14.594  -1.254  1.00  0.00     0.030 NA
HETATM    9  C   UNL     1      40.490 -15.370   2.234  1.00  0.00     0.199 C 
HETATM   10  C   UNL     1      41.700 -16.302   2.292  1.00  0.00     0.062 C 
HETATM   11  H   UNL     1      42.770 -16.126  -0.802  1.00  0.00     0.184 HD
ENDROOT
BRANCH  10  12
HETATM   12  C   UNL     1      41.843 -17.012   3.593  1.00  0.00     0.256 C 
HETATM   13  N   UNL     1      42.866 -16.528   4.376  1.00  0.00    -0.323 N 
HETATM   14  H   UNL     1      43.384 -15.732   4.026  1.00  0.00     0.169 HD
HETATM   15  O   UNL     1      41.039 -17.895   3.865  1.00  0.00    -0.267 OA
BRANCH  13  16
HETATM   16  C   UNL     1      43.300 -17.033   5.621  1.00  0.00     0.035 A 
HETATM   17  C   UNL     1      42.737 -16.676   6.847  1.00  0.00     0.029 A 
HETATM   18  C   UNL     1      43.211 -17.240   8.037  1.00  0.00     0.002 A 
HETATM   19  C   UNL     1      44.248 -18.169   8.009  1.00  0.00     0.000 A 
HETATM   20  C   UNL     1      44.818 -18.532   6.791  1.00  0.00     0.002 A 
HETATM   21  C   UNL     1      44.349 -17.962   5.604  1.00  0.00     0.029 A 
ENDBRANCH  13  16
ENDBRANCH  10  12
BRANCH   9  22
HETATM   22  C   UNL     1      40.638 -14.185   3.171  1.00  0.00    -0.011 A 
HETATM   23  C   UNL     1      41.612 -13.206   2.984  1.00  0.00     0.125 A 
HETATM   24  N   UNL     1      41.801 -12.153   3.810  1.00  0.00    -0.272 NA
HETATM   25  C   UNL     1      40.971 -12.054   4.870  1.00  0.00     0.116 A 
HETATM   26  C   UNL     1      39.974 -12.971   5.152  1.00  0.00     0.020 A 
HETATM   27  C   UNL     1      39.812 -14.055   4.295  1.00  0.00     0.012 A 
ENDBRANCH   9  22
TORSDOF 3
ENDMDL
MODEL 6
REMARK VINA RESULT:      -7.5      1.482      2.080
REMARK  3 active torsions:
REMARK  status: ('A' for Active; 'I' for Inactive)
REMARK    1  A    between atoms: C_9  and  C_10 
REMARK    2  A    between atoms: C_16  and  C_17 
REMARK       I    between atoms: C_17  and  N_18 
REMARK    3  A    between atoms: N_18  and  C_19 
ROOT
HETATM    1  C   UNL     1      41.302 -15.819  -0.416  1.00  0.00     0.070 C 
HETATM    2  C   UNL     1      41.081 -15.006   0.836  1.00  0.00     0.037 C 
HETATM    3  N   UNL     1      40.729 -13.673   0.630  1.00  0.00    -0.191 N 
HETATM    4  C   UNL     1      40.257 -12.881   1.616  1.00  0.00     0.735 A 
HETATM    5  N   UNL     1      40.263 -13.341   2.901  1.00  0.00    -0.092 N 
HETATM    6  N   UNL     1      39.692 -12.445   3.720  1.00  0.00     0.012 NA
HETATM    7  N   UNL     1      39.378 -11.425   2.926  1.00  0.00     0.033 NA
HETATM    8  N   UNL     1      39.725 -11.684   1.612  1.00  0.00     0.030 NA
HETATM    9  C   UNL     1      40.778 -14.644   3.316  1.00  0.00     0.199 C 
HETATM   10  C   UNL     1      41.134 -15.498   2.100  1.00  0.00     0.062 C 
HETATM   11  H   UNL     1      40.617 -13.361  -0.332  1.00  0.00     0.184 HD
ENDROOT
BRANCH  10  12
HETATM   12  C   UNL     1      41.414 -16.922   2.432  1.00  0.00     0.256 C 
HETATM   13  N   UNL     1      42.756 -17.221   2.494  1.00  0.00    -0.323 N 
HETATM   14  H   UNL     1      43.409 -16.461   2.352  1.00  0.00     0.169 HD
HETATM   15  O   UNL     1      40.466 -17.661   2.665  1.00  0.00    -0.267 OA
BRANCH  13  16
HETATM   16  C   UNL     1      43.339 -18.488   2.711  1.00  0.00     0.035 A 
HETATM   17  C   UNL     1      43.323 -19.525   1.778  1.00  0.00     0.029 A 
HETATM   18  C   UNL     1      43.944 -20.746   2.062  1.00  0.00     0.002 A 
HETATM   19  C   UNL     1      44.592 -20.937   3.279  1.00  0.00     0.000 A 
HETATM   20  C   UNL     1      44.614 -19.909   4.219  1.00  0.00     0.002 A 
HETATM   21  C   UNL     1      43.985 -18.693   3.937  1.00  0.00     0.029 A 
ENDBRANCH  13  16
ENDBRANCH  10  12
BRANCH   9  22
HETATM   22  C   UNL     1      41.956 -14.473   4.258  1.00  0.00    -0.011 A 
HETATM   23  C   UNL     1      43.096 -13.753   3.900  1.00  0.00     0.125 A 
HETATM   24  N   UNL     1      44.181 -13.603   4.691  1.00  0.00    -0.272 NA
HETATM   25  C   UNL     1      44.130 -14.181   5.910  1.00  0.00     0.116 A 
HETATM   26  C   UNL     1      43.052 -14.919   6.365  1.00  0.00     0.020 A 
HETATM   27  C   UNL     1      41.954 -15.072   5.523  1.00  0.00     0.012 A 
ENDBRANCH   9  22
TORSDOF 3
ENDMDL
MODEL 7
REMARK VINA RESULT:      -7.3      4.194      6.419
REMARK  3 active torsions:
REMARK  status: ('A' for Active; 'I' for Inactive)
REMARK    1  A    between atoms: C_9  and  C_10 
REMARK    2  A    between atoms: C_16  and  C_17 
REMARK       I    between atoms: C_17  and  N_18 
REMARK    3  A    between atoms: N_18  and  C_19 
ROOT
HETATM    1  C   UNL     1      41.281 -12.661   3.079  1.00  0.00     0.070 C 
HETATM    2  C   UNL     1      41.561 -12.557   1.600  1.00  0.00     0.037 C 
HETATM    3  N   UNL     1      41.738 -11.263   1.114  1.00  0.00    -0.191 N 
HETATM    4  C   UNL     1      42.236 -11.005  -0.114  1.00  0.00     0.735 A 
HETATM    5  N   UNL     1      42.434 -12.039  -0.984  1.00  0.00    -0.092 N 
HETATM    6  N   UNL     1      42.999 -11.594  -2.116  1.00  0.00     0.012 NA
HETATM    7  N   UNL     1      43.101 -10.280  -1.940  1.00  0.00     0.033 NA
HETATM    8  N   UNL     1      42.630  -9.900  -0.696  1.00  0.00     0.030 NA
HETATM    9  C   UNL     1      42.119 -13.437  -0.699  1.00  0.00     0.199 C 
HETATM   10  C   UNL     1      41.714 -13.615   0.763  1.00  0.00     0.062 C 
HETATM   11  H   UNL     1      41.698 -10.500   1.786  1.00  0.00     0.184 HD
ENDROOT
BRANCH  10  12
HETATM   12  C   UNL     1      41.634 -15.039   1.191  1.00  0.00     0.256 C 
HETATM   13  N   UNL     1      42.800 -15.516   1.743  1.00  0.00    -0.323 N 
HETATM   14  H   UNL     1      43.569 -14.865   1.842  1.00  0.00     0.169 HD
HETATM   15  O   UNL     1      40.564 -15.622   1.069  1.00  0.00    -0.267 OA
BRANCH  13  16
HETATM   16  C   UNL     1      43.064 -16.834   2.173  1.00  0.00     0.035 A 
HETATM   17  C   UNL     1      42.902 -17.274   3.488  1.00  0.00     0.029 A 
HETATM   18  C   UNL     1      43.164 -18.605   3.830  1.00  0.00     0.002 A 
HETATM   19  C   UNL     1      43.585 -19.509   2.858  1.00  0.00     0.000 A 
HETATM   20  C   UNL     1      43.751 -19.082   1.543  1.00  0.00     0.002 A 
HETATM   21  C   UNL     1      43.497 -17.749   1.204  1.00  0.00     0.029 A 
ENDBRANCH  13  16
ENDBRANCH  10  12
BRANCH   9  22
HETATM   22  C   UNL     1      41.050 -13.943  -1.652  1.00  0.00    -0.011 A 
HETATM   23  C   UNL     1      41.334 -14.847  -2.675  1.00  0.00     0.125 A 
HETATM   24  N   UNL     1      40.423 -15.298  -3.566  1.00  0.00    -0.272 NA
HETATM   25  C   UNL     1      39.159 -14.844  -3.427  1.00  0.00     0.116 A 
HETATM   26  C   UNL     1      38.769 -13.945  -2.450  1.00  0.00     0.020 A 
HETATM   27  C   UNL     1      39.731 -13.483  -1.556  1.00  0.00     0.012 A 
ENDBRANCH   9  22
TORSDOF 3
ENDMDL
MODEL 8
REMARK VINA RESULT:      -7.3      2.710      5.580
REMARK  3 active torsions:
REMARK  status: ('A' for Active; 'I' for Inactive)
REMARK    1  A    between atoms: C_9  and  C_10 
REMARK    2  A    between atoms: C_16  and  C_17 
REMARK       I    between atoms: C_17  and  N_18 
REMARK    3  A    between atoms: N_18  and  C_19 
ROOT
HETATM    1  C   UNL     1      43.156 -19.789   2.063  1.00  0.00     0.070 C 
HETATM    2  C   UNL     1      43.336 -18.931   3.291  1.00  0.00     0.037 C 
HETATM    3  N   UNL     1      43.471 -19.627   4.492  1.00  0.00    -0.191 N 
HETATM    4  C   UNL     1      43.885 -19.039   5.634  1.00  0.00     0.735 A 
HETATM    5  N   UNL     1      44.034 -17.683   5.670  1.00  0.00    -0.092 N 
HETATM    6  N   UNL     1      44.519 -17.298   6.860  1.00  0.00     0.012 NA
HETATM    7  N   UNL     1      44.623 -18.428   7.555  1.00  0.00     0.033 NA
HETATM    8  N   UNL     1      44.232 -19.520   6.802  1.00  0.00     0.030 NA
HETATM    9  C   UNL     1      43.749 -16.784   4.554  1.00  0.00     0.199 C 
HETATM   10  C   UNL     1      43.442 -17.578   3.285  1.00  0.00     0.062 C 
HETATM   11  H   UNL     1      43.471 -20.644   4.447  1.00  0.00     0.184 HD
ENDROOT
BRANCH  10  12
HETATM   12  C   UNL     1      43.401 -16.742   2.054  1.00  0.00     0.256 C 
HETATM   13  N   UNL     1      42.167 -16.184   1.806  1.00  0.00    -0.323 N 
HETATM   14  H   UNL     1      41.435 -16.355   2.485  1.00  0.00     0.169 HD
HETATM   15  O   UNL     1      44.438 -16.586   1.422  1.00  0.00    -0.267 OA
BRANCH  13  16
HETATM   16  C   UNL     1      41.789 -15.410   0.689  1.00  0.00     0.035 A 
HETATM   17  C   UNL     1      41.831 -14.015   0.655  1.00  0.00     0.029 A 
HETATM   18  C   UNL     1      41.460 -13.321  -0.501  1.00  0.00     0.002 A 
HETATM   19  C   UNL     1      41.049 -14.015  -1.635  1.00  0.00     0.000 A 
HETATM   20  C   UNL     1      41.002 -15.407  -1.613  1.00  0.00     0.002 A 
HETATM   21  C   UNL     1      41.365 -16.100  -0.455  1.00  0.00     0.029 A 
ENDBRANCH  13  16
ENDBRANCH  10  12
BRANCH   9  22
HETATM   22  C   UNL     1      42.623 -15.831   4.915  1.00  0.00    -0.011 A 
HETATM   23  C   UNL     1      42.786 -14.447   4.896  1.00  0.00     0.125 A 
HETATM   24  N   UNL     1      41.825 -13.563   5.242  1.00  0.00    -0.272 NA
HETATM   25  C   UNL     1      40.631 -14.074   5.610  1.00  0.00     0.116 A 
HETATM   26  C   UNL     1      40.362 -15.430   5.668  1.00  0.00     0.020 A 
HETATM   27  C   UNL     1      41.376 -16.319   5.323  1.00  0.00     0.012 A 
ENDBRANCH   9  22
TORSDOF 3
ENDMDL
MODEL 9
REMARK VINA RESULT:      -7.2      2.177      3.338
REMARK  3 active torsions:
REMARK  status: ('A' for Active; 'I' for Inactive)
REMARK    1  A    between atoms: C_9  and  C_10 
REMARK    2  A    between atoms: C_16  and  C_17 
REMARK       I    between atoms: C_17  and  N_18 
REMARK    3  A    between atoms: N_18  and  C_19 
ROOT
HETATM    1  C   UNL     1      41.325 -15.605  -1.053  1.00  0.00     0.070 C 
HETATM    2  C   UNL     1      40.612 -14.754  -0.031  1.00  0.00     0.037 C 
HETATM    3  N   UNL     1      40.111 -13.543  -0.506  1.00  0.00    -0.191 N 
HETATM    4  C   UNL     1      39.243 -12.785   0.197  1.00  0.00     0.735 A 
HETATM    5  N   UNL     1      38.953 -13.126   1.487  1.00  0.00    -0.092 N 
HETATM    6  N   UNL     1      38.022 -12.301   1.989  1.00  0.00     0.012 NA
HETATM    7  N   UNL     1      37.783 -11.436   1.007  1.00  0.00     0.033 NA
HETATM    8  N   UNL     1      38.537 -11.727  -0.115  1.00  0.00     0.030 NA
HETATM    9  C   UNL     1      39.540 -14.258   2.200  1.00  0.00     0.199 C 
HETATM   10  C   UNL     1      40.378 -15.118   1.255  1.00  0.00     0.062 C 
HETATM   11  H   UNL     1      40.233 -13.341  -1.496  1.00  0.00     0.184 HD
ENDROOT
BRANCH  10  12
HETATM   12  C   UNL     1      40.790 -16.422   1.843  1.00  0.00     0.256 C 
HETATM   13  N   UNL     1      42.117 -16.472   2.201  1.00  0.00    -0.323 N 
HETATM   14  H   UNL     1      42.665 -15.630   2.074  1.00  0.00     0.169 HD
HETATM   15  O   UNL     1      39.935 -17.285   2.000  1.00  0.00    -0.267 OA
BRANCH  13  16
HETATM   16  C   UNL     1      42.823 -17.583   2.711  1.00  0.00     0.035 A 
HETATM   17  C   UNL     1      43.099 -17.778   4.065  1.00  0.00     0.029 A 
HETATM   18  C   UNL     1      43.786 -18.919   4.493  1.00  0.00     0.002 A 
HETATM   19  C   UNL     1      44.197 -19.877   3.571  1.00  0.00     0.000 A 
HETATM   20  C   UNL     1      43.928 -19.693   2.217  1.00  0.00     0.002 A 
HETATM   21  C   UNL     1      43.249 -18.549   1.789  1.00  0.00     0.029 A 
ENDBRANCH  13  16
ENDBRANCH  10  12
BRANCH   9  22
HETATM   22  C   UNL     1      40.345 -13.772   3.392  1.00  0.00    -0.011 A 
HETATM   23  C   UNL     1      39.974 -14.057   4.706  1.00  0.00     0.125 A 
HETATM   24  N   UNL     1      40.640 -13.618   5.796  1.00  0.00    -0.272 NA
HETATM   25  C   UNL     1      41.743 -12.871   5.577  1.00  0.00     0.116 A 
HETATM   26  C   UNL     1      42.199 -12.527   4.316  1.00  0.00     0.020 A 
HETATM   27  C   UNL     1      41.484 -12.978   3.211  1.00  0.00     0.012 A 
ENDBRANCH   9  22
TORSDOF 3
ENDMDL
MODEL 10
REMARK VINA RESULT:      -7.1      2.636      6.486
REMARK  3 active torsions:
REMARK  status: ('A' for Active; 'I' for Inactive)
REMARK    1  A    between atoms: C_9  and  C_10 
REMARK    2  A    between atoms: C_16  and  C_17 
REMARK       I    between atoms: C_17  and  N_18 
REMARK    3  A    between atoms: N_18  and  C_19 
ROOT
HETATM    1  C   UNL     1      41.074 -17.054   1.159  1.00  0.00     0.070 C 
HETATM    2  C   UNL     1      42.096 -17.833   1.951  1.00  0.00     0.037 C 
HETATM    3  N   UNL     1      42.149 -19.199   1.679  1.00  0.00    -0.191 N 
HETATM    4  C   UNL     1      43.156 -19.990   2.104  1.00  0.00     0.735 A 
HETATM    5  N   UNL     1      44.087 -19.481   2.964  1.00  0.00    -0.092 N 
HETATM    6  N   UNL     1      45.040 -20.390   3.212  1.00  0.00     0.012 NA
HETATM    7  N   UNL     1      44.657 -21.465   2.528  1.00  0.00     0.033 NA
HETATM    8  N   UNL     1      43.485 -21.229   1.834  1.00  0.00     0.030 NA
HETATM    9  C   UNL     1      44.068 -18.121   3.500  1.00  0.00     0.199 C 
HETATM   10  C   UNL     1      42.979 -17.288   2.826  1.00  0.00     0.062 C 
HETATM   11  H   UNL     1      41.529 -19.558   0.956  1.00  0.00     0.184 HD
ENDROOT
BRANCH  10  12
HETATM   12  C   UNL     1      43.069 -15.833   3.126  1.00  0.00     0.256 C 
HETATM   13  N   UNL     1      42.017 -15.357   3.875  1.00  0.00    -0.323 N 
HETATM   14  H   UNL     1      41.321 -16.027   4.178  1.00  0.00     0.169 HD
HETATM   15  O   UNL     1      44.058 -15.221   2.742  1.00  0.00    -0.267 OA
BRANCH  13  16
HETATM   16  C   UNL     1      41.777 -14.020   4.257  1.00  0.00     0.035 A 
HETATM   17  C   UNL     1      41.247 -13.048   3.407  1.00  0.00     0.029 A 
HETATM   18  C   UNL     1      41.017 -11.748   3.870  1.00  0.00     0.002 A 
HETATM   19  C   UNL     1      41.311 -11.410   5.188  1.00  0.00     0.000 A 
HETATM   20  C   UNL     1      41.842 -12.372   6.045  1.00  0.00     0.002 A 
HETATM   21  C   UNL     1      42.079 -13.668   5.579  1.00  0.00     0.029 A 
ENDBRANCH  13  16
ENDBRANCH  10  12
BRANCH   9  22
HETATM   22  C   UNL     1      43.912 -18.149   5.010  1.00  0.00    -0.011 A 
HETATM   23  C   UNL     1      42.663 -18.189   5.627  1.00  0.00     0.125 A 
HETATM   24  N   UNL     1      42.475 -18.181   6.966  1.00  0.00    -0.272 NA
HETATM   25  C   UNL     1      43.583 -18.150   7.736  1.00  0.00     0.116 A 
HETATM   26  C   UNL     1      44.870 -18.106   7.228  1.00  0.00     0.020 A 
HETATM   27  C   UNL     1      45.034 -18.097   5.846  1.00  0.00     0.012 A 
ENDBRANCH   9  22
TORSDOF 3
ENDMDL
