MODEL 1
REMARK VINA RESULT:      -8.6      0.000      0.000
REMARK  4 active torsions:
REMARK  status: ('A' for Active; 'I' for Inactive)
REMARK    1  A    between atoms: C_3  and  C_4 
REMARK    2  A    between atoms: C_5  and  C_6 
REMARK       I    between atoms: C_6  and  N_7 
REMARK    3  A    between atoms: N_7  and  C_8 
REMARK    4  A    between atoms: C_15  and  C_16 
REMARK       I    between atoms: C_16  and  N_17 
ROOT
HETATM    1  C   UNL     1      41.224 -16.579   1.110  1.00  0.00     0.035 A 
HETATM    2  C   UNL     1      41.452 -16.059  -0.172  1.00  0.00     0.046 A 
HETATM    3  C   UNL     1      40.892 -14.813  -0.530  1.00  0.00     0.030 A 
HETATM    4  C   UNL     1      40.119 -14.132   0.403  1.00  0.00     0.063 A 
HETATM    5  N   UNL     1      39.725 -12.983  -0.222  1.00  0.00    -0.277 N 
HETATM    6  H   UNL     1      39.147 -12.243   0.162  1.00  0.00     0.189 HD
HETATM    7  N   UNL     1      40.173 -12.851  -1.481  1.00  0.00    -0.168 NA
HETATM    8  C   UNL     1      40.895 -13.977  -1.687  1.00  0.00     0.156 A 
HETATM    9  C   UNL     1      39.866 -14.621   1.686  1.00  0.00     0.034 A 
HETATM   10  C   UNL     1      40.435 -15.858   2.017  1.00  0.00     0.032 A 
ENDROOT
BRANCH   1  11
HETATM   11  N   UNL     1      41.743 -17.811   1.562  1.00  0.00    -0.327 N 
HETATM   12  C   UNL     1      43.046 -18.102   1.895  1.00  0.00     0.227 C 
HETATM   13  O   UNL     1      43.993 -17.330   1.922  1.00  0.00    -0.273 OA
HETATM   14  H   UNL     1      41.075 -18.562   1.664  1.00  0.00     0.169 HD
BRANCH  12  15
HETATM   15  C   UNL     1      43.285 -19.505   2.337  1.00  0.00     0.087 A 
HETATM   16  C   UNL     1      43.526 -19.871   3.794  1.00  0.00     0.034 A 
HETATM   17  C   UNL     1      44.616 -20.055   2.759  1.00  0.00     0.025 A 
BRANCH  16  18
HETATM   18  C   UNL     1      43.758 -18.870   4.918  1.00  0.00    -0.031 A 
HETATM   19  C   UNL     1      45.046 -18.658   5.445  1.00  0.00     0.009 A 
HETATM   20  C   UNL     1      45.286 -17.741   6.474  1.00  0.00     0.001 A 
HETATM   21  C   UNL     1      44.242 -16.982   6.990  1.00  0.00     0.002 A 
HETATM   22  C   UNL     1      42.963 -17.134   6.467  1.00  0.00     0.024 A 
HETATM   23  C   UNL     1      42.727 -18.059   5.442  1.00  0.00     0.040 A 
HETATM   24 CL   UNL     1      41.113 -18.143   4.817  1.00  0.00    -0.084 Cl
ENDBRANCH  16  18
ENDBRANCH  12  15
ENDBRANCH   1  11
BRANCH   8  25
HETATM   25  C   UNL     1      41.565 -14.224  -2.972  1.00  0.00     0.270 C 
HETATM   26  N   UNL     1      42.793 -13.629  -3.084  1.00  0.00    -0.365 N 
HETATM   27  H   UNL     1      43.141 -13.085  -2.304  1.00  0.00     0.159 HD
HETATM   28  H   UNL     1      43.330 -13.750  -3.928  1.00  0.00     0.159 HD
HETATM   29  O   UNL     1      41.101 -14.897  -3.886  1.00  0.00    -0.266 OA
ENDBRANCH   8  25
TORSDOF 4
ENDMDL
MODEL 2
REMARK VINA RESULT:      -8.5      2.309      3.716
REMARK  4 active torsions:
REMARK  status: ('A' for Active; 'I' for Inactive)
REMARK    1  A    between atoms: C_3  and  C_4 
REMARK    2  A    between atoms: C_5  and  C_6 
REMARK       I    between atoms: C_6  and  N_7 
REMARK    3  A    between atoms: N_7  and  C_8 
REMARK    4  A    between atoms: C_15  and  C_16 
REMARK       I    between atoms: C_16  and  N_17 
ROOT
HETATM    1  C   UNL     1      41.919 -15.695   3.935  1.00  0.00     0.035 A 
HETATM    2  C   UNL     1      41.902 -15.548   2.541  1.00  0.00     0.046 A 
HETATM    3  C   UNL     1      40.878 -14.790   1.932  1.00  0.00     0.030 A 
HETATM    4  C   UNL     1      39.904 -14.209   2.736  1.00  0.00     0.063 A 
HETATM    5  N   UNL     1      39.069 -13.553   1.877  1.00  0.00    -0.277 N 
HETATM    6  H   UNL     1      38.243 -13.015   2.115  1.00  0.00     0.189 HD
HETATM    7  N   UNL     1      39.411 -13.651   0.582  1.00  0.00    -0.168 NA
HETATM    8  C   UNL     1      40.528 -14.416   0.599  1.00  0.00     0.156 A 
HETATM    9  C   UNL     1      39.886 -14.339   4.126  1.00  0.00     0.034 A 
HETATM   10  C   UNL     1      40.914 -15.094   4.705  1.00  0.00     0.032 A 
ENDROOT
BRANCH   1  11
HETATM   11  N   UNL     1      42.901 -16.429   4.636  1.00  0.00    -0.327 N 
HETATM   12  C   UNL     1      42.757 -17.654   5.245  1.00  0.00     0.227 C 
HETATM   13  O   UNL     1      41.766 -18.370   5.244  1.00  0.00    -0.273 OA
HETATM   14  H   UNL     1      43.819 -16.010   4.681  1.00  0.00     0.169 HD
BRANCH  12  15
HETATM   15  C   UNL     1      43.984 -18.174   5.912  1.00  0.00     0.087 A 
HETATM   16  C   UNL     1      44.859 -19.251   5.287  1.00  0.00     0.034 A 
HETATM   17  C   UNL     1      44.098 -19.519   6.569  1.00  0.00     0.025 A 
BRANCH  16  18
HETATM   18  C   UNL     1      44.495 -20.059   4.048  1.00  0.00    -0.031 A 
HETATM   19  C   UNL     1      44.042 -19.424   2.877  1.00  0.00     0.009 A 
HETATM   20  C   UNL     1      43.706 -20.143   1.724  1.00  0.00     0.001 A 
HETATM   21  C   UNL     1      43.842 -21.525   1.700  1.00  0.00     0.002 A 
HETATM   22  C   UNL     1      44.324 -22.185   2.825  1.00  0.00     0.024 A 
HETATM   23  C   UNL     1      44.652 -21.461   3.978  1.00  0.00     0.040 A 
HETATM   24 CL   UNL     1      45.295 -22.360   5.313  1.00  0.00    -0.084 Cl
ENDBRANCH  16  18
ENDBRANCH  12  15
ENDBRANCH   1  11
BRANCH   8  25
HETATM   25  C   UNL     1      41.227 -14.766  -0.645  1.00  0.00     0.270 C 
HETATM   26  N   UNL     1      41.271 -16.111  -0.902  1.00  0.00    -0.365 N 
HETATM   27  H   UNL     1      40.834 -16.743  -0.243  1.00  0.00     0.159 HD
HETATM   28  H   UNL     1      41.725 -16.444  -1.737  1.00  0.00     0.159 HD
HETATM   29  O   UNL     1      41.738 -13.958  -1.413  1.00  0.00    -0.266 OA
ENDBRANCH   8  25
TORSDOF 4
ENDMDL
MODEL 3
REMARK VINA RESULT:      -8.2      3.628      5.028
REMARK  4 active torsions:
REMARK  status: ('A' for Active; 'I' for Inactive)
REMARK    1  A    between atoms: C_3  and  C_4 
REMARK    2  A    between atoms: C_5  and  C_6 
REMARK       I    between atoms: C_6  and  N_7 
REMARK    3  A    between atoms: N_7  and  C_8 
REMARK    4  A    between atoms: C_15  and  C_16 
REMARK       I    between atoms: C_16  and  N_17 
ROOT
HETATM    1  C   UNL     1      41.529 -15.321   3.891  1.00  0.00     0.035 A 
HETATM    2  C   UNL     1      40.916 -14.075   3.698  1.00  0.00     0.046 A 
HETATM    3  C   UNL     1      40.196 -13.480   4.758  1.00  0.00     0.030 A 
HETATM    4  C   UNL     1      40.110 -14.152   5.971  1.00  0.00     0.063 A 
HETATM    5  N   UNL     1      39.367 -13.342   6.782  1.00  0.00    -0.277 N 
HETATM    6  H   UNL     1      39.103 -13.515   7.746  1.00  0.00     0.189 HD
HETATM    7  N   UNL     1      38.961 -12.198   6.208  1.00  0.00    -0.168 NA
HETATM    8  C   UNL     1      39.465 -12.269   4.954  1.00  0.00     0.156 A 
HETATM    9  C   UNL     1      40.702 -15.396   6.197  1.00  0.00     0.034 A 
HETATM   10  C   UNL     1      41.412 -15.964   5.131  1.00  0.00     0.032 A 
ENDROOT
BRANCH   1  11
HETATM   11  N   UNL     1      42.271 -15.994   2.896  1.00  0.00    -0.327 N 
HETATM   12  C   UNL     1      41.902 -17.115   2.188  1.00  0.00     0.227 C 
HETATM   13  O   UNL     1      40.835 -17.708   2.243  1.00  0.00    -0.273 OA
HETATM   14  H   UNL     1      43.170 -15.595   2.669  1.00  0.00     0.169 HD
BRANCH  12  15
HETATM   15  C   UNL     1      42.909 -17.595   1.200  1.00  0.00     0.087 A 
HETATM   16  C   UNL     1      43.900 -18.705   1.519  1.00  0.00     0.034 A 
HETATM   17  C   UNL     1      44.378 -17.292   1.257  1.00  0.00     0.025 A 
BRANCH  16  18
HETATM   18  C   UNL     1      44.127 -19.300   2.902  1.00  0.00    -0.031 A 
HETATM   19  C   UNL     1      44.037 -18.502   4.057  1.00  0.00     0.009 A 
HETATM   20  C   UNL     1      44.236 -19.025   5.340  1.00  0.00     0.001 A 
HETATM   21  C   UNL     1      44.505 -20.378   5.507  1.00  0.00     0.002 A 
HETATM   22  C   UNL     1      44.562 -21.207   4.393  1.00  0.00     0.024 A 
HETATM   23  C   UNL     1      44.369 -20.676   3.111  1.00  0.00     0.040 A 
HETATM   24 CL   UNL     1      44.406 -21.792   1.785  1.00  0.00    -0.084 Cl
ENDBRANCH  16  18
ENDBRANCH  12  15
ENDBRANCH   1  11
BRANCH   8  25
HETATM   25  C   UNL     1      39.239 -11.190   3.983  1.00  0.00     0.270 C 
HETATM   26  N   UNL     1      37.917 -10.924   3.741  1.00  0.00    -0.365 N 
HETATM   27  H   UNL     1      37.217 -11.466   4.231  1.00  0.00     0.159 HD
HETATM   28  H   UNL     1      37.666 -10.194   3.094  1.00  0.00     0.159 HD
HETATM   29  O   UNL     1      40.125 -10.559   3.418  1.00  0.00    -0.266 OA
ENDBRANCH   8  25
TORSDOF 4
ENDMDL
MODEL 4
REMARK VINA RESULT:      -8.2      3.286      4.754
REMARK  4 active torsions:
REMARK  status: ('A' for Active; 'I' for Inactive)
REMARK    1  A    between atoms: C_3  and  C_4 
REMARK    2  A    between atoms: C_5  and  C_6 
REMARK       I    between atoms: C_6  and  N_7 
REMARK    3  A    between atoms: N_7  and  C_8 
REMARK    4  A    between atoms: C_15  and  C_16 
REMARK       I    between atoms: C_16  and  N_17 
ROOT
HETATM    1  C   UNL     1      41.746 -16.075   3.555  1.00  0.00     0.035 A 
HETATM    2  C   UNL     1      41.255 -14.791   3.827  1.00  0.00     0.046 A 
HETATM    3  C   UNL     1      40.219 -14.256   3.029  1.00  0.00     0.030 A 
HETATM    4  C   UNL     1      39.714 -15.021   1.984  1.00  0.00     0.063 A 
HETATM    5  N   UNL     1      38.743 -14.253   1.409  1.00  0.00    -0.277 N 
HETATM    6  H   UNL     1      38.160 -14.494   0.615  1.00  0.00     0.189 HD
HETATM    7  N   UNL     1      38.566 -13.053   1.985  1.00  0.00    -0.168 NA
HETATM    8  C   UNL     1      39.475 -13.039   2.988  1.00  0.00     0.156 A 
HETATM    9  C   UNL     1      40.183 -16.301   1.681  1.00  0.00     0.034 A 
HETATM   10  C   UNL     1      41.209 -16.809   2.489  1.00  0.00     0.032 A 
ENDROOT
BRANCH   1  11
HETATM   11  N   UNL     1      42.775 -16.696   4.296  1.00  0.00    -0.327 N 
HETATM   12  C   UNL     1      42.659 -17.750   5.174  1.00  0.00     0.227 C 
HETATM   13  O   UNL     1      41.651 -18.390   5.432  1.00  0.00    -0.273 OA
HETATM   14  H   UNL     1      43.706 -16.331   4.154  1.00  0.00     0.169 HD
BRANCH  12  15
HETATM   15  C   UNL     1      43.935 -18.183   5.811  1.00  0.00     0.087 A 
HETATM   16  C   UNL     1      44.846 -19.229   5.184  1.00  0.00     0.034 A 
HETATM   17  C   UNL     1      44.145 -19.499   6.500  1.00  0.00     0.025 A 
BRANCH  16  18
HETATM   18  C   UNL     1      44.485 -20.092   3.983  1.00  0.00    -0.031 A 
HETATM   19  C   UNL     1      43.992 -19.513   2.798  1.00  0.00     0.009 A 
HETATM   20  C   UNL     1      43.658 -20.283   1.678  1.00  0.00     0.001 A 
HETATM   21  C   UNL     1      43.835 -21.661   1.701  1.00  0.00     0.002 A 
HETATM   22  C   UNL     1      44.358 -22.265   2.839  1.00  0.00     0.024 A 
HETATM   23  C   UNL     1      44.684 -21.490   3.959  1.00  0.00     0.040 A 
HETATM   24 CL   UNL     1      45.378 -22.320   5.313  1.00  0.00    -0.084 Cl
ENDBRANCH  16  18
ENDBRANCH  12  15
ENDBRANCH   1  11
BRANCH   8  25
HETATM   25  C   UNL     1      39.607 -11.875   3.876  1.00  0.00     0.270 C 
HETATM   26  N   UNL     1      39.079 -12.063   5.126  1.00  0.00    -0.365 N 
HETATM   27  H   UNL     1      38.654 -12.956   5.342  1.00  0.00     0.159 HD
HETATM   28  H   UNL     1      39.130 -11.321   5.805  1.00  0.00     0.159 HD
HETATM   29  O   UNL     1      40.136 -10.814   3.565  1.00  0.00    -0.266 OA
ENDBRANCH   8  25
TORSDOF 4
ENDMDL
MODEL 5
REMARK VINA RESULT:      -8.1      3.230      7.464
REMARK  4 active torsions:
REMARK  status: ('A' for Active; 'I' for Inactive)
REMARK    1  A    between atoms: C_3  and  C_4 
REMARK    2  A    between atoms: C_5  and  C_6 
REMARK       I    between atoms: C_6  and  N_7 
REMARK    3  A    between atoms: N_7  and  C_8 
REMARK    4  A    between atoms: C_15  and  C_16 
REMARK       I    between atoms: C_16  and  N_17 
ROOT
HETATM    1  C   UNL     1      43.480 -18.114   2.500  1.00  0.00     0.035 A 
HETATM    2  C   UNL     1      43.571 -18.244   3.893  1.00  0.00     0.046 A 
HETATM    3  C   UNL     1      44.011 -19.464   4.453  1.00  0.00     0.030 A 
HETATM    4  C   UNL     1      44.339 -20.513   3.602  1.00  0.00     0.063 A 
HETATM    5  N   UNL     1      44.723 -21.537   4.420  1.00  0.00    -0.277 N 
HETATM    6  H   UNL     1      45.031 -22.462   4.142  1.00  0.00     0.189 HD
HETATM    7  N   UNL     1      44.676 -21.251   5.731  1.00  0.00    -0.168 NA
HETATM    8  C   UNL     1      44.235 -19.972   5.768  1.00  0.00     0.156 A 
HETATM    9  C   UNL     1      44.255 -20.421   2.211  1.00  0.00     0.034 A 
HETATM   10  C   UNL     1      43.819 -19.200   1.681  1.00  0.00     0.032 A 
ENDROOT
BRANCH   1  11
HETATM   11  N   UNL     1      43.055 -16.936   1.847  1.00  0.00    -0.327 N 
HETATM   12  C   UNL     1      41.821 -16.681   1.296  1.00  0.00     0.227 C 
HETATM   13  O   UNL     1      40.835 -17.404   1.320  1.00  0.00    -0.273 OA
HETATM   14  H   UNL     1      43.734 -16.191   1.793  1.00  0.00     0.169 HD
BRANCH  12  15
HETATM   15  C   UNL     1      41.677 -15.337   0.669  1.00  0.00     0.087 A 
HETATM   16  C   UNL     1      41.482 -14.070   1.490  1.00  0.00     0.034 A 
HETATM   17  C   UNL     1      40.389 -14.571   0.569  1.00  0.00     0.025 A 
BRANCH  16  18
HETATM   18  C   UNL     1      41.207 -14.036   2.987  1.00  0.00    -0.031 A 
HETATM   19  C   UNL     1      39.893 -14.128   3.484  1.00  0.00     0.009 A 
HETATM   20  C   UNL     1      39.613 -14.104   4.855  1.00  0.00     0.001 A 
HETATM   21  C   UNL     1      40.649 -14.015   5.777  1.00  0.00     0.002 A 
HETATM   22  C   UNL     1      41.963 -13.962   5.326  1.00  0.00     0.024 A 
HETATM   23  C   UNL     1      42.236 -13.979   3.952  1.00  0.00     0.040 A 
HETATM   24 CL   UNL     1      43.905 -13.963   3.484  1.00  0.00    -0.084 Cl
ENDBRANCH  16  18
ENDBRANCH  12  15
ENDBRANCH   1  11
BRANCH   8  25
HETATM   25  C   UNL     1      44.041 -19.272   7.046  1.00  0.00     0.270 C 
HETATM   26  N   UNL     1      43.669 -20.090   8.079  1.00  0.00    -0.365 N 
HETATM   27  H   UNL     1      43.560 -21.080   7.898  1.00  0.00     0.159 HD
HETATM   28  H   UNL     1      43.521 -19.698   8.995  1.00  0.00     0.159 HD
HETATM   29  O   UNL     1      44.190 -18.067   7.213  1.00  0.00    -0.266 OA
ENDBRANCH   8  25
TORSDOF 4
ENDMDL
MODEL 6
REMARK VINA RESULT:      -7.8      4.194      6.018
REMARK  4 active torsions:
REMARK  status: ('A' for Active; 'I' for Inactive)
REMARK    1  A    between atoms: C_3  and  C_4 
REMARK    2  A    between atoms: C_5  and  C_6 
REMARK       I    between atoms: C_6  and  N_7 
REMARK    3  A    between atoms: N_7  and  C_8 
REMARK    4  A    between atoms: C_15  and  C_16 
REMARK       I    between atoms: C_16  and  N_17 
ROOT
HETATM    1  C   UNL     1      43.262 -14.803   5.129  1.00  0.00     0.035 A 
HETATM    2  C   UNL     1      42.754 -13.721   5.862  1.00  0.00     0.046 A 
HETATM    3  C   UNL     1      42.168 -12.630   5.181  1.00  0.00     0.030 A 
HETATM    4  C   UNL     1      42.115 -12.657   3.792  1.00  0.00     0.063 A 
HETATM    5  N   UNL     1      41.504 -11.490   3.431  1.00  0.00    -0.277 N 
HETATM    6  H   UNL     1      41.297 -11.171   2.490  1.00  0.00     0.189 HD
HETATM    7  N   UNL     1      41.151 -10.702   4.459  1.00  0.00    -0.168 NA
HETATM    8  C   UNL     1      41.557 -11.394   5.550  1.00  0.00     0.156 A 
HETATM    9  C   UNL     1      42.616 -13.714   3.030  1.00  0.00     0.034 A 
HETATM   10  C   UNL     1      43.189 -14.784   3.730  1.00  0.00     0.032 A 
ENDROOT
BRANCH   1  11
HETATM   11  N   UNL     1      43.861 -15.937   5.718  1.00  0.00    -0.327 N 
HETATM   12  C   UNL     1      43.239 -17.086   6.149  1.00  0.00     0.227 C 
HETATM   13  O   UNL     1      42.054 -17.370   6.048  1.00  0.00    -0.273 OA
HETATM   14  H   UNL     1      44.865 -15.904   5.821  1.00  0.00     0.169 HD
BRANCH  12  15
HETATM   15  C   UNL     1      44.148 -18.112   6.735  1.00  0.00     0.087 A 
HETATM   16  C   UNL     1      44.775 -19.219   5.900  1.00  0.00     0.034 A 
HETATM   17  C   UNL     1      43.773 -19.543   6.989  1.00  0.00     0.025 A 
BRANCH  16  18
HETATM   18  C   UNL     1      44.405 -19.540   4.458  1.00  0.00    -0.031 A 
HETATM   19  C   UNL     1      44.028 -18.521   3.563  1.00  0.00     0.009 A 
HETATM   20  C   UNL     1      43.688 -18.788   2.233  1.00  0.00     0.001 A 
HETATM   21  C   UNL     1      43.743 -20.089   1.746  1.00  0.00     0.002 A 
HETATM   22  C   UNL     1      44.149 -21.117   2.589  1.00  0.00     0.024 A 
HETATM   23  C   UNL     1      44.482 -20.845   3.922  1.00  0.00     0.040 A 
HETATM   24 CL   UNL     1      45.028 -22.179   4.884  1.00  0.00    -0.084 Cl
ENDBRANCH  16  18
ENDBRANCH  12  15
ENDBRANCH   1  11
BRANCH   8  25
HETATM   25  C   UNL     1      41.353 -10.862   6.905  1.00  0.00     0.270 C 
HETATM   26  N   UNL     1      40.389 -11.518   7.623  1.00  0.00    -0.365 N 
HETATM   27  H   UNL     1      39.906 -12.294   7.188  1.00  0.00     0.159 HD
HETATM   28  H   UNL     1      40.186 -11.228   8.565  1.00  0.00     0.159 HD
HETATM   29  O   UNL     1      41.970  -9.918   7.387  1.00  0.00    -0.266 OA
ENDBRANCH   8  25
TORSDOF 4
ENDMDL
MODEL 7
REMARK VINA RESULT:      -7.7      3.255      7.197
REMARK  4 active torsions:
REMARK  status: ('A' for Active; 'I' for Inactive)
REMARK    1  A    between atoms: C_3  and  C_4 
REMARK    2  A    between atoms: C_5  and  C_6 
REMARK       I    between atoms: C_6  and  N_7 
REMARK    3  A    between atoms: N_7  and  C_8 
REMARK    4  A    between atoms: C_15  and  C_16 
REMARK       I    between atoms: C_16  and  N_17 
ROOT
HETATM    1  C   UNL     1      42.074 -17.862   2.520  1.00  0.00     0.035 A 
HETATM    2  C   UNL     1      42.618 -17.942   3.809  1.00  0.00     0.046 A 
HETATM    3  C   UNL     1      43.607 -18.911   4.090  1.00  0.00     0.030 A 
HETATM    4  C   UNL     1      44.013 -19.769   3.075  1.00  0.00     0.063 A 
HETATM    5  N   UNL     1      44.960 -20.576   3.639  1.00  0.00    -0.277 N 
HETATM    6  H   UNL     1      45.476 -21.324   3.189  1.00  0.00     0.189 HD
HETATM    7  N   UNL     1      45.211 -20.321   4.933  1.00  0.00    -0.168 NA
HETATM    8  C   UNL     1      44.380 -19.295   5.228  1.00  0.00     0.156 A 
HETATM    9  C   UNL     1      43.488 -19.722   1.782  1.00  0.00     0.034 A 
HETATM   10  C   UNL     1      42.512 -18.750   1.529  1.00  0.00     0.032 A 
ENDROOT
BRANCH   1  11
HETATM   11  N   UNL     1      41.086 -16.927   2.142  1.00  0.00    -0.327 N 
HETATM   12  C   UNL     1      41.197 -15.917   1.214  1.00  0.00     0.227 C 
HETATM   13  O   UNL     1      42.155 -15.675   0.494  1.00  0.00    -0.273 OA
HETATM   14  H   UNL     1      40.190 -17.021   2.597  1.00  0.00     0.169 HD
BRANCH  12  15
HETATM   15  C   UNL     1      39.973 -15.086   1.037  1.00  0.00     0.087 A 
HETATM   16  C   UNL     1      39.627 -13.933   1.967  1.00  0.00     0.034 A 
HETATM   17  C   UNL     1      38.750 -15.166   1.904  1.00  0.00     0.025 A 
BRANCH  16  18
HETATM   18  C   UNL     1      40.344 -13.623   3.275  1.00  0.00    -0.031 A 
HETATM   19  C   UNL     1      39.832 -14.073   4.506  1.00  0.00     0.009 A 
HETATM   20  C   UNL     1      40.474 -13.806   5.720  1.00  0.00     0.001 A 
HETATM   21  C   UNL     1      41.671 -13.101   5.736  1.00  0.00     0.002 A 
HETATM   22  C   UNL     1      42.230 -12.675   4.537  1.00  0.00     0.024 A 
HETATM   23  C   UNL     1      41.579 -12.939   3.325  1.00  0.00     0.040 A 
HETATM   24 CL   UNL     1      42.374 -12.416   1.876  1.00  0.00    -0.084 Cl
ENDBRANCH  16  18
ENDBRANCH  12  15
ENDBRANCH   1  11
BRANCH   8  25
HETATM   25  C   UNL     1      44.345 -18.709   6.576  1.00  0.00     0.270 C 
HETATM   26  N   UNL     1      45.358 -17.822   6.826  1.00  0.00    -0.365 N 
HETATM   27  H   UNL     1      46.031 -17.638   6.093  1.00  0.00     0.159 HD
HETATM   28  H   UNL     1      45.410 -17.366   7.722  1.00  0.00     0.159 HD
HETATM   29  O   UNL     1      43.501 -18.964   7.428  1.00  0.00    -0.266 OA
ENDBRANCH   8  25
TORSDOF 4
ENDMDL
MODEL 8
REMARK VINA RESULT:      -7.7      1.883      2.996
REMARK  4 active torsions:
REMARK  status: ('A' for Active; 'I' for Inactive)
REMARK    1  A    between atoms: C_3  and  C_4 
REMARK    2  A    between atoms: C_5  and  C_6 
REMARK       I    between atoms: C_6  and  N_7 
REMARK    3  A    between atoms: N_7  and  C_8 
REMARK    4  A    between atoms: C_15  and  C_16 
REMARK       I    between atoms: C_16  and  N_17 
ROOT
HETATM    1  C   UNL     1      41.656 -16.297   1.170  1.00  0.00     0.035 A 
HETATM    2  C   UNL     1      41.445 -15.225   2.048  1.00  0.00     0.046 A 
HETATM    3  C   UNL     1      41.069 -13.964   1.534  1.00  0.00     0.030 A 
HETATM    4  C   UNL     1      40.923 -13.817   0.159  1.00  0.00     0.063 A 
HETATM    5  N   UNL     1      40.560 -12.514  -0.029  1.00  0.00    -0.277 N 
HETATM    6  H   UNL     1      40.368 -12.052  -0.911  1.00  0.00     0.189 HD
HETATM    7  N   UNL     1      40.455 -11.795   1.101  1.00  0.00    -0.168 NA
HETATM    8  C   UNL     1      40.769 -12.679   2.076  1.00  0.00     0.156 A 
HETATM    9  C   UNL     1      41.131 -14.860  -0.745  1.00  0.00     0.034 A 
HETATM   10  C   UNL     1      41.500 -16.101  -0.209  1.00  0.00     0.032 A 
ENDROOT
BRANCH   1  11
HETATM   11  N   UNL     1      42.030 -17.593   1.587  1.00  0.00    -0.327 N 
HETATM   12  C   UNL     1      43.303 -18.077   1.784  1.00  0.00     0.227 C 
HETATM   13  O   UNL     1      44.353 -17.458   1.693  1.00  0.00    -0.273 OA
HETATM   14  H   UNL     1      41.272 -18.233   1.777  1.00  0.00     0.169 HD
BRANCH  12  15
HETATM   15  C   UNL     1      43.375 -19.498   2.226  1.00  0.00     0.087 A 
HETATM   16  C   UNL     1      43.493 -19.892   3.692  1.00  0.00     0.034 A 
HETATM   17  C   UNL     1      44.618 -20.180   2.719  1.00  0.00     0.025 A 
BRANCH  16  18
HETATM   18  C   UNL     1      43.757 -18.922   4.836  1.00  0.00    -0.031 A 
HETATM   19  C   UNL     1      45.048 -18.776   5.377  1.00  0.00     0.009 A 
HETATM   20  C   UNL     1      45.319 -17.889   6.425  1.00  0.00     0.001 A 
HETATM   21  C   UNL     1      44.304 -17.096   6.947  1.00  0.00     0.002 A 
HETATM   22  C   UNL     1      43.024 -17.183   6.412  1.00  0.00     0.024 A 
HETATM   23  C   UNL     1      42.758 -18.078   5.367  1.00  0.00     0.040 A 
HETATM   24 CL   UNL     1      41.147 -18.081   4.728  1.00  0.00    -0.084 Cl
ENDBRANCH  16  18
ENDBRANCH  12  15
ENDBRANCH   1  11
BRANCH   8  25
HETATM   25  C   UNL     1      40.773 -12.277   3.491  1.00  0.00     0.270 C 
HETATM   26  N   UNL     1      41.643 -11.260   3.780  1.00  0.00    -0.365 N 
HETATM   27  H   UNL     1      42.198 -10.869   3.028  1.00  0.00     0.159 HD
HETATM   28  H   UNL     1      41.708 -10.914   4.723  1.00  0.00     0.159 HD
HETATM   29  O   UNL     1      40.076 -12.782   4.364  1.00  0.00    -0.266 OA
ENDBRANCH   8  25
TORSDOF 4
ENDMDL
MODEL 9
REMARK VINA RESULT:      -7.7      3.038      4.415
REMARK  4 active torsions:
REMARK  status: ('A' for Active; 'I' for Inactive)
REMARK    1  A    between atoms: C_3  and  C_4 
REMARK    2  A    between atoms: C_5  and  C_6 
REMARK       I    between atoms: C_6  and  N_7 
REMARK    3  A    between atoms: N_7  and  C_8 
REMARK    4  A    between atoms: C_15  and  C_16 
REMARK       I    between atoms: C_16  and  N_17 
ROOT
HETATM    1  C   UNL     1      40.439 -15.339   2.606  1.00  0.00     0.035 A 
HETATM    2  C   UNL     1      40.353 -14.627   3.810  1.00  0.00     0.046 A 
HETATM    3  C   UNL     1      39.736 -13.356   3.827  1.00  0.00     0.030 A 
HETATM    4  C   UNL     1      39.233 -12.839   2.639  1.00  0.00     0.063 A 
HETATM    5  N   UNL     1      38.707 -11.622   2.968  1.00  0.00    -0.277 N 
HETATM    6  H   UNL     1      38.253 -10.962   2.347  1.00  0.00     0.189 HD
HETATM    7  N   UNL     1      38.821 -11.297   4.266  1.00  0.00    -0.168 NA
HETATM    8  C   UNL     1      39.458 -12.359   4.811  1.00  0.00     0.156 A 
HETATM    9  C   UNL     1      39.307 -13.517   1.421  1.00  0.00     0.034 A 
HETATM   10  C   UNL     1      39.920 -14.776   1.432  1.00  0.00     0.032 A 
ENDROOT
BRANCH   1  11
HETATM   11  N   UNL     1      41.033 -16.615   2.489  1.00  0.00    -0.327 N 
HETATM   12  C   UNL     1      42.366 -16.907   2.316  1.00  0.00     0.227 C 
HETATM   13  O   UNL     1      43.300 -16.119   2.293  1.00  0.00    -0.273 OA
HETATM   14  H   UNL     1      40.405 -17.403   2.553  1.00  0.00     0.169 HD
BRANCH  12  15
HETATM   15  C   UNL     1      42.685 -18.360   2.223  1.00  0.00     0.087 A 
HETATM   16  C   UNL     1      43.113 -19.181   3.430  1.00  0.00     0.034 A 
HETATM   17  C   UNL     1      44.069 -18.939   2.281  1.00  0.00     0.025 A 
BRANCH  16  18
HETATM   18  C   UNL     1      43.464 -18.605   4.796  1.00  0.00    -0.031 A 
HETATM   19  C   UNL     1      44.803 -18.515   5.221  1.00  0.00     0.009 A 
HETATM   20  C   UNL     1      45.153 -17.985   6.468  1.00  0.00     0.001 A 
HETATM   21  C   UNL     1      44.168 -17.501   7.321  1.00  0.00     0.002 A 
HETATM   22  C   UNL     1      42.838 -17.537   6.920  1.00  0.00     0.024 A 
HETATM   23  C   UNL     1      42.493 -18.074   5.673  1.00  0.00     0.040 A 
HETATM   24 CL   UNL     1      40.817 -18.029   5.235  1.00  0.00    -0.084 Cl
ENDBRANCH  16  18
ENDBRANCH  12  15
ENDBRANCH   1  11
BRANCH   8  25
HETATM   25  C   UNL     1      39.781 -12.398   6.244  1.00  0.00     0.270 C 
HETATM   26  N   UNL     1      41.122 -12.471   6.513  1.00  0.00    -0.365 N 
HETATM   27  H   UNL     1      41.771 -12.490   5.736  1.00  0.00     0.159 HD
HETATM   28  H   UNL     1      41.438 -12.494   7.469  1.00  0.00     0.159 HD
HETATM   29  O   UNL     1      38.955 -12.368   7.149  1.00  0.00    -0.266 OA
ENDBRANCH   8  25
TORSDOF 4
ENDMDL
MODEL 10
REMARK VINA RESULT:      -7.6      2.677      3.730
REMARK  4 active torsions:
REMARK  status: ('A' for Active; 'I' for Inactive)
REMARK    1  A    between atoms: C_3  and  C_4 
REMARK    2  A    between atoms: C_5  and  C_6 
REMARK       I    between atoms: C_6  and  N_7 
REMARK    3  A    between atoms: N_7  and  C_8 
REMARK    4  A    between atoms: C_15  and  C_16 
REMARK       I    between atoms: C_16  and  N_17 
ROOT
HETATM    1  C   UNL     1      41.058 -15.481  -0.853  1.00  0.00     0.035 A 
HETATM    2  C   UNL     1      40.197 -14.546  -0.261  1.00  0.00     0.046 A 
HETATM    3  C   UNL     1      39.277 -13.837  -1.066  1.00  0.00     0.030 A 
HETATM    4  C   UNL     1      39.254 -14.083  -2.434  1.00  0.00     0.063 A 
HETATM    5  N   UNL     1      38.280 -13.265  -2.933  1.00  0.00    -0.277 N 
HETATM    6  H   UNL     1      37.987 -13.180  -3.900  1.00  0.00     0.189 HD
HETATM    7  N   UNL     1      37.664 -12.506  -2.013  1.00  0.00    -0.168 NA
HETATM    8  C   UNL     1      38.271 -12.847  -0.852  1.00  0.00     0.156 A 
HETATM    9  C   UNL     1      40.100 -15.002  -3.057  1.00  0.00     0.034 A 
HETATM   10  C   UNL     1      41.000 -15.694  -2.237  1.00  0.00     0.032 A 
ENDROOT
BRANCH   1  11
HETATM   11  N   UNL     1      42.006 -16.239  -0.133  1.00  0.00    -0.327 N 
HETATM   12  C   UNL     1      41.763 -17.224   0.796  1.00  0.00     0.227 C 
HETATM   13  O   UNL     1      40.677 -17.674   1.131  1.00  0.00    -0.273 OA
HETATM   14  H   UNL     1      42.976 -16.044  -0.336  1.00  0.00     0.169 HD
BRANCH  12  15
HETATM   15  C   UNL     1      42.981 -17.844   1.391  1.00  0.00     0.087 A 
HETATM   16  C   UNL     1      43.573 -17.375   2.712  1.00  0.00     0.034 A 
HETATM   17  C   UNL     1      44.340 -17.209   1.417  1.00  0.00     0.025 A 
BRANCH  16  18
HETATM   18  C   UNL     1      43.144 -16.122   3.463  1.00  0.00    -0.031 A 
HETATM   19  C   UNL     1      43.636 -14.855   3.099  1.00  0.00     0.009 A 
HETATM   20  C   UNL     1      43.254 -13.688   3.769  1.00  0.00     0.001 A 
HETATM   21  C   UNL     1      42.339 -13.751   4.813  1.00  0.00     0.002 A 
HETATM   22  C   UNL     1      41.799 -14.980   5.176  1.00  0.00     0.024 A 
HETATM   23  C   UNL     1      42.191 -16.145   4.505  1.00  0.00     0.040 A 
HETATM   24 CL   UNL     1      41.427 -17.624   4.990  1.00  0.00    -0.084 Cl
ENDBRANCH  16  18
ENDBRANCH  12  15
ENDBRANCH   1  11
BRANCH   8  25
HETATM   25  C   UNL     1      37.879 -12.225   0.421  1.00  0.00     0.270 C 
HETATM   26  N   UNL     1      36.556 -12.382   0.735  1.00  0.00    -0.365 N 
HETATM   27  H   UNL     1      35.964 -12.897   0.094  1.00  0.00     0.159 HD
HETATM   28  H   UNL     1      36.198 -11.996   1.593  1.00  0.00     0.159 HD
HETATM   29  O   UNL     1      38.638 -11.613   1.164  1.00  0.00    -0.266 OA
ENDBRANCH   8  25
TORSDOF 4
ENDMDL
