MODEL 1
REMARK VINA RESULT:      -8.0      0.000      0.000
REMARK  2 active torsions:
REMARK  status: ('A' for Active; 'I' for Inactive)
REMARK    1  A    between atoms: C_9  and  C_11 
REMARK    2  A    between atoms: C_9  and  O_10 
ROOT
HETATM    1  C   UNL     1      44.712 -14.456   6.970  1.00  0.00     0.048 C 
HETATM    2  C   UNL     1      43.715 -14.536   5.850  1.00  0.00    -0.061 A 
HETATM    3  C   UNL     1      43.122 -15.762   5.512  1.00  0.00     0.020 A 
HETATM    4  C   UNL     1      42.226 -15.798   4.451  1.00  0.00     0.018 A 
HETATM    5  C   UNL     1      41.914 -14.630   3.755  1.00  0.00     0.045 A 
HETATM    6  N   UNL     1      40.988 -14.890   2.757  1.00  0.00    -0.323 N 
HETATM    7  C   UNL     1      40.635 -16.241   2.726  1.00  0.00     0.266 A 
HETATM    8  O   UNL     1      39.815 -16.717   1.956  1.00  0.00    -0.269 OA
HETATM    9  C   UNL     1      41.444 -16.961   3.873  1.00  0.00     0.198 A 
HETATM   10  C   UNL     1      42.474 -13.410   4.064  1.00  0.00     0.031 A 
HETATM   11  C   UNL     1      43.387 -13.371   5.122  1.00  0.00     0.009 A 
HETATM   12  H   UNL     1      40.598 -14.214   2.118  1.00  0.00     0.169 HD
ENDROOT
BRANCH   9  13
HETATM   13  C   UNL     1      42.475 -17.927   3.341  1.00  0.00     0.018 A 
HETATM   14  C   UNL     1      43.237 -18.894   4.094  1.00  0.00     0.002 A 
HETATM   15  C   UNL     1      44.103 -19.537   3.208  1.00  0.00     0.043 A 
HETATM   16  C   UNL     1      43.280 -19.277   5.452  1.00  0.00     0.014 A 
HETATM   17  C   UNL     1      45.008 -20.528   3.609  1.00  0.00     0.030 A 
HETATM   18  N   UNL     1      43.872 -19.010   1.962  1.00  0.00    -0.365 N 
HETATM   19  C   UNL     1      45.029 -20.882   4.960  1.00  0.00     0.002 A 
HETATM   20  C   UNL     1      44.175 -20.267   5.872  1.00  0.00     0.001 A 
HETATM   21  H   UNL     1      44.356 -19.296   1.121  1.00  0.00     0.165 HD
HETATM   22  C   UNL     1      42.907 -18.045   2.026  1.00  0.00     0.100 A 
ENDBRANCH   9  13
BRANCH   9  23
HETATM   23  O   UNL     1      40.586 -17.508   4.863  1.00  0.00    -0.371 OA
HETATM   24  H   UNL     1      40.795 -18.455   4.915  1.00  0.00     0.212 HD
ENDBRANCH   9  23
TORSDOF 2
ENDMDL
MODEL 2
REMARK VINA RESULT:      -8.0      2.331      6.023
REMARK  2 active torsions:
REMARK  status: ('A' for Active; 'I' for Inactive)
REMARK    1  A    between atoms: C_9  and  C_11 
REMARK    2  A    between atoms: C_9  and  O_10 
ROOT
HETATM    1  C   UNL     1      42.906 -19.091   1.920  1.00  0.00     0.048 C 
HETATM    2  C   UNL     1      43.305 -18.955   3.362  1.00  0.00    -0.061 A 
HETATM    3  C   UNL     1      42.652 -18.037   4.198  1.00  0.00     0.020 A 
HETATM    4  C   UNL     1      43.070 -17.924   5.517  1.00  0.00     0.018 A 
HETATM    5  C   UNL     1      44.107 -18.724   5.997  1.00  0.00     0.045 A 
HETATM    6  N   UNL     1      44.344 -18.462   7.337  1.00  0.00    -0.323 N 
HETATM    7  C   UNL     1      43.488 -17.472   7.825  1.00  0.00     0.266 A 
HETATM    8  O   UNL     1      43.478 -17.086   8.983  1.00  0.00    -0.269 OA
HETATM    9  C   UNL     1      42.555 -17.032   6.631  1.00  0.00     0.198 A 
HETATM   10  C   UNL     1      44.766 -19.638   5.205  1.00  0.00     0.031 A 
HETATM   11  C   UNL     1      44.357 -19.747   3.872  1.00  0.00     0.009 A 
HETATM   12  H   UNL     1      45.037 -18.911   7.916  1.00  0.00     0.169 HD
ENDROOT
BRANCH   9  13
HETATM   13  C   UNL     1      42.817 -15.616   6.179  1.00  0.00     0.018 A 
HETATM   14  C   UNL     1      41.915 -14.745   5.466  1.00  0.00     0.002 A 
HETATM   15  C   UNL     1      42.588 -13.548   5.213  1.00  0.00     0.043 A 
HETATM   16  C   UNL     1      40.588 -14.866   4.999  1.00  0.00     0.014 A 
HETATM   17  C   UNL     1      42.010 -12.480   4.517  1.00  0.00     0.030 A 
HETATM   18  N   UNL     1      43.839 -13.663   5.765  1.00  0.00    -0.365 N 
HETATM   19  C   UNL     1      40.697 -12.632   4.064  1.00  0.00     0.002 A 
HETATM   20  C   UNL     1      39.992 -13.808   4.303  1.00  0.00     0.001 A 
HETATM   21  H   UNL     1      44.544 -12.939   5.740  1.00  0.00     0.165 HD
HETATM   22  C   UNL     1      43.993 -14.893   6.340  1.00  0.00     0.100 A 
ENDBRANCH   9  13
BRANCH   9  23
HETATM   23  O   UNL     1      41.190 -17.320   6.890  1.00  0.00    -0.371 OA
HETATM   24  H   UNL     1      40.755 -17.390   6.025  1.00  0.00     0.212 HD
ENDBRANCH   9  23
TORSDOF 2
ENDMDL
MODEL 3
REMARK VINA RESULT:      -7.7      2.195      5.747
REMARK  2 active torsions:
REMARK  status: ('A' for Active; 'I' for Inactive)
REMARK    1  A    between atoms: C_9  and  C_11 
REMARK    2  A    between atoms: C_9  and  O_10 
ROOT
HETATM    1  C   UNL     1      43.863 -21.515   1.719  1.00  0.00     0.048 C 
HETATM    2  C   UNL     1      43.797 -20.299   2.599  1.00  0.00    -0.061 A 
HETATM    3  C   UNL     1      42.716 -19.409   2.504  1.00  0.00     0.020 A 
HETATM    4  C   UNL     1      42.708 -18.283   3.316  1.00  0.00     0.018 A 
HETATM    5  C   UNL     1      43.748 -18.059   4.218  1.00  0.00     0.045 A 
HETATM    6  N   UNL     1      43.527 -16.896   4.938  1.00  0.00    -0.323 N 
HETATM    7  C   UNL     1      42.336 -16.276   4.554  1.00  0.00     0.266 A 
HETATM    8  O   UNL     1      41.904 -15.252   5.061  1.00  0.00    -0.269 OA
HETATM    9  C   UNL     1      41.686 -17.168   3.428  1.00  0.00     0.198 A 
HETATM   10  C   UNL     1      44.821 -18.915   4.340  1.00  0.00     0.031 A 
HETATM   11  C   UNL     1      44.841 -20.044   3.516  1.00  0.00     0.009 A 
HETATM   12  H   UNL     1      44.128 -16.517   5.654  1.00  0.00     0.169 HD
ENDROOT
BRANCH   9  13
HETATM   13  C   UNL     1      41.671 -16.486   2.081  1.00  0.00     0.018 A 
HETATM   14  C   UNL     1      40.635 -15.637   1.543  1.00  0.00     0.002 A 
HETATM   15  C   UNL     1      41.017 -15.266   0.252  1.00  0.00     0.043 A 
HETATM   16  C   UNL     1      39.401 -15.157   2.030  1.00  0.00     0.014 A 
HETATM   17  C   UNL     1      40.229 -14.454  -0.572  1.00  0.00     0.030 A 
HETATM   18  N   UNL     1      42.240 -15.839   0.011  1.00  0.00    -0.365 N 
HETATM   19  C   UNL     1      39.010 -13.997  -0.063  1.00  0.00     0.002 A 
HETATM   20  C   UNL     1      38.600 -14.341   1.221  1.00  0.00     0.001 A 
HETATM   21  H   UNL     1      42.762 -15.732  -0.848  1.00  0.00     0.165 HD
HETATM   22  C   UNL     1      42.641 -16.574   1.091  1.00  0.00     0.100 A 
ENDBRANCH   9  13
BRANCH   9  23
HETATM   23  O   UNL     1      40.432 -17.699   3.829  1.00  0.00    -0.371 OA
HETATM   24  H   UNL     1      40.304 -18.515   3.319  1.00  0.00     0.212 HD
ENDBRANCH   9  23
TORSDOF 2
ENDMDL
MODEL 4
REMARK VINA RESULT:      -7.6      2.638      4.256
REMARK  2 active torsions:
REMARK  status: ('A' for Active; 'I' for Inactive)
REMARK    1  A    between atoms: C_9  and  C_11 
REMARK    2  A    between atoms: C_9  and  O_10 
ROOT
HETATM    1  C   UNL     1      38.966 -13.568   1.998  1.00  0.00     0.048 C 
HETATM    2  C   UNL     1      39.876 -13.401   3.181  1.00  0.00    -0.061 A 
HETATM    3  C   UNL     1      41.157 -13.974   3.180  1.00  0.00     0.020 A 
HETATM    4  C   UNL     1      41.956 -13.820   4.305  1.00  0.00     0.018 A 
HETATM    5  C   UNL     1      41.493 -13.093   5.402  1.00  0.00     0.045 A 
HETATM    6  N   UNL     1      42.455 -13.048   6.398  1.00  0.00    -0.323 N 
HETATM    7  C   UNL     1      43.608 -13.745   6.028  1.00  0.00     0.266 A 
HETATM    8  O   UNL     1      44.610 -13.827   6.722  1.00  0.00    -0.269 OA
HETATM    9  C   UNL     1      43.361 -14.320   4.580  1.00  0.00     0.198 A 
HETATM   10  C   UNL     1      40.243 -12.513   5.433  1.00  0.00     0.031 A 
HETATM   11  C   UNL     1      39.430 -12.676   4.309  1.00  0.00     0.009 A 
HETATM   12  H   UNL     1      42.367 -12.580   7.287  1.00  0.00     0.169 HD
ENDROOT
BRANCH   9  13
HETATM   13  C   UNL     1      43.273 -15.827   4.559  1.00  0.00     0.018 A 
HETATM   14  C   UNL     1      43.453 -16.697   3.422  1.00  0.00     0.002 A 
HETATM   15  C   UNL     1      43.235 -18.009   3.851  1.00  0.00     0.043 A 
HETATM   16  C   UNL     1      43.768 -16.492   2.062  1.00  0.00     0.014 A 
HETATM   17  C   UNL     1      43.309 -19.113   2.994  1.00  0.00     0.030 A 
HETATM   18  N   UNL     1      42.959 -17.955   5.194  1.00  0.00    -0.365 N 
HETATM   19  C   UNL     1      43.620 -18.877   1.652  1.00  0.00     0.002 A 
HETATM   20  C   UNL     1      43.849 -17.584   1.190  1.00  0.00     0.001 A 
HETATM   21  H   UNL     1      42.767 -18.763   5.771  1.00  0.00     0.165 HD
HETATM   22  C   UNL     1      42.972 -16.660   5.630  1.00  0.00     0.100 A 
ENDBRANCH   9  13
BRANCH   9  23
HETATM   23  O   UNL     1      44.264 -13.773   3.631  1.00  0.00    -0.371 OA
HETATM   24  H   UNL     1      43.878 -13.941   2.757  1.00  0.00     0.212 HD
ENDBRANCH   9  23
TORSDOF 2
ENDMDL
MODEL 5
REMARK VINA RESULT:      -7.5      2.092      5.794
REMARK  2 active torsions:
REMARK  status: ('A' for Active; 'I' for Inactive)
REMARK    1  A    between atoms: C_9  and  C_11 
REMARK    2  A    between atoms: C_9  and  O_10 
ROOT
HETATM    1  C   UNL     1      41.735 -16.250   0.020  1.00  0.00     0.048 C 
HETATM    2  C   UNL     1      42.303 -16.966   1.212  1.00  0.00    -0.061 A 
HETATM    3  C   UNL     1      41.823 -16.692   2.502  1.00  0.00     0.020 A 
HETATM    4  C   UNL     1      42.396 -17.355   3.580  1.00  0.00     0.018 A 
HETATM    5  C   UNL     1      43.413 -18.287   3.372  1.00  0.00     0.045 A 
HETATM    6  N   UNL     1      43.819 -18.841   4.576  1.00  0.00    -0.323 N 
HETATM    7  C   UNL     1      43.105 -18.308   5.651  1.00  0.00     0.266 A 
HETATM    8  O   UNL     1      43.257 -18.655   6.813  1.00  0.00    -0.269 OA
HETATM    9  C   UNL     1      42.082 -17.262   5.061  1.00  0.00     0.198 A 
HETATM   10  C   UNL     1      43.903 -18.583   2.119  1.00  0.00     0.031 A 
HETATM   11  C   UNL     1      43.340 -17.908   1.032  1.00  0.00     0.009 A 
HETATM   12  H   UNL     1      44.535 -19.541   4.695  1.00  0.00     0.169 HD
ENDROOT
BRANCH   9  13
HETATM   13  C   UNL     1      42.404 -15.843   5.462  1.00  0.00     0.018 A 
HETATM   14  C   UNL     1      41.499 -14.720   5.502  1.00  0.00     0.002 A 
HETATM   15  C   UNL     1      42.233 -13.595   5.883  1.00  0.00     0.043 A 
HETATM   16  C   UNL     1      40.123 -14.551   5.239  1.00  0.00     0.014 A 
HETATM   17  C   UNL     1      41.667 -12.320   6.005  1.00  0.00     0.030 A 
HETATM   18  N   UNL     1      43.525 -14.007   6.092  1.00  0.00    -0.365 N 
HETATM   19  C   UNL     1      40.303 -12.185   5.734  1.00  0.00     0.002 A 
HETATM   20  C   UNL     1      39.538 -13.285   5.357  1.00  0.00     0.001 A 
HETATM   21  H   UNL     1      44.278 -13.399   6.385  1.00  0.00     0.165 HD
HETATM   22  C   UNL     1      43.644 -15.344   5.839  1.00  0.00     0.100 A 
ENDBRANCH   9  13
BRANCH   9  23
HETATM   23  O   UNL     1      40.736 -17.646   5.296  1.00  0.00    -0.371 OA
HETATM   24  H   UNL     1      40.479 -18.216   4.554  1.00  0.00     0.212 HD
ENDBRANCH   9  23
TORSDOF 2
ENDMDL
MODEL 6
REMARK VINA RESULT:      -7.4      2.059      3.030
REMARK  2 active torsions:
REMARK  status: ('A' for Active; 'I' for Inactive)
REMARK    1  A    between atoms: C_9  and  C_11 
REMARK    2  A    between atoms: C_9  and  O_10 
ROOT
HETATM    1  C   UNL     1      41.270 -12.052   2.423  1.00  0.00     0.048 C 
HETATM    2  C   UNL     1      41.076 -13.034   3.543  1.00  0.00    -0.061 A 
HETATM    3  C   UNL     1      41.998 -14.072   3.747  1.00  0.00     0.020 A 
HETATM    4  C   UNL     1      41.766 -14.975   4.776  1.00  0.00     0.018 A 
HETATM    5  C   UNL     1      40.648 -14.834   5.597  1.00  0.00     0.045 A 
HETATM    6  N   UNL     1      40.626 -15.825   6.566  1.00  0.00    -0.323 N 
HETATM    7  C   UNL     1      41.720 -16.684   6.443  1.00  0.00     0.266 A 
HETATM    8  O   UNL     1      41.942 -17.620   7.197  1.00  0.00    -0.269 OA
HETATM    9  C   UNL     1      42.580 -16.174   5.224  1.00  0.00     0.198 A 
HETATM   10  C   UNL     1      39.726 -13.824   5.427  1.00  0.00     0.031 A 
HETATM   11  C   UNL     1      39.947 -12.920   4.385  1.00  0.00     0.009 A 
HETATM   12  H   UNL     1      39.925 -15.939   7.282  1.00  0.00     0.169 HD
ENDROOT
BRANCH   9  13
HETATM   13  C   UNL     1      42.570 -17.137   4.061  1.00  0.00     0.018 A 
HETATM   14  C   UNL     1      43.346 -18.345   3.919  1.00  0.00     0.002 A 
HETATM   15  C   UNL     1      43.055 -18.894   2.668  1.00  0.00     0.043 A 
HETATM   16  C   UNL     1      44.280 -19.020   4.734  1.00  0.00     0.014 A 
HETATM   17  C   UNL     1      43.652 -20.068   2.194  1.00  0.00     0.030 A 
HETATM   18  N   UNL     1      42.125 -18.078   2.075  1.00  0.00    -0.365 N 
HETATM   19  C   UNL     1      44.575 -20.711   3.022  1.00  0.00     0.002 A 
HETATM   20  C   UNL     1      44.885 -20.196   4.278  1.00  0.00     0.001 A 
HETATM   21  H   UNL     1      41.725 -18.238   1.160  1.00  0.00     0.165 HD
HETATM   22  C   UNL     1      41.830 -17.022   2.890  1.00  0.00     0.100 A 
ENDBRANCH   9  13
BRANCH   9  23
HETATM   23  O   UNL     1      43.876 -15.757   5.626  1.00  0.00    -0.371 OA
HETATM   24  H   UNL     1      44.078 -14.957   5.115  1.00  0.00     0.212 HD
ENDBRANCH   9  23
TORSDOF 2
ENDMDL
MODEL 7
REMARK VINA RESULT:      -7.4      2.061      3.500
REMARK  2 active torsions:
REMARK  status: ('A' for Active; 'I' for Inactive)
REMARK    1  A    between atoms: C_9  and  C_11 
REMARK    2  A    between atoms: C_9  and  O_10 
ROOT
HETATM    1  C   UNL     1      41.080 -14.439  -1.336  1.00  0.00     0.048 C 
HETATM    2  C   UNL     1      40.824 -14.706   0.119  1.00  0.00    -0.061 A 
HETATM    3  C   UNL     1      41.823 -15.270   0.926  1.00  0.00     0.020 A 
HETATM    4  C   UNL     1      41.536 -15.526   2.261  1.00  0.00     0.018 A 
HETATM    5  C   UNL     1      40.282 -15.208   2.783  1.00  0.00     0.045 A 
HETATM    6  N   UNL     1      40.221 -15.526   4.131  1.00  0.00    -0.323 N 
HETATM    7  C   UNL     1      41.422 -16.078   4.581  1.00  0.00     0.266 A 
HETATM    8  O   UNL     1      41.630 -16.413   5.737  1.00  0.00    -0.269 OA
HETATM    9  C   UNL     1      42.408 -16.118   3.351  1.00  0.00     0.198 A 
HETATM   10  C   UNL     1      39.280 -14.650   2.020  1.00  0.00     0.031 A 
HETATM   11  C   UNL     1      39.560 -14.402   0.673  1.00  0.00     0.009 A 
HETATM   12  H   UNL     1      39.427 -15.390   4.737  1.00  0.00     0.169 HD
ENDROOT
BRANCH   9  13
HETATM   13  C   UNL     1      42.727 -17.525   2.905  1.00  0.00     0.018 A 
HETATM   14  C   UNL     1      43.572 -18.484   3.575  1.00  0.00     0.002 A 
HETATM   15  C   UNL     1      43.620 -19.634   2.786  1.00  0.00     0.043 A 
HETATM   16  C   UNL     1      44.313 -18.477   4.777  1.00  0.00     0.014 A 
HETATM   17  C   UNL     1      44.371 -20.764   3.130  1.00  0.00     0.030 A 
HETATM   18  N   UNL     1      42.823 -19.408   1.691  1.00  0.00    -0.365 N 
HETATM   19  C   UNL     1      45.096 -20.726   4.324  1.00  0.00     0.002 A 
HETATM   20  C   UNL     1      45.067 -19.599   5.139  1.00  0.00     0.001 A 
HETATM   21  H   UNL     1      42.665 -20.078   0.951  1.00  0.00     0.165 HD
HETATM   22  C   UNL     1      42.288 -18.152   1.746  1.00  0.00     0.100 A 
ENDBRANCH   9  13
BRANCH   9  23
HETATM   23  O   UNL     1      43.548 -15.298   3.557  1.00  0.00    -0.371 OA
HETATM   24  H   UNL     1      43.767 -15.365   4.501  1.00  0.00     0.212 HD
ENDBRANCH   9  23
TORSDOF 2
ENDMDL
MODEL 8
REMARK VINA RESULT:      -7.4      1.919      4.904
REMARK  2 active torsions:
REMARK  status: ('A' for Active; 'I' for Inactive)
REMARK    1  A    between atoms: C_9  and  C_11 
REMARK    2  A    between atoms: C_9  and  O_10 
ROOT
HETATM    1  C   UNL     1      45.067 -20.280   4.313  1.00  0.00     0.048 C 
HETATM    2  C   UNL     1      44.415 -19.082   4.943  1.00  0.00    -0.061 A 
HETATM    3  C   UNL     1      43.107 -18.716   4.591  1.00  0.00     0.020 A 
HETATM    4  C   UNL     1      42.552 -17.585   5.176  1.00  0.00     0.018 A 
HETATM    5  C   UNL     1      43.281 -16.846   6.108  1.00  0.00     0.045 A 
HETATM    6  N   UNL     1      42.532 -15.780   6.578  1.00  0.00    -0.323 N 
HETATM    7  C   UNL     1      41.268 -15.742   5.984  1.00  0.00     0.266 A 
HETATM    8  O   UNL     1      40.411 -14.914   6.254  1.00  0.00    -0.269 OA
HETATM    9  C   UNL     1      41.182 -16.964   4.991  1.00  0.00     0.198 A 
HETATM   10  C   UNL     1      44.565 -17.181   6.479  1.00  0.00     0.031 A 
HETATM   11  C   UNL     1      45.134 -18.311   5.883  1.00  0.00     0.009 A 
HETATM   12  H   UNL     1      42.830 -15.100   7.261  1.00  0.00     0.169 HD
ENDROOT
BRANCH   9  13
HETATM   13  C   UNL     1      41.116 -16.535   3.545  1.00  0.00     0.018 A 
HETATM   14  C   UNL     1      41.568 -15.285   2.982  1.00  0.00     0.002 A 
HETATM   15  C   UNL     1      41.267 -15.299   1.619  1.00  0.00     0.043 A 
HETATM   16  C   UNL     1      42.196 -14.136   3.508  1.00  0.00     0.014 A 
HETATM   17  C   UNL     1      41.553 -14.227   0.764  1.00  0.00     0.030 A 
HETATM   18  N   UNL     1      40.679 -16.509   1.346  1.00  0.00    -0.365 N 
HETATM   19  C   UNL     1      42.172 -13.102   1.315  1.00  0.00     0.002 A 
HETATM   20  C   UNL     1      42.492 -13.055   2.669  1.00  0.00     0.001 A 
HETATM   21  H   UNL     1      40.363 -16.797   0.430  1.00  0.00     0.165 HD
HETATM   22  C   UNL     1      40.576 -17.255   2.486  1.00  0.00     0.100 A 
ENDBRANCH   9  13
BRANCH   9  23
HETATM   23  O   UNL     1      40.175 -17.888   5.374  1.00  0.00    -0.371 OA
HETATM   24  H   UNL     1      40.533 -18.390   6.123  1.00  0.00     0.212 HD
ENDBRANCH   9  23
TORSDOF 2
ENDMDL
MODEL 9
REMARK VINA RESULT:      -7.4      2.996      4.266
REMARK  2 active torsions:
REMARK  status: ('A' for Active; 'I' for Inactive)
REMARK    1  A    between atoms: C_9  and  C_11 
REMARK    2  A    between atoms: C_9  and  O_10 
ROOT
HETATM    1  C   UNL     1      42.137 -17.366   1.650  1.00  0.00     0.048 C 
HETATM    2  C   UNL     1      42.104 -17.117   3.131  1.00  0.00    -0.061 A 
HETATM    3  C   UNL     1      43.125 -17.608   3.958  1.00  0.00     0.020 A 
HETATM    4  C   UNL     1      43.042 -17.379   5.325  1.00  0.00     0.018 A 
HETATM    5  C   UNL     1      41.971 -16.658   5.854  1.00  0.00     0.045 A 
HETATM    6  N   UNL     1      42.101 -16.530   7.228  1.00  0.00    -0.323 N 
HETATM    7  C   UNL     1      43.256 -17.162   7.694  1.00  0.00     0.266 A 
HETATM    8  O   UNL     1      43.609 -17.165   8.863  1.00  0.00    -0.269 OA
HETATM    9  C   UNL     1      43.986 -17.783   6.441  1.00  0.00     0.198 A 
HETATM   10  C   UNL     1      40.955 -16.158   5.069  1.00  0.00     0.031 A 
HETATM   11  C   UNL     1      41.027 -16.397   3.694  1.00  0.00     0.009 A 
HETATM   12  H   UNL     1      41.461 -16.050   7.842  1.00  0.00     0.169 HD
ENDROOT
BRANCH   9  13
HETATM   13  C   UNL     1      43.985 -19.293   6.456  1.00  0.00     0.018 A 
HETATM   14  C   UNL     1      44.330 -20.178   5.370  1.00  0.00     0.002 A 
HETATM   15  C   UNL     1      44.142 -21.489   5.812  1.00  0.00     0.043 A 
HETATM   16  C   UNL     1      44.776 -19.987   4.044  1.00  0.00     0.014 A 
HETATM   17  C   UNL     1      44.366 -22.607   5.000  1.00  0.00     0.030 A 
HETATM   18  N   UNL     1      43.723 -21.419   7.117  1.00  0.00    -0.365 N 
HETATM   19  C   UNL     1      44.804 -22.385   3.692  1.00  0.00     0.002 A 
HETATM   20  C   UNL     1      45.009 -21.093   3.218  1.00  0.00     0.001 A 
HETATM   21  H   UNL     1      43.516 -22.223   7.694  1.00  0.00     0.165 HD
HETATM   22  C   UNL     1      43.618 -20.116   7.514  1.00  0.00     0.100 A 
ENDBRANCH   9  13
BRANCH   9  23
HETATM   23  O   UNL     1      45.264 -17.202   6.230  1.00  0.00    -0.371 OA
HETATM   24  H   UNL     1      45.496 -16.743   7.053  1.00  0.00     0.212 HD
ENDBRANCH   9  23
TORSDOF 2
ENDMDL
MODEL 10
REMARK VINA RESULT:      -7.3      1.910      2.817
REMARK  2 active torsions:
REMARK  status: ('A' for Active; 'I' for Inactive)
REMARK    1  A    between atoms: C_9  and  C_11 
REMARK    2  A    between atoms: C_9  and  O_10 
ROOT
HETATM    1  C   UNL     1      39.488 -13.032   6.230  1.00  0.00     0.048 C 
HETATM    2  C   UNL     1      40.001 -13.341   4.852  1.00  0.00    -0.061 A 
HETATM    3  C   UNL     1      40.203 -14.670   4.449  1.00  0.00     0.020 A 
HETATM    4  C   UNL     1      40.704 -14.910   3.177  1.00  0.00     0.018 A 
HETATM    5  C   UNL     1      40.981 -13.846   2.317  1.00  0.00     0.045 A 
HETATM    6  N   UNL     1      41.448 -14.313   1.099  1.00  0.00    -0.323 N 
HETATM    7  C   UNL     1      41.517 -15.708   1.078  1.00  0.00     0.266 A 
HETATM    8  O   UNL     1      41.870 -16.361   0.107  1.00  0.00    -0.269 OA
HETATM    9  C   UNL     1      41.015 -16.222   2.482  1.00  0.00     0.198 A 
HETATM   10  C   UNL     1      40.789 -12.531   2.680  1.00  0.00     0.031 A 
HETATM   11  C   UNL     1      40.297 -12.283   3.965  1.00  0.00     0.009 A 
HETATM   12  H   UNL     1      41.714 -13.746   0.309  1.00  0.00     0.169 HD
ENDROOT
BRANCH   9  13
HETATM   13  C   UNL     1      42.113 -16.867   3.293  1.00  0.00     0.018 A 
HETATM   14  C   UNL     1      42.784 -18.115   3.018  1.00  0.00     0.002 A 
HETATM   15  C   UNL     1      43.693 -18.346   4.053  1.00  0.00     0.043 A 
HETATM   16  C   UNL     1      42.695 -19.079   1.991  1.00  0.00     0.014 A 
HETATM   17  C   UNL     1      44.504 -19.486   4.115  1.00  0.00     0.030 A 
HETATM   18  N   UNL     1      43.607 -17.281   4.913  1.00  0.00    -0.365 N 
HETATM   19  C   UNL     1      44.390 -20.424   3.085  1.00  0.00     0.002 A 
HETATM   20  C   UNL     1      43.499 -20.224   2.034  1.00  0.00     0.001 A 
HETATM   21  H   UNL     1      44.160 -17.178   5.753  1.00  0.00     0.165 HD
HETATM   22  C   UNL     1      42.664 -16.393   4.476  1.00  0.00     0.100 A 
ENDBRANCH   9  13
BRANCH   9  23
HETATM   23  O   UNL     1      39.835 -17.002   2.370  1.00  0.00    -0.371 OA
HETATM   24  H   UNL     1      39.267 -16.750   3.116  1.00  0.00     0.212 HD
ENDBRANCH   9  23
TORSDOF 2
ENDMDL
