MODEL 1
REMARK VINA RESULT:      -7.8      0.000      0.000
REMARK  4 active torsions:
REMARK  status: ('A' for Active; 'I' for Inactive)
REMARK    1  A    between atoms: C_9  and  C_10 
REMARK    2  A    between atoms: C_11  and  O_12 
REMARK    3  A    between atoms: C_18  and  C_19 
REMARK       I    between atoms: C_19  and  N_20 
REMARK    4  A    between atoms: N_20  and  C_21 
ROOT
HETATM    1  C   UNL     1      41.855 -14.651   0.271  1.00  0.00     0.070 C 
HETATM    2  C   UNL     1      41.693 -14.127   1.677  1.00  0.00     0.037 C 
HETATM    3  N   UNL     1      41.568 -12.746   1.792  1.00  0.00    -0.192 N 
HETATM    4  C   UNL     1      41.181 -12.139   2.930  1.00  0.00     0.725 A 
HETATM    5  N   UNL     1      41.043 -12.876   4.077  1.00  0.00    -0.084 N 
HETATM    6  N   UNL     1      40.568 -12.118   5.089  1.00  0.00    -0.149 NA
HETATM    7  C   UNL     1      40.486 -10.926   4.488  1.00  0.00     0.275 A 
HETATM    8  N   UNL     1      40.853 -10.895   3.168  1.00  0.00    -0.054 NA
HETATM    9  C   UNL     1      41.330 -14.314   4.169  1.00  0.00     0.205 C 
HETATM   10  C   UNL     1      41.605 -14.902   2.786  1.00  0.00     0.063 C 
HETATM   11  H   UNL     1      41.544 -12.202   0.933  1.00  0.00     0.184 HD
ENDROOT
BRANCH  10  12
HETATM   12  C   UNL     1      41.657 -16.385   2.750  1.00  0.00     0.256 C 
HETATM   13  N   UNL     1      42.929 -16.885   2.931  1.00  0.00    -0.323 N 
HETATM   14  H   UNL     1      43.668 -16.210   3.080  1.00  0.00     0.169 HD
HETATM   15  O   UNL     1      40.621 -17.014   2.581  1.00  0.00    -0.267 OA
BRANCH  13  16
HETATM   16  C   UNL     1      43.326 -18.238   2.899  1.00  0.00     0.035 A 
HETATM   17  C   UNL     1      43.083 -19.097   1.826  1.00  0.00     0.031 A 
HETATM   18  C   UNL     1      43.522 -20.426   1.865  1.00  0.00     0.026 A 
HETATM   19  C   UNL     1      44.212 -20.898   2.976  1.00  0.00     0.034 A 
HETATM   20 CL   UNL     1      44.760 -22.528   3.019  1.00  0.00    -0.084 Cl
HETATM   21  C   UNL     1      44.460 -20.055   4.055  1.00  0.00     0.026 A 
HETATM   22  C   UNL     1      44.014 -18.729   4.018  1.00  0.00     0.031 A 
ENDBRANCH  13  16
ENDBRANCH  10  12
BRANCH   9  23
HETATM   23  C   UNL     1      42.493 -14.536   5.138  1.00  0.00     0.005 A 
HETATM   24  C   UNL     1      42.361 -15.417   6.228  1.00  0.00     0.076 A 
HETATM   25  C   UNL     1      43.432 -15.606   7.107  1.00  0.00     0.037 A 
HETATM   26  C   UNL     1      44.627 -14.906   6.928  1.00  0.00     0.003 A 
HETATM   27  C   UNL     1      44.761 -14.014   5.870  1.00  0.00     0.001 A 
HETATM   28  C   UNL     1      43.704 -13.830   4.980  1.00  0.00     0.012 A 
BRANCH  24  29
HETATM   29  O   UNL     1      41.167 -16.078   6.340  1.00  0.00    -0.355 OA
HETATM   30  C   UNL     1      41.215 -17.492   6.186  1.00  0.00     0.210 C 
ENDBRANCH  24  29
ENDBRANCH   9  23
TORSDOF 4
ENDMDL
MODEL 2
REMARK VINA RESULT:      -7.7      1.971      4.408
REMARK  4 active torsions:
REMARK  status: ('A' for Active; 'I' for Inactive)
REMARK    1  A    between atoms: C_9  and  C_10 
REMARK    2  A    between atoms: C_11  and  O_12 
REMARK    3  A    between atoms: C_18  and  C_19 
REMARK       I    between atoms: C_19  and  N_20 
REMARK    4  A    between atoms: N_20  and  C_21 
ROOT
HETATM    1  C   UNL     1      41.007 -16.316   6.618  1.00  0.00     0.070 C 
HETATM    2  C   UNL     1      40.758 -15.099   5.762  1.00  0.00     0.037 C 
HETATM    3  N   UNL     1      39.888 -14.156   6.299  1.00  0.00    -0.192 N 
HETATM    4  C   UNL     1      39.744 -12.918   5.788  1.00  0.00     0.725 A 
HETATM    5  N   UNL     1      40.355 -12.600   4.603  1.00  0.00    -0.084 N 
HETATM    6  N   UNL     1      40.169 -11.299   4.292  1.00  0.00    -0.149 NA
HETATM    7  C   UNL     1      39.400 -10.908   5.314  1.00  0.00     0.275 A 
HETATM    8  N   UNL     1      39.115 -11.868   6.250  1.00  0.00    -0.054 NA
HETATM    9  C   UNL     1      41.148 -13.548   3.807  1.00  0.00     0.205 C 
HETATM   10  C   UNL     1      41.360 -14.854   4.572  1.00  0.00     0.063 C 
HETATM   11  H   UNL     1      39.528 -14.326   7.235  1.00  0.00     0.184 HD
ENDROOT
BRANCH  10  12
HETATM   12  C   UNL     1      42.354 -15.769   3.957  1.00  0.00     0.256 C 
HETATM   13  N   UNL     1      41.939 -17.084   3.941  1.00  0.00    -0.323 N 
HETATM   14  H   UNL     1      41.023 -17.279   4.325  1.00  0.00     0.169 HD
HETATM   15  O   UNL     1      43.403 -15.308   3.526  1.00  0.00    -0.267 OA
BRANCH  13  16
HETATM   16  C   UNL     1      42.665 -18.201   3.479  1.00  0.00     0.035 A 
HETATM   17  C   UNL     1      43.620 -18.880   4.240  1.00  0.00     0.031 A 
HETATM   18  C   UNL     1      44.289 -19.992   3.713  1.00  0.00     0.026 A 
HETATM   19  C   UNL     1      44.001 -20.431   2.425  1.00  0.00     0.034 A 
HETATM   20 CL   UNL     1      44.816 -21.803   1.783  1.00  0.00    -0.084 Cl
HETATM   21  C   UNL     1      43.054 -19.764   1.654  1.00  0.00     0.026 A 
HETATM   22  C   UNL     1      42.392 -18.648   2.179  1.00  0.00     0.031 A 
ENDBRANCH  13  16
ENDBRANCH  10  12
BRANCH   9  23
HETATM   23  C   UNL     1      40.466 -13.768   2.456  1.00  0.00     0.005 A 
HETATM   24  C   UNL     1      41.015 -13.226   1.279  1.00  0.00     0.076 A 
HETATM   25  C   UNL     1      40.377 -13.434   0.051  1.00  0.00     0.037 A 
HETATM   26  C   UNL     1      39.182 -14.152  -0.014  1.00  0.00     0.003 A 
HETATM   27  C   UNL     1      38.617 -14.671   1.146  1.00  0.00     0.001 A 
HETATM   28  C   UNL     1      39.253 -14.482   2.372  1.00  0.00     0.012 A 
BRANCH  24  29
HETATM   29  O   UNL     1      42.193 -12.540   1.410  1.00  0.00    -0.355 OA
HETATM   30  C   UNL     1      42.408 -11.477   0.488  1.00  0.00     0.210 C 
ENDBRANCH  24  29
ENDBRANCH   9  23
TORSDOF 4
ENDMDL
MODEL 3
REMARK VINA RESULT:      -7.5      3.380      5.999
REMARK  4 active torsions:
REMARK  status: ('A' for Active; 'I' for Inactive)
REMARK    1  A    between atoms: C_9  and  C_10 
REMARK    2  A    between atoms: C_11  and  O_12 
REMARK    3  A    between atoms: C_18  and  C_19 
REMARK       I    between atoms: C_19  and  N_20 
REMARK    4  A    between atoms: N_20  and  C_21 
ROOT
HETATM    1  C   UNL     1      42.994 -19.595   2.094  1.00  0.00     0.070 C 
HETATM    2  C   UNL     1      43.183 -18.784   3.352  1.00  0.00     0.037 C 
HETATM    3  N   UNL     1      43.248 -19.515   4.534  1.00  0.00    -0.192 N 
HETATM    4  C   UNL     1      43.648 -18.981   5.704  1.00  0.00     0.725 A 
HETATM    5  N   UNL     1      43.861 -17.631   5.793  1.00  0.00    -0.084 N 
HETATM    6  N   UNL     1      44.338 -17.292   7.011  1.00  0.00    -0.149 NA
HETATM    7  C   UNL     1      44.343 -18.485   7.615  1.00  0.00     0.275 A 
HETATM    8  N   UNL     1      43.927 -19.545   6.851  1.00  0.00    -0.054 NA
HETATM    9  C   UNL     1      43.644 -16.689   4.686  1.00  0.00     0.205 C 
HETATM   10  C   UNL     1      43.347 -17.438   3.388  1.00  0.00     0.063 C 
HETATM   11  H   UNL     1      43.216 -20.529   4.462  1.00  0.00     0.184 HD
ENDROOT
BRANCH  10  12
HETATM   12  C   UNL     1      43.362 -16.586   2.172  1.00  0.00     0.256 C 
HETATM   13  N   UNL     1      42.106 -16.156   1.799  1.00  0.00    -0.323 N 
HETATM   14  H   UNL     1      41.332 -16.444   2.384  1.00  0.00     0.169 HD
HETATM   15  O   UNL     1      44.431 -16.339   1.631  1.00  0.00    -0.267 OA
BRANCH  13  16
HETATM   16  C   UNL     1      41.771 -15.382   0.669  1.00  0.00     0.035 A 
HETATM   17  C   UNL     1      41.842 -13.987   0.630  1.00  0.00     0.031 A 
HETATM   18  C   UNL     1      41.504 -13.291  -0.537  1.00  0.00     0.026 A 
HETATM   19  C   UNL     1      41.099 -13.988  -1.671  1.00  0.00     0.034 A 
HETATM   20 CL   UNL     1      40.695 -13.132  -3.107  1.00  0.00    -0.084 Cl
HETATM   21  C   UNL     1      41.021 -15.377  -1.647  1.00  0.00     0.026 A 
HETATM   22  C   UNL     1      41.351 -16.071  -0.477  1.00  0.00     0.031 A 
ENDBRANCH  13  16
ENDBRANCH  10  12
BRANCH   9  23
HETATM   23  C   UNL     1      42.529 -15.713   5.064  1.00  0.00     0.005 A 
HETATM   24  C   UNL     1      42.825 -14.376   5.389  1.00  0.00     0.076 A 
HETATM   25  C   UNL     1      41.794 -13.497   5.736  1.00  0.00     0.037 A 
HETATM   26  C   UNL     1      40.472 -13.941   5.790  1.00  0.00     0.003 A 
HETATM   27  C   UNL     1      40.170 -15.266   5.496  1.00  0.00     0.001 A 
HETATM   28  C   UNL     1      41.188 -16.147   5.135  1.00  0.00     0.012 A 
BRANCH  24  29
HETATM   29  O   UNL     1      44.140 -14.002   5.307  1.00  0.00    -0.355 OA
HETATM   30  C   UNL     1      44.818 -13.814   6.545  1.00  0.00     0.210 C 
ENDBRANCH  24  29
ENDBRANCH   9  23
TORSDOF 4
ENDMDL
MODEL 4
REMARK VINA RESULT:      -7.3      3.646      7.279
REMARK  4 active torsions:
REMARK  status: ('A' for Active; 'I' for Inactive)
REMARK    1  A    between atoms: C_9  and  C_10 
REMARK    2  A    between atoms: C_11  and  O_12 
REMARK    3  A    between atoms: C_18  and  C_19 
REMARK       I    between atoms: C_19  and  N_20 
REMARK    4  A    between atoms: N_20  and  C_21 
ROOT
HETATM    1  C   UNL     1      44.916 -13.895   6.869  1.00  0.00     0.070 C 
HETATM    2  C   UNL     1      44.289 -15.141   6.294  1.00  0.00     0.037 C 
HETATM    3  N   UNL     1      44.791 -16.344   6.778  1.00  0.00    -0.192 N 
HETATM    4  C   UNL     1      44.190 -17.529   6.557  1.00  0.00     0.725 A 
HETATM    5  N   UNL     1      43.125 -17.598   5.698  1.00  0.00    -0.084 N 
HETATM    6  N   UNL     1      42.603 -18.844   5.667  1.00  0.00    -0.149 NA
HETATM    7  C   UNL     1      43.434 -19.481   6.499  1.00  0.00     0.275 A 
HETATM    8  N   UNL     1      44.420 -18.714   7.064  1.00  0.00    -0.054 NA
HETATM    9  C   UNL     1      42.596 -16.448   4.951  1.00  0.00     0.205 C 
HETATM   10  C   UNL     1      43.260 -15.151   5.410  1.00  0.00     0.063 C 
HETATM   11  H   UNL     1      45.496 -16.300   7.509  1.00  0.00     0.184 HD
ENDROOT
BRANCH  10  12
HETATM   12  C   UNL     1      42.616 -13.917   4.894  1.00  0.00     0.256 C 
HETATM   13  N   UNL     1      41.499 -13.550   5.615  1.00  0.00    -0.323 N 
HETATM   14  H   UNL     1      41.253 -14.133   6.404  1.00  0.00     0.169 HD
HETATM   15  O   UNL     1      43.105 -13.349   3.927  1.00  0.00    -0.267 OA
BRANCH  13  16
HETATM   16  C   UNL     1      40.635 -12.466   5.355  1.00  0.00     0.035 A 
HETATM   17  C   UNL     1      39.550 -12.526   4.478  1.00  0.00     0.031 A 
HETATM   18  C   UNL     1      38.730 -11.408   4.285  1.00  0.00     0.026 A 
HETATM   19  C   UNL     1      38.990 -10.227   4.973  1.00  0.00     0.034 A 
HETATM   20 CL   UNL     1      37.975  -8.857   4.742  1.00  0.00    -0.084 Cl
HETATM   21  C   UNL     1      40.069 -10.151   5.848  1.00  0.00     0.026 A 
HETATM   22  C   UNL     1      40.892 -11.266   6.034  1.00  0.00     0.031 A 
ENDBRANCH  13  16
ENDBRANCH  10  12
BRANCH   9  23
HETATM   23  C   UNL     1      42.774 -16.695   3.452  1.00  0.00     0.005 A 
HETATM   24  C   UNL     1      41.711 -16.473   2.557  1.00  0.00     0.076 A 
HETATM   25  C   UNL     1      41.889 -16.707   1.189  1.00  0.00     0.037 A 
HETATM   26  C   UNL     1      43.108 -17.186   0.705  1.00  0.00     0.003 A 
HETATM   27  C   UNL     1      44.158 -17.432   1.583  1.00  0.00     0.001 A 
HETATM   28  C   UNL     1      43.995 -17.189   2.945  1.00  0.00     0.012 A 
BRANCH  24  29
HETATM   29  O   UNL     1      40.546 -15.995   3.095  1.00  0.00    -0.355 OA
HETATM   30  C   UNL     1      39.652 -15.355   2.191  1.00  0.00     0.210 C 
ENDBRANCH  24  29
ENDBRANCH   9  23
TORSDOF 4
ENDMDL
MODEL 5
REMARK VINA RESULT:      -7.2      2.092      4.746
REMARK  4 active torsions:
REMARK  status: ('A' for Active; 'I' for Inactive)
REMARK    1  A    between atoms: C_9  and  C_10 
REMARK    2  A    between atoms: C_11  and  O_12 
REMARK    3  A    between atoms: C_18  and  C_19 
REMARK       I    between atoms: C_19  and  N_20 
REMARK    4  A    between atoms: N_20  and  C_21 
ROOT
HETATM    1  C   UNL     1      40.218 -15.062   5.856  1.00  0.00     0.070 C 
HETATM    2  C   UNL     1      40.323 -14.135   4.671  1.00  0.00     0.037 C 
HETATM    3  N   UNL     1      40.101 -12.788   4.940  1.00  0.00    -0.192 N 
HETATM    4  C   UNL     1      40.388 -11.809   4.061  1.00  0.00     0.725 A 
HETATM    5  N   UNL     1      40.775 -12.135   2.788  1.00  0.00    -0.084 N 
HETATM    6  N   UNL     1      41.101 -11.032   2.080  1.00  0.00    -0.149 NA
HETATM    7  C   UNL     1      40.843 -10.076   2.979  1.00  0.00     0.275 A 
HETATM    8  N   UNL     1      40.403 -10.508   4.203  1.00  0.00    -0.054 NA
HETATM    9  C   UNL     1      40.867 -13.513   2.284  1.00  0.00     0.205 C 
HETATM   10  C   UNL     1      40.669 -14.518   3.417  1.00  0.00     0.063 C 
HETATM   11  H   UNL     1      39.937 -12.523   5.908  1.00  0.00     0.184 HD
ENDROOT
BRANCH  10  12
HETATM   12  C   UNL     1      40.993 -15.921   3.054  1.00  0.00     0.256 C 
HETATM   13  N   UNL     1      42.266 -16.296   3.430  1.00  0.00    -0.323 N 
HETATM   14  H   UNL     1      42.822 -15.602   3.912  1.00  0.00     0.169 HD
HETATM   15  O   UNL     1      40.147 -16.601   2.488  1.00  0.00    -0.267 OA
BRANCH  13  16
HETATM   16  C   UNL     1      42.897 -17.534   3.187  1.00  0.00     0.035 A 
HETATM   17  C   UNL     1      43.431 -18.347   4.189  1.00  0.00     0.031 A 
HETATM   18  C   UNL     1      44.030 -19.570   3.868  1.00  0.00     0.026 A 
HETATM   19  C   UNL     1      44.093 -19.987   2.543  1.00  0.00     0.034 A 
HETATM   20 CL   UNL     1      44.821 -21.495   2.150  1.00  0.00    -0.084 Cl
HETATM   21  C   UNL     1      43.568 -19.187   1.532  1.00  0.00     0.026 A 
HETATM   22  C   UNL     1      42.976 -17.961   1.854  1.00  0.00     0.031 A 
ENDBRANCH  13  16
ENDBRANCH  10  12
BRANCH   9  23
HETATM   23  C   UNL     1      39.857 -13.705   1.152  1.00  0.00     0.005 A 
HETATM   24  C   UNL     1      40.289 -13.829  -0.182  1.00  0.00     0.076 A 
HETATM   25  C   UNL     1      39.352 -14.001  -1.207  1.00  0.00     0.037 A 
HETATM   26  C   UNL     1      37.986 -14.024  -0.921  1.00  0.00     0.003 A 
HETATM   27  C   UNL     1      37.546 -13.878   0.389  1.00  0.00     0.001 A 
HETATM   28  C   UNL     1      38.472 -13.720   1.419  1.00  0.00     0.012 A 
BRANCH  24  29
HETATM   29  O   UNL     1      41.642 -13.807  -0.393  1.00  0.00    -0.355 OA
HETATM   30  C   UNL     1      42.134 -12.750  -1.209  1.00  0.00     0.210 C 
ENDBRANCH  24  29
ENDBRANCH   9  23
TORSDOF 4
ENDMDL
MODEL 6
REMARK VINA RESULT:      -7.1      3.643      6.696
REMARK  4 active torsions:
REMARK  status: ('A' for Active; 'I' for Inactive)
REMARK    1  A    between atoms: C_9  and  C_10 
REMARK    2  A    between atoms: C_11  and  O_12 
REMARK    3  A    between atoms: C_18  and  C_19 
REMARK       I    between atoms: C_19  and  N_20 
REMARK    4  A    between atoms: N_20  and  C_21 
ROOT
HETATM    1  C   UNL     1      38.965 -14.868   2.120  1.00  0.00     0.070 C 
HETATM    2  C   UNL     1      40.339 -15.403   2.440  1.00  0.00     0.037 C 
HETATM    3  N   UNL     1      40.827 -16.367   1.563  1.00  0.00    -0.192 N 
HETATM    4  C   UNL     1      42.112 -16.769   1.560  1.00  0.00     0.725 A 
HETATM    5  N   UNL     1      42.959 -16.338   2.547  1.00  0.00    -0.084 N 
HETATM    6  N   UNL     1      44.219 -16.773   2.333  1.00  0.00    -0.149 NA
HETATM    7  C   UNL     1      44.045 -17.498   1.222  1.00  0.00     0.275 A 
HETATM    8  N   UNL     1      42.771 -17.523   0.717  1.00  0.00    -0.054 NA
HETATM    9  C   UNL     1      42.548 -15.473   3.662  1.00  0.00     0.205 C 
HETATM   10  C   UNL     1      41.120 -14.968   3.459  1.00  0.00     0.063 C 
HETATM   11  H   UNL     1      40.255 -16.602   0.756  1.00  0.00     0.184 HD
ENDROOT
BRANCH  10  12
HETATM   12  C   UNL     1      40.711 -13.895   4.400  1.00  0.00     0.256 C 
HETATM   13  N   UNL     1      41.550 -12.800   4.367  1.00  0.00    -0.323 N 
HETATM   14  H   UNL     1      42.323 -12.836   3.714  1.00  0.00     0.169 HD
HETATM   15  O   UNL     1      39.711 -14.053   5.086  1.00  0.00    -0.267 OA
BRANCH  13  16
HETATM   16  C   UNL     1      41.472 -11.642   5.168  1.00  0.00     0.035 A 
HETATM   17  C   UNL     1      41.683 -11.634   6.549  1.00  0.00     0.031 A 
HETATM   18  C   UNL     1      41.602 -10.438   7.273  1.00  0.00     0.026 A 
HETATM   19  C   UNL     1      41.314  -9.246   6.617  1.00  0.00     0.034 A 
HETATM   20 CL   UNL     1      41.224  -7.776   7.505  1.00  0.00    -0.084 Cl
HETATM   21  C   UNL     1      41.099  -9.238   5.242  1.00  0.00     0.026 A 
HETATM   22  C   UNL     1      41.173 -10.435   4.521  1.00  0.00     0.031 A 
ENDBRANCH  13  16
ENDBRANCH  10  12
BRANCH   9  23
HETATM   23  C   UNL     1      42.716 -16.232   4.978  1.00  0.00     0.005 A 
HETATM   24  C   UNL     1      43.411 -15.653   6.058  1.00  0.00     0.076 A 
HETATM   25  C   UNL     1      43.558 -16.363   7.254  1.00  0.00     0.037 A 
HETATM   26  C   UNL     1      43.046 -17.655   7.380  1.00  0.00     0.003 A 
HETATM   27  C   UNL     1      42.380 -18.247   6.313  1.00  0.00     0.001 A 
HETATM   28  C   UNL     1      42.214 -17.543   5.121  1.00  0.00     0.012 A 
BRANCH  24  29
HETATM   29  O   UNL     1      43.880 -14.381   5.872  1.00  0.00    -0.355 OA
HETATM   30  C   UNL     1      44.800 -13.901   6.847  1.00  0.00     0.210 C 
ENDBRANCH  24  29
ENDBRANCH   9  23
TORSDOF 4
ENDMDL
MODEL 7
REMARK VINA RESULT:      -7.0      2.699      5.248
REMARK  4 active torsions:
REMARK  status: ('A' for Active; 'I' for Inactive)
REMARK    1  A    between atoms: C_9  and  C_10 
REMARK    2  A    between atoms: C_11  and  O_12 
REMARK    3  A    between atoms: C_18  and  C_19 
REMARK       I    between atoms: C_19  and  N_20 
REMARK    4  A    between atoms: N_20  and  C_21 
ROOT
HETATM    1  C   UNL     1      39.868 -13.943   4.514  1.00  0.00     0.070 C 
HETATM    2  C   UNL     1      40.116 -12.972   3.387  1.00  0.00     0.037 C 
HETATM    3  N   UNL     1      39.194 -11.937   3.272  1.00  0.00    -0.192 N 
HETATM    4  C   UNL     1      39.396 -10.862   2.486  1.00  0.00     0.725 A 
HETATM    5  N   UNL     1      40.474 -10.834   1.641  1.00  0.00    -0.084 N 
HETATM    6  N   UNL     1      40.559  -9.649   0.998  1.00  0.00    -0.149 NA
HETATM    7  C   UNL     1      39.473  -9.030   1.474  1.00  0.00     0.275 A 
HETATM    8  N   UNL     1      38.733  -9.738   2.386  1.00  0.00    -0.054 NA
HETATM    9  C   UNL     1      41.434 -11.937   1.497  1.00  0.00     0.205 C 
HETATM   10  C   UNL     1      41.181 -13.016   2.549  1.00  0.00     0.063 C 
HETATM   11  H   UNL     1      38.461 -11.879   3.974  1.00  0.00     0.184 HD
ENDROOT
BRANCH  10  12
HETATM   12  C   UNL     1      42.251 -14.042   2.642  1.00  0.00     0.256 C 
HETATM   13  N   UNL     1      41.804 -15.314   2.350  1.00  0.00    -0.323 N 
HETATM   14  H   UNL     1      40.830 -15.409   2.096  1.00  0.00     0.169 HD
HETATM   15  O   UNL     1      43.384 -13.696   2.945  1.00  0.00    -0.267 OA
BRANCH  13  16
HETATM   16  C   UNL     1      42.549 -16.511   2.398  1.00  0.00     0.035 A 
HETATM   17  C   UNL     1      43.365 -16.964   1.359  1.00  0.00     0.031 A 
HETATM   18  C   UNL     1      44.085 -18.157   1.489  1.00  0.00     0.026 A 
HETATM   19  C   UNL     1      43.994 -18.900   2.661  1.00  0.00     0.034 A 
HETATM   20 CL   UNL     1      44.887 -20.362   2.824  1.00  0.00    -0.084 Cl
HETATM   21  C   UNL     1      43.184 -18.464   3.705  1.00  0.00     0.026 A 
HETATM   22  C   UNL     1      42.459 -17.274   3.570  1.00  0.00     0.031 A 
ENDBRANCH  13  16
ENDBRANCH  10  12
BRANCH   9  23
HETATM   23  C   UNL     1      41.364 -12.486   0.071  1.00  0.00     0.005 A 
HETATM   24  C   UNL     1      42.334 -12.128  -0.884  1.00  0.00     0.076 A 
HETATM   25  C   UNL     1      42.253 -12.636  -2.185  1.00  0.00     0.037 A 
HETATM   26  C   UNL     1      41.201 -13.475  -2.554  1.00  0.00     0.003 A 
HETATM   27  C   UNL     1      40.223 -13.815  -1.626  1.00  0.00     0.001 A 
HETATM   28  C   UNL     1      40.302 -13.326  -0.323  1.00  0.00     0.012 A 
BRANCH  24  29
HETATM   29  O   UNL     1      43.344 -11.309  -0.455  1.00  0.00    -0.355 OA
HETATM   30  C   UNL     1      43.542 -10.112  -1.199  1.00  0.00     0.210 C 
ENDBRANCH  24  29
ENDBRANCH   9  23
TORSDOF 4
ENDMDL
MODEL 8
REMARK VINA RESULT:      -7.0      3.433      6.980
REMARK  4 active torsions:
REMARK  status: ('A' for Active; 'I' for Inactive)
REMARK    1  A    between atoms: C_9  and  C_10 
REMARK    2  A    between atoms: C_11  and  O_12 
REMARK    3  A    between atoms: C_18  and  C_19 
REMARK       I    between atoms: C_19  and  N_20 
REMARK    4  A    between atoms: N_20  and  C_21 
ROOT
HETATM    1  C   UNL     1      43.963 -13.719   6.801  1.00  0.00     0.070 C 
HETATM    2  C   UNL     1      43.685 -15.088   6.233  1.00  0.00     0.037 C 
HETATM    3  N   UNL     1      44.461 -16.121   6.749  1.00  0.00    -0.192 N 
HETATM    4  C   UNL     1      44.184 -17.422   6.534  1.00  0.00     0.725 A 
HETATM    5  N   UNL     1      43.194 -17.766   5.652  1.00  0.00    -0.084 N 
HETATM    6  N   UNL     1      43.003 -19.103   5.630  1.00  0.00    -0.149 NA
HETATM    7  C   UNL     1      43.945 -19.501   6.492  1.00  0.00     0.275 A 
HETATM    8  N   UNL     1      44.691 -18.504   7.067  1.00  0.00    -0.054 NA
HETATM    9  C   UNL     1      42.413 -16.795   4.873  1.00  0.00     0.205 C 
HETATM   10  C   UNL     1      42.717 -15.367   5.325  1.00  0.00     0.063 C 
HETATM   11  H   UNL     1      45.112 -15.893   7.496  1.00  0.00     0.184 HD
ENDROOT
BRANCH  10  12
HETATM   12  C   UNL     1      41.796 -14.341   4.773  1.00  0.00     0.256 C 
HETATM   13  N   UNL     1      42.371 -13.583   3.775  1.00  0.00    -0.323 N 
HETATM   14  H   UNL     1      43.325 -13.808   3.522  1.00  0.00     0.169 HD
HETATM   15  O   UNL     1      40.659 -14.260   5.216  1.00  0.00    -0.267 OA
BRANCH  13  16
HETATM   16  C   UNL     1      41.789 -12.499   3.086  1.00  0.00     0.035 A 
HETATM   17  C   UNL     1      41.195 -11.403   3.715  1.00  0.00     0.031 A 
HETATM   18  C   UNL     1      40.650 -10.358   2.959  1.00  0.00     0.026 A 
HETATM   19  C   UNL     1      40.703 -10.404   1.570  1.00  0.00     0.034 A 
HETATM   20 CL   UNL     1      40.043  -9.115   0.641  1.00  0.00    -0.084 Cl
HETATM   21  C   UNL     1      41.290 -11.490   0.928  1.00  0.00     0.026 A 
HETATM   22  C   UNL     1      41.827 -12.537   1.685  1.00  0.00     0.031 A 
ENDBRANCH  13  16
ENDBRANCH  10  12
BRANCH   9  23
HETATM   23  C   UNL     1      42.688 -17.004   3.383  1.00  0.00     0.005 A 
HETATM   24  C   UNL     1      41.636 -16.978   2.448  1.00  0.00     0.076 A 
HETATM   25  C   UNL     1      41.904 -17.175   1.090  1.00  0.00     0.037 A 
HETATM   26  C   UNL     1      43.206 -17.426   0.653  1.00  0.00     0.003 A 
HETATM   27  C   UNL     1      44.250 -17.479   1.570  1.00  0.00     0.001 A 
HETATM   28  C   UNL     1      43.995 -17.270   2.924  1.00  0.00     0.012 A 
BRANCH  24  29
HETATM   29  O   UNL     1      40.385 -16.718   2.941  1.00  0.00    -0.355 OA
HETATM   30  C   UNL     1      39.587 -15.813   2.185  1.00  0.00     0.210 C 
ENDBRANCH  24  29
ENDBRANCH   9  23
TORSDOF 4
ENDMDL
MODEL 9
REMARK VINA RESULT:      -6.9      3.134      6.042
REMARK  4 active torsions:
REMARK  status: ('A' for Active; 'I' for Inactive)
REMARK    1  A    between atoms: C_9  and  C_10 
REMARK    2  A    between atoms: C_11  and  O_12 
REMARK    3  A    between atoms: C_18  and  C_19 
REMARK       I    between atoms: C_19  and  N_20 
REMARK    4  A    between atoms: N_20  and  C_21 
ROOT
HETATM    1  C   UNL     1      41.249 -12.545   2.580  1.00  0.00     0.070 C 
HETATM    2  C   UNL     1      41.434 -12.574   1.083  1.00  0.00     0.037 C 
HETATM    3  N   UNL     1      41.502 -11.330   0.463  1.00  0.00    -0.192 N 
HETATM    4  C   UNL     1      41.900 -11.171  -0.814  1.00  0.00     0.725 A 
HETATM    5  N   UNL     1      42.107 -12.273  -1.601  1.00  0.00    -0.084 N 
HETATM    6  N   UNL     1      42.581 -11.922  -2.816  1.00  0.00    -0.149 NA
HETATM    7  C   UNL     1      42.592 -10.590  -2.702  1.00  0.00     0.275 A 
HETATM    8  N   UNL     1      42.181 -10.089  -1.494  1.00  0.00    -0.054 NA
HETATM    9  C   UNL     1      41.886 -13.655  -1.154  1.00  0.00     0.205 C 
HETATM   10  C   UNL     1      41.592 -13.700   0.345  1.00  0.00     0.063 C 
HETATM   11  H   UNL     1      41.474 -10.506   1.057  1.00  0.00     0.184 HD
ENDROOT
BRANCH  10  12
HETATM   12  C   UNL     1      41.603 -15.064   0.930  1.00  0.00     0.256 C 
HETATM   13  N   UNL     1      42.858 -15.465   1.339  1.00  0.00    -0.323 N 
HETATM   14  H   UNL     1      43.613 -14.802   1.214  1.00  0.00     0.169 HD
HETATM   15  O   UNL     1      40.554 -15.688   1.009  1.00  0.00    -0.267 OA
BRANCH  13  16
HETATM   16  C   UNL     1      43.219 -16.715   1.883  1.00  0.00     0.035 A 
HETATM   17  C   UNL     1      43.444 -17.863   1.119  1.00  0.00     0.031 A 
HETATM   18  C   UNL     1      43.813 -19.065   1.734  1.00  0.00     0.026 A 
HETATM   19  C   UNL     1      43.964 -19.122   3.116  1.00  0.00     0.034 A 
HETATM   20 CL   UNL     1      44.427 -20.596   3.870  1.00  0.00    -0.084 Cl
HETATM   21  C   UNL     1      43.741 -17.987   3.891  1.00  0.00     0.026 A 
HETATM   22  C   UNL     1      43.364 -16.789   3.275  1.00  0.00     0.031 A 
ENDBRANCH  13  16
ENDBRANCH  10  12
BRANCH   9  23
HETATM   23  C   UNL     1      40.766 -14.282  -1.986  1.00  0.00     0.005 A 
HETATM   24  C   UNL     1      39.464 -13.750  -1.954  1.00  0.00     0.076 A 
HETATM   25  C   UNL     1      38.450 -14.337  -2.719  1.00  0.00     0.037 A 
HETATM   26  C   UNL     1      38.712 -15.467  -3.495  1.00  0.00     0.003 A 
HETATM   27  C   UNL     1      39.989 -16.017  -3.516  1.00  0.00     0.001 A 
HETATM   28  C   UNL     1      41.010 -15.430  -2.769  1.00  0.00     0.012 A 
BRANCH  24  29
HETATM   29  O   UNL     1      39.276 -12.636  -1.179  1.00  0.00    -0.355 OA
HETATM   30  C   UNL     1      38.048 -12.570  -0.461  1.00  0.00     0.210 C 
ENDBRANCH  24  29
ENDBRANCH   9  23
TORSDOF 4
ENDMDL
MODEL 10
REMARK VINA RESULT:      -6.8      4.302      6.501
REMARK  4 active torsions:
REMARK  status: ('A' for Active; 'I' for Inactive)
REMARK    1  A    between atoms: C_9  and  C_10 
REMARK    2  A    between atoms: C_11  and  O_12 
REMARK    3  A    between atoms: C_18  and  C_19 
REMARK       I    between atoms: C_19  and  N_20 
REMARK    4  A    between atoms: N_20  and  C_21 
ROOT
HETATM    1  C   UNL     1      38.850 -15.930  -3.987  1.00  0.00     0.070 C 
HETATM    2  C   UNL     1      38.880 -14.566  -3.343  1.00  0.00     0.037 C 
HETATM    3  N   UNL     1      38.014 -13.625  -3.890  1.00  0.00    -0.192 N 
HETATM    4  C   UNL     1      37.740 -12.448  -3.294  1.00  0.00     0.725 A 
HETATM    5  N   UNL     1      38.444 -12.075  -2.180  1.00  0.00    -0.084 N 
HETATM    6  N   UNL     1      37.976 -10.913  -1.674  1.00  0.00    -0.149 NA
HETATM    7  C   UNL     1      37.019 -10.624  -2.563  1.00  0.00     0.275 A 
HETATM    8  N   UNL     1      36.843 -11.537  -3.571  1.00  0.00    -0.054 NA
HETATM    9  C   UNL     1      39.533 -12.868  -1.591  1.00  0.00     0.205 C 
HETATM   10  C   UNL     1      39.631 -14.236  -2.264  1.00  0.00     0.063 C 
HETATM   11  H   UNL     1      37.396 -13.932  -4.638  1.00  0.00     0.184 HD
ENDROOT
BRANCH  10  12
HETATM   12  C   UNL     1      40.530 -15.194  -1.572  1.00  0.00     0.256 C 
HETATM   13  N   UNL     1      40.272 -15.298  -0.222  1.00  0.00    -0.323 N 
HETATM   14  H   UNL     1      39.511 -14.739   0.142  1.00  0.00     0.169 HD
HETATM   15  O   UNL     1      41.377 -15.792  -2.222  1.00  0.00    -0.267 OA
BRANCH  13  16
HETATM   16  C   UNL     1      40.973 -16.074   0.724  1.00  0.00     0.035 A 
HETATM   17  C   UNL     1      42.237 -16.624   0.498  1.00  0.00     0.031 A 
HETATM   18  C   UNL     1      42.875 -17.373   1.494  1.00  0.00     0.026 A 
HETATM   19  C   UNL     1      42.253 -17.569   2.722  1.00  0.00     0.034 A 
HETATM   20 CL   UNL     1      43.042 -18.481   3.949  1.00  0.00    -0.084 Cl
HETATM   21  C   UNL     1      40.993 -17.029   2.962  1.00  0.00     0.026 A 
HETATM   22  C   UNL     1      40.353 -16.288   1.963  1.00  0.00     0.031 A 
ENDBRANCH  13  16
ENDBRANCH  10  12
BRANCH   9  23
HETATM   23  C   UNL     1      40.839 -12.078  -1.682  1.00  0.00     0.005 A 
HETATM   24  C   UNL     1      41.595 -11.806  -0.526  1.00  0.00     0.076 A 
HETATM   25  C   UNL     1      42.786 -11.080  -0.625  1.00  0.00     0.037 A 
HETATM   26  C   UNL     1      43.220 -10.596  -1.861  1.00  0.00     0.003 A 
HETATM   27  C   UNL     1      42.469 -10.837  -3.006  1.00  0.00     0.001 A 
HETATM   28  C   UNL     1      41.288 -11.572  -2.920  1.00  0.00     0.012 A 
BRANCH  24  29
HETATM   29  O   UNL     1      41.119 -12.316   0.652  1.00  0.00    -0.355 OA
HETATM   30  C   UNL     1      42.097 -12.692   1.616  1.00  0.00     0.210 C 
ENDBRANCH  24  29
ENDBRANCH   9  23
TORSDOF 4
ENDMDL
