MODEL 1
REMARK VINA RESULT:      -9.3      0.000      0.000
REMARK  11 active torsions:
REMARK  status: ('A' for Active; 'I' for Inactive)
REMARK    1  A    between atoms: C_2  and  O_3 
REMARK    2  A    between atoms: O_3  and  C_4 
REMARK    3  A    between atoms: C_5  and  O_6 
REMARK    4  A    between atoms: O_6  and  C_7 
REMARK    5  A    between atoms: C_7  and  C_8 
REMARK       I    between atoms: C_8  and  N_9 
REMARK    6  A    between atoms: N_9  and  C_10 
REMARK    7  A    between atoms: C_11  and  O_12 
REMARK    8  A    between atoms: C_21  and  C_22 
REMARK    9  A    between atoms: C_27  and  C_28 
REMARK   10  A    between atoms: C_34  and  C_35 
REMARK   11  A    between atoms: C_35  and  C_36 
ROOT
HETATM    1  C   UNL     1      42.020 -13.000   5.093  1.00  0.00     0.102 A 
HETATM    2  C   UNL     1      40.789 -12.382   5.337  1.00  0.00     0.102 A 
HETATM    3  C   UNL     1      40.001 -11.932   4.277  1.00  0.00     0.040 A 
HETATM    4  C   UNL     1      40.416 -12.133   2.964  1.00  0.00     0.012 A 
HETATM    5  C   UNL     1      41.632 -12.777   2.694  1.00  0.00    -0.028 A 
HETATM    6  C   UNL     1      42.411 -13.238   3.772  1.00  0.00     0.049 A 
ENDROOT
BRANCH   5   7
HETATM    7  C   UNL     1      42.090 -12.948   1.257  1.00  0.00     0.157 C 
HETATM    8  N   UNL     1      42.275 -11.638   0.662  1.00  0.00    -0.354 N 
HETATM    9  C   UNL     1      42.199 -11.411  -0.673  1.00  0.00     0.173 C 
HETATM   10  H   UNL     1      42.752 -10.927   1.206  1.00  0.00     0.163 HD
HETATM   11  S   UNL     1      42.773 -10.008  -1.346  1.00  0.00    -0.041 SA
HETATM   12  N   UNL     1      41.593 -12.372  -1.422  1.00  0.00    -0.332 N 
HETATM   13  C   UNL     1      41.022 -13.515  -0.909  1.00  0.00     0.057 C 
HETATM   14  H   UNL     1      41.456 -12.161  -2.406  1.00  0.00     0.168 HD
HETATM   15  C   UNL     1      41.219 -13.823   0.387  1.00  0.00     0.047 C 
BRANCH  13  16
HETATM   16  C   UNL     1      40.257 -14.321  -1.872  1.00  0.00    -0.009 A 
HETATM   17  C   UNL     1      38.948 -13.962  -2.217  1.00  0.00     0.014 A 
HETATM   18  C   UNL     1      38.243 -14.700  -3.169  1.00  0.00     0.001 A 
HETATM   19  C   UNL     1      38.843 -15.795  -3.786  1.00  0.00     0.000 A 
HETATM   20  C   UNL     1      40.147 -16.158  -3.450  1.00  0.00     0.001 A 
HETATM   21  C   UNL     1      40.853 -15.424  -2.496  1.00  0.00     0.014 A 
ENDBRANCH  13  16
BRANCH  15  22
HETATM   22  C   UNL     1      40.560 -15.009   1.008  1.00  0.00     0.193 C 
HETATM   23  O   UNL     1      39.361 -15.004   1.266  1.00  0.00    -0.287 OA
BRANCH  22  24
HETATM   24  C   UNL     1      41.410 -16.143   1.457  1.00  0.00     0.015 A 
HETATM   25  C   UNL     1      41.191 -16.658   2.742  1.00  0.00     0.015 A 
HETATM   26  C   UNL     1      41.994 -17.689   3.230  1.00  0.00     0.001 A 
HETATM   27  C   UNL     1      43.008 -18.217   2.433  1.00  0.00     0.000 A 
HETATM   28  C   UNL     1      43.215 -17.723   1.144  1.00  0.00     0.001 A 
HETATM   29  C   UNL     1      42.413 -16.691   0.650  1.00  0.00     0.015 A 
ENDBRANCH  22  24
ENDBRANCH  15  22
ENDBRANCH   5   7
BRANCH   1  30
HETATM   30  O   UNL     1      42.774 -13.379   6.172  1.00  0.00    -0.349 OA
BRANCH  30  31
HETATM   31  C   UNL     1      43.991 -14.068   5.863  1.00  0.00     0.171 C 
HETATM   32  C   UNL     1      44.332 -15.033   6.984  1.00  0.00     0.034 C 
ENDBRANCH  30  31
ENDBRANCH   1  30
BRANCH   2  33
HETATM   33  O   UNL     1      40.337 -12.084   6.596  1.00  0.00    -0.339 OA
BRANCH  33  34
HETATM   34  C   UNL     1      40.290 -10.673   6.854  1.00  0.00     0.278 C 
BRANCH  34  35
HETATM   35  C   UNL     1      41.519 -10.218   7.659  1.00  0.00     0.246 C 
HETATM   36  N   UNL     1      41.982 -11.208   8.513  1.00  0.00    -0.323 N 
HETATM   37  H   UNL     1      41.582 -12.119   8.328  1.00  0.00     0.169 HD
HETATM   38  O   UNL     1      42.028  -9.120   7.452  1.00  0.00    -0.271 OA
BRANCH  36  39
HETATM   39  C   UNL     1      43.126 -11.163   9.334  1.00  0.00     0.068 A 
HETATM   40  C   UNL     1      43.165 -10.609  10.626  1.00  0.00     0.095 A 
HETATM   41  C   UNL     1      44.387 -10.574  11.313  1.00  0.00     0.039 A 
HETATM   42  C   UNL     1      45.543 -11.121  10.747  1.00  0.00     0.003 A 
HETATM   43  C   UNL     1      45.487 -11.728   9.500  1.00  0.00     0.002 A 
HETATM   44  C   UNL     1      44.281 -11.760   8.802  1.00  0.00     0.032 A 
BRANCH  40  45
HETATM   45  O   UNL     1      41.971 -10.235  11.182  1.00  0.00    -0.354 OA
HETATM   46  C   UNL     1      41.366 -11.113  12.120  1.00  0.00     0.210 C 
ENDBRANCH  40  45
ENDBRANCH  36  39
ENDBRANCH  34  35
ENDBRANCH  33  34
ENDBRANCH   2  33
TORSDOF 11
ENDMDL
MODEL 2
REMARK VINA RESULT:      -9.0      3.612      9.092
REMARK  11 active torsions:
REMARK  status: ('A' for Active; 'I' for Inactive)
REMARK    1  A    between atoms: C_2  and  O_3 
REMARK    2  A    between atoms: O_3  and  C_4 
REMARK    3  A    between atoms: C_5  and  O_6 
REMARK    4  A    between atoms: O_6  and  C_7 
REMARK    5  A    between atoms: C_7  and  C_8 
REMARK       I    between atoms: C_8  and  N_9 
REMARK    6  A    between atoms: N_9  and  C_10 
REMARK    7  A    between atoms: C_11  and  O_12 
REMARK    8  A    between atoms: C_21  and  C_22 
REMARK    9  A    between atoms: C_27  and  C_28 
REMARK   10  A    between atoms: C_34  and  C_35 
REMARK   11  A    between atoms: C_35  and  C_36 
ROOT
HETATM    1  C   UNL     1      41.731 -12.636   2.310  1.00  0.00     0.102 A 
HETATM    2  C   UNL     1      40.357 -12.373   2.275  1.00  0.00     0.102 A 
HETATM    3  C   UNL     1      39.537 -12.757   3.336  1.00  0.00     0.040 A 
HETATM    4  C   UNL     1      40.086 -13.369   4.459  1.00  0.00     0.012 A 
HETATM    5  C   UNL     1      41.464 -13.616   4.529  1.00  0.00    -0.028 A 
HETATM    6  C   UNL     1      42.283 -13.212   3.458  1.00  0.00     0.049 A 
ENDROOT
BRANCH   5   7
HETATM    7  C   UNL     1      42.040 -14.325   5.743  1.00  0.00     0.157 C 
HETATM    8  N   UNL     1      43.211 -13.600   6.200  1.00  0.00    -0.354 N 
HETATM    9  C   UNL     1      44.213 -14.179   6.907  1.00  0.00     0.173 C 
HETATM   10  H   UNL     1      43.160 -12.589   6.250  1.00  0.00     0.163 HD
HETATM   11  S   UNL     1      45.334 -13.269   7.723  1.00  0.00    -0.041 SA
HETATM   12  N   UNL     1      44.274 -15.538   6.879  1.00  0.00    -0.332 N 
HETATM   13  C   UNL     1      43.425 -16.341   6.151  1.00  0.00     0.057 C 
HETATM   14  H   UNL     1      45.075 -15.966   7.334  1.00  0.00     0.168 HD
HETATM   15  C   UNL     1      42.342 -15.793   5.567  1.00  0.00     0.047 C 
BRANCH  13  16
HETATM   16  C   UNL     1      43.787 -17.766   6.113  1.00  0.00    -0.009 A 
HETATM   17  C   UNL     1      43.353 -18.636   7.120  1.00  0.00     0.014 A 
HETATM   18  C   UNL     1      43.656 -19.997   7.054  1.00  0.00     0.001 A 
HETATM   19  C   UNL     1      44.387 -20.497   5.979  1.00  0.00     0.000 A 
HETATM   20  C   UNL     1      44.821 -19.638   4.970  1.00  0.00     0.001 A 
HETATM   21  C   UNL     1      44.523 -18.276   5.035  1.00  0.00     0.014 A 
ENDBRANCH  13  16
BRANCH  15  22
HETATM   22  C   UNL     1      41.436 -16.606   4.706  1.00  0.00     0.193 C 
HETATM   23  O   UNL     1      40.609 -17.368   5.198  1.00  0.00    -0.287 OA
BRANCH  22  24
HETATM   24  C   UNL     1      41.654 -16.602   3.235  1.00  0.00     0.015 A 
HETATM   25  C   UNL     1      40.536 -16.436   2.406  1.00  0.00     0.015 A 
HETATM   26  C   UNL     1      40.681 -16.474   1.019  1.00  0.00     0.001 A 
HETATM   27  C   UNL     1      41.941 -16.666   0.456  1.00  0.00     0.000 A 
HETATM   28  C   UNL     1      43.061 -16.809   1.278  1.00  0.00     0.001 A 
HETATM   29  C   UNL     1      42.922 -16.770   2.667  1.00  0.00     0.015 A 
ENDBRANCH  22  24
ENDBRANCH  15  22
ENDBRANCH   5   7
BRANCH   1  30
HETATM   30  O   UNL     1      42.481 -12.281   1.222  1.00  0.00    -0.349 OA
BRANCH  30  31
HETATM   31  C   UNL     1      42.215 -13.016   0.021  1.00  0.00     0.171 C 
HETATM   32  C   UNL     1      42.486 -12.138  -1.187  1.00  0.00     0.034 C 
ENDBRANCH  30  31
ENDBRANCH   1  30
BRANCH   2  33
HETATM   33  O   UNL     1      39.725 -11.838   1.184  1.00  0.00    -0.339 OA
BRANCH  33  34
HETATM   34  C   UNL     1      38.337 -12.193   1.112  1.00  0.00     0.278 C 
BRANCH  34  35
HETATM   35  C   UNL     1      38.117 -13.370   0.148  1.00  0.00     0.246 C 
HETATM   36  N   UNL     1      38.776 -13.189  -1.059  1.00  0.00    -0.323 N 
HETATM   37  H   UNL     1      39.450 -12.434  -1.041  1.00  0.00     0.169 HD
HETATM   38  O   UNL     1      37.487 -14.361   0.507  1.00  0.00    -0.271 OA
BRANCH  36  39
HETATM   39  C   UNL     1      38.858 -14.096  -2.134  1.00  0.00     0.068 A 
HETATM   40  C   UNL     1      37.882 -14.239  -3.138  1.00  0.00     0.095 A 
HETATM   41  C   UNL     1      38.058 -15.225  -4.120  1.00  0.00     0.039 A 
HETATM   42  C   UNL     1      39.204 -16.027  -4.133  1.00  0.00     0.003 A 
HETATM   43  C   UNL     1      40.197 -15.837  -3.180  1.00  0.00     0.002 A 
HETATM   44  C   UNL     1      40.029 -14.869  -2.193  1.00  0.00     0.032 A 
BRANCH  40  45
HETATM   45  O   UNL     1      36.867 -13.322  -3.159  1.00  0.00    -0.354 OA
HETATM   46  C   UNL     1      36.939 -12.263  -4.102  1.00  0.00     0.210 C 
ENDBRANCH  40  45
ENDBRANCH  36  39
ENDBRANCH  34  35
ENDBRANCH  33  34
ENDBRANCH   2  33
TORSDOF 11
ENDMDL
MODEL 3
REMARK VINA RESULT:      -8.9      2.502      4.371
REMARK  11 active torsions:
REMARK  status: ('A' for Active; 'I' for Inactive)
REMARK    1  A    between atoms: C_2  and  O_3 
REMARK    2  A    between atoms: O_3  and  C_4 
REMARK    3  A    between atoms: C_5  and  O_6 
REMARK    4  A    between atoms: O_6  and  C_7 
REMARK    5  A    between atoms: C_7  and  C_8 
REMARK       I    between atoms: C_8  and  N_9 
REMARK    6  A    between atoms: N_9  and  C_10 
REMARK    7  A    between atoms: C_11  and  O_12 
REMARK    8  A    between atoms: C_21  and  C_22 
REMARK    9  A    between atoms: C_27  and  C_28 
REMARK   10  A    between atoms: C_34  and  C_35 
REMARK   11  A    between atoms: C_35  and  C_36 
ROOT
HETATM    1  C   UNL     1      40.850 -10.580   5.752  1.00  0.00     0.102 A 
HETATM    2  C   UNL     1      39.705 -11.092   6.371  1.00  0.00     0.102 A 
HETATM    3  C   UNL     1      38.997 -12.144   5.789  1.00  0.00     0.040 A 
HETATM    4  C   UNL     1      39.451 -12.721   4.606  1.00  0.00     0.012 A 
HETATM    5  C   UNL     1      40.613 -12.245   3.984  1.00  0.00    -0.028 A 
HETATM    6  C   UNL     1      41.325 -11.192   4.588  1.00  0.00     0.049 A 
ENDROOT
BRANCH   5   7
HETATM    7  C   UNL     1      41.068 -12.857   2.671  1.00  0.00     0.157 C 
HETATM    8  N   UNL     1      39.922 -12.992   1.792  1.00  0.00    -0.354 N 
HETATM    9  C   UNL     1      39.859 -13.903   0.789  1.00  0.00     0.173 C 
HETATM   10  H   UNL     1      39.274 -12.216   1.726  1.00  0.00     0.163 HD
HETATM   11  S   UNL     1      38.722 -13.789  -0.413  1.00  0.00    -0.041 SA
HETATM   12  N   UNL     1      40.747 -14.933   0.843  1.00  0.00    -0.332 N 
HETATM   13  C   UNL     1      41.655 -15.126   1.860  1.00  0.00     0.057 C 
HETATM   14  H   UNL     1      40.640 -15.661   0.143  1.00  0.00     0.168 HD
HETATM   15  C   UNL     1      41.828 -14.157   2.779  1.00  0.00     0.047 C 
BRANCH  13  16
HETATM   16  C   UNL     1      42.384 -16.402   1.815  1.00  0.00    -0.009 A 
HETATM   17  C   UNL     1      43.735 -16.436   1.447  1.00  0.00     0.014 A 
HETATM   18  C   UNL     1      44.438 -17.641   1.455  1.00  0.00     0.001 A 
HETATM   19  C   UNL     1      43.798 -18.819   1.838  1.00  0.00     0.000 A 
HETATM   20  C   UNL     1      42.454 -18.794   2.209  1.00  0.00     0.001 A 
HETATM   21  C   UNL     1      41.748 -17.590   2.199  1.00  0.00     0.014 A 
ENDBRANCH  13  16
BRANCH  15  22
HETATM   22  C   UNL     1      42.743 -14.350   3.941  1.00  0.00     0.193 C 
HETATM   23  O   UNL     1      43.801 -13.735   4.023  1.00  0.00    -0.287 OA
BRANCH  22  24
HETATM   24  C   UNL     1      42.432 -15.422   4.924  1.00  0.00     0.015 A 
HETATM   25  C   UNL     1      43.473 -16.270   5.322  1.00  0.00     0.015 A 
HETATM   26  C   UNL     1      43.223 -17.321   6.204  1.00  0.00     0.001 A 
HETATM   27  C   UNL     1      41.936 -17.521   6.699  1.00  0.00     0.000 A 
HETATM   28  C   UNL     1      40.899 -16.665   6.323  1.00  0.00     0.001 A 
HETATM   29  C   UNL     1      41.145 -15.610   5.441  1.00  0.00     0.015 A 
ENDBRANCH  22  24
ENDBRANCH  15  22
ENDBRANCH   5   7
BRANCH   1  30
HETATM   30  O   UNL     1      41.478  -9.516   6.343  1.00  0.00    -0.349 OA
BRANCH  30  31
HETATM   31  C   UNL     1      41.705  -8.385   5.494  1.00  0.00     0.171 C 
HETATM   32  C   UNL     1      40.417  -7.597   5.335  1.00  0.00     0.034 C 
ENDBRANCH  30  31
ENDBRANCH   1  30
BRANCH   2  33
HETATM   33  O   UNL     1      39.152 -10.541   7.497  1.00  0.00    -0.339 OA
BRANCH  33  34
HETATM   34  C   UNL     1      39.342 -11.350   8.667  1.00  0.00     0.278 C 
BRANCH  34  35
HETATM   35  C   UNL     1      39.912 -10.518   9.827  1.00  0.00     0.246 C 
HETATM   36  N   UNL     1      40.774 -11.256  10.626  1.00  0.00    -0.323 N 
HETATM   37  H   UNL     1      41.050 -12.139  10.214  1.00  0.00     0.169 HD
HETATM   38  O   UNL     1      39.656  -9.321   9.922  1.00  0.00    -0.271 OA
BRANCH  36  39
HETATM   39  C   UNL     1      41.531 -10.795  11.722  1.00  0.00     0.068 A 
HETATM   40  C   UNL     1      42.843 -10.295  11.637  1.00  0.00     0.095 A 
HETATM   41  C   UNL     1      43.507  -9.926  12.816  1.00  0.00     0.039 A 
HETATM   42  C   UNL     1      42.864 -10.009  14.055  1.00  0.00     0.003 A 
HETATM   43  C   UNL     1      41.545 -10.438  14.128  1.00  0.00     0.002 A 
HETATM   44  C   UNL     1      40.878 -10.819  12.965  1.00  0.00     0.032 A 
BRANCH  40  45
HETATM   45  O   UNL     1      43.356 -10.093  10.384  1.00  0.00    -0.354 OA
HETATM   46  C   UNL     1      44.375 -10.970   9.928  1.00  0.00     0.210 C 
ENDBRANCH  40  45
ENDBRANCH  36  39
ENDBRANCH  34  35
ENDBRANCH  33  34
ENDBRANCH   2  33
TORSDOF 11
ENDMDL
MODEL 4
REMARK VINA RESULT:      -8.9      3.713      9.306
REMARK  11 active torsions:
REMARK  status: ('A' for Active; 'I' for Inactive)
REMARK    1  A    between atoms: C_2  and  O_3 
REMARK    2  A    between atoms: O_3  and  C_4 
REMARK    3  A    between atoms: C_5  and  O_6 
REMARK    4  A    between atoms: O_6  and  C_7 
REMARK    5  A    between atoms: C_7  and  C_8 
REMARK       I    between atoms: C_8  and  N_9 
REMARK    6  A    between atoms: N_9  and  C_10 
REMARK    7  A    between atoms: C_11  and  O_12 
REMARK    8  A    between atoms: C_21  and  C_22 
REMARK    9  A    between atoms: C_27  and  C_28 
REMARK   10  A    between atoms: C_34  and  C_35 
REMARK   11  A    between atoms: C_35  and  C_36 
ROOT
HETATM    1  C   UNL     1      40.016 -13.295   2.592  1.00  0.00     0.102 A 
HETATM    2  C   UNL     1      40.990 -12.734   1.760  1.00  0.00     0.102 A 
HETATM    3  C   UNL     1      42.334 -12.748   2.137  1.00  0.00     0.040 A 
HETATM    4  C   UNL     1      42.720 -13.360   3.326  1.00  0.00     0.012 A 
HETATM    5  C   UNL     1      41.764 -13.955   4.161  1.00  0.00    -0.028 A 
HETATM    6  C   UNL     1      40.414 -13.946   3.763  1.00  0.00     0.049 A 
ENDROOT
BRANCH   5   7
HETATM    7  C   UNL     1      42.199 -14.579   5.475  1.00  0.00     0.157 C 
HETATM    8  N   UNL     1      43.338 -13.844   5.991  1.00  0.00    -0.354 N 
HETATM    9  C   UNL     1      44.250 -14.387   6.837  1.00  0.00     0.173 C 
HETATM   10  H   UNL     1      43.311 -12.831   5.960  1.00  0.00     0.163 HD
HETATM   11  S   UNL     1      45.310 -13.438   7.690  1.00  0.00    -0.041 SA
HETATM   12  N   UNL     1      44.276 -15.744   6.918  1.00  0.00    -0.332 N 
HETATM   13  C   UNL     1      43.481 -16.584   6.171  1.00  0.00     0.057 C 
HETATM   14  H   UNL     1      45.017 -16.151   7.481  1.00  0.00     0.168 HD
HETATM   15  C   UNL     1      42.476 -16.062   5.442  1.00  0.00     0.047 C 
BRANCH  13  16
HETATM   16  C   UNL     1      43.806 -18.015   6.277  1.00  0.00    -0.009 A 
HETATM   17  C   UNL     1      43.358 -18.766   7.371  1.00  0.00     0.014 A 
HETATM   18  C   UNL     1      43.625 -20.133   7.442  1.00  0.00     0.001 A 
HETATM   19  C   UNL     1      44.334 -20.760   6.419  1.00  0.00     0.000 A 
HETATM   20  C   UNL     1      44.780 -20.020   5.325  1.00  0.00     0.001 A 
HETATM   21  C   UNL     1      44.518 -18.651   5.252  1.00  0.00     0.014 A 
ENDBRANCH  13  16
BRANCH  15  22
HETATM   22  C   UNL     1      41.636 -16.921   4.558  1.00  0.00     0.193 C 
HETATM   23  O   UNL     1      40.797 -17.684   5.028  1.00  0.00    -0.287 OA
BRANCH  22  24
HETATM   24  C   UNL     1      41.939 -16.960   3.103  1.00  0.00     0.015 A 
HETATM   25  C   UNL     1      43.285 -16.980   2.713  1.00  0.00     0.015 A 
HETATM   26  C   UNL     1      43.623 -16.967   1.360  1.00  0.00     0.001 A 
HETATM   27  C   UNL     1      42.620 -16.945   0.393  1.00  0.00     0.000 A 
HETATM   28  C   UNL     1      41.277 -16.947   0.776  1.00  0.00     0.001 A 
HETATM   29  C   UNL     1      40.933 -16.963   2.130  1.00  0.00     0.015 A 
ENDBRANCH  22  24
ENDBRANCH  15  22
ENDBRANCH   5   7
BRANCH   1  30
HETATM   30  O   UNL     1      38.707 -13.211   2.196  1.00  0.00    -0.349 OA
BRANCH  30  31
HETATM   31  C   UNL     1      38.223 -14.319   1.426  1.00  0.00     0.171 C 
HETATM   32  C   UNL     1      37.203 -13.831   0.414  1.00  0.00     0.034 C 
ENDBRANCH  30  31
ENDBRANCH   1  30
BRANCH   2  33
HETATM   33  O   UNL     1      40.691 -12.054   0.609  1.00  0.00    -0.339 OA
BRANCH  33  34
HETATM   34  C   UNL     1      41.790 -12.005  -0.313  1.00  0.00     0.278 C 
BRANCH  34  35
HETATM   35  C   UNL     1      41.486 -12.824  -1.579  1.00  0.00     0.246 C 
HETATM   36  N   UNL     1      40.365 -13.625  -1.426  1.00  0.00    -0.323 N 
HETATM   37  H   UNL     1      39.814 -13.399  -0.607  1.00  0.00     0.169 HD
HETATM   38  O   UNL     1      42.153 -12.668  -2.597  1.00  0.00    -0.271 OA
BRANCH  36  39
HETATM   39  C   UNL     1      39.757 -14.441  -2.401  1.00  0.00     0.068 A 
HETATM   40  C   UNL     1      38.557 -14.134  -3.070  1.00  0.00     0.095 A 
HETATM   41  C   UNL     1      38.028 -15.065  -3.976  1.00  0.00     0.039 A 
HETATM   42  C   UNL     1      38.700 -16.260  -4.250  1.00  0.00     0.003 A 
HETATM   43  C   UNL     1      39.918 -16.529  -3.639  1.00  0.00     0.002 A 
HETATM   44  C   UNL     1      40.449 -15.618  -2.728  1.00  0.00     0.032 A 
BRANCH  40  45
HETATM   45  O   UNL     1      38.035 -12.884  -2.874  1.00  0.00    -0.354 OA
HETATM   46  C   UNL     1      36.953 -12.475  -3.698  1.00  0.00     0.210 C 
ENDBRANCH  40  45
ENDBRANCH  36  39
ENDBRANCH  34  35
ENDBRANCH  33  34
ENDBRANCH   2  33
TORSDOF 11
ENDMDL
MODEL 5
REMARK VINA RESULT:      -8.6      0.976      2.549
REMARK  11 active torsions:
REMARK  status: ('A' for Active; 'I' for Inactive)
REMARK    1  A    between atoms: C_2  and  O_3 
REMARK    2  A    between atoms: O_3  and  C_4 
REMARK    3  A    between atoms: C_5  and  O_6 
REMARK    4  A    between atoms: O_6  and  C_7 
REMARK    5  A    between atoms: C_7  and  C_8 
REMARK       I    between atoms: C_8  and  N_9 
REMARK    6  A    between atoms: N_9  and  C_10 
REMARK    7  A    between atoms: C_11  and  O_12 
REMARK    8  A    between atoms: C_21  and  C_22 
REMARK    9  A    between atoms: C_27  and  C_28 
REMARK   10  A    between atoms: C_34  and  C_35 
REMARK   11  A    between atoms: C_35  and  C_36 
ROOT
HETATM    1  C   UNL     1      39.601 -11.748   4.443  1.00  0.00     0.102 A 
HETATM    2  C   UNL     1      40.349 -12.158   5.551  1.00  0.00     0.102 A 
HETATM    3  C   UNL     1      41.587 -12.779   5.377  1.00  0.00     0.040 A 
HETATM    4  C   UNL     1      42.106 -12.956   4.098  1.00  0.00     0.012 A 
HETATM    5  C   UNL     1      41.387 -12.526   2.974  1.00  0.00    -0.028 A 
HETATM    6  C   UNL     1      40.146 -11.890   3.164  1.00  0.00     0.049 A 
ENDROOT
BRANCH   5   7
HETATM    7  C   UNL     1      41.949 -12.768   1.584  1.00  0.00     0.157 C 
HETATM    8  N   UNL     1      42.238 -11.488   0.964  1.00  0.00    -0.354 N 
HETATM    9  C   UNL     1      42.277 -11.308  -0.380  1.00  0.00     0.173 C 
HETATM   10  H   UNL     1      42.701 -10.779   1.520  1.00  0.00     0.163 HD
HETATM   11  S   UNL     1      42.964  -9.954  -1.051  1.00  0.00    -0.041 SA
HETATM   12  N   UNL     1      41.691 -12.269  -1.143  1.00  0.00    -0.332 N 
HETATM   13  C   UNL     1      41.031 -13.368  -0.640  1.00  0.00     0.057 C 
HETATM   14  H   UNL     1      41.641 -12.088  -2.142  1.00  0.00     0.168 HD
HETATM   15  C   UNL     1      41.112 -13.636   0.677  1.00  0.00     0.047 C 
BRANCH  13  16
HETATM   16  C   UNL     1      40.309 -14.176  -1.634  1.00  0.00    -0.009 A 
HETATM   17  C   UNL     1      38.986 -13.869  -1.973  1.00  0.00     0.014 A 
HETATM   18  C   UNL     1      38.321 -14.606  -2.954  1.00  0.00     0.001 A 
HETATM   19  C   UNL     1      38.975 -15.649  -3.606  1.00  0.00     0.000 A 
HETATM   20  C   UNL     1      40.294 -15.959  -3.277  1.00  0.00     0.001 A 
HETATM   21  C   UNL     1      40.961 -15.226  -2.294  1.00  0.00     0.014 A 
ENDBRANCH  13  16
BRANCH  15  22
HETATM   22  C   UNL     1      40.354 -14.771   1.281  1.00  0.00     0.193 C 
HETATM   23  O   UNL     1      39.150 -14.684   1.499  1.00  0.00    -0.287 OA
BRANCH  22  24
HETATM   24  C   UNL     1      41.110 -15.956   1.765  1.00  0.00     0.015 A 
HETATM   25  C   UNL     1      40.972 -16.318   3.112  1.00  0.00     0.015 A 
HETATM   26  C   UNL     1      41.697 -17.392   3.627  1.00  0.00     0.001 A 
HETATM   27  C   UNL     1      42.553 -18.115   2.797  1.00  0.00     0.000 A 
HETATM   28  C   UNL     1      42.677 -17.772   1.450  1.00  0.00     0.001 A 
HETATM   29  C   UNL     1      41.951 -16.699   0.928  1.00  0.00     0.015 A 
ENDBRANCH  22  24
ENDBRANCH  15  22
ENDBRANCH   5   7
BRANCH   1  30
HETATM   30  O   UNL     1      38.372 -11.187   4.670  1.00  0.00    -0.349 OA
BRANCH  30  31
HETATM   31  C   UNL     1      38.077 -10.014   3.902  1.00  0.00     0.171 C 
HETATM   32  C   UNL     1      38.148  -8.788   4.794  1.00  0.00     0.034 C 
ENDBRANCH  30  31
ENDBRANCH   1  30
BRANCH   2  33
HETATM   33  O   UNL     1      39.886 -12.084   6.838  1.00  0.00    -0.339 OA
BRANCH  33  34
HETATM   34  C   UNL     1      39.950 -10.757   7.380  1.00  0.00     0.278 C 
BRANCH  34  35
HETATM   35  C   UNL     1      41.383 -10.406   7.814  1.00  0.00     0.246 C 
HETATM   36  N   UNL     1      41.846 -11.247   8.815  1.00  0.00    -0.323 N 
HETATM   37  H   UNL     1      41.268 -12.066   8.955  1.00  0.00     0.169 HD
HETATM   38  O   UNL     1      42.013  -9.525   7.236  1.00  0.00    -0.271 OA
BRANCH  36  39
HETATM   39  C   UNL     1      43.132 -11.264   9.391  1.00  0.00     0.068 A 
HETATM   40  C   UNL     1      44.225 -11.997   8.893  1.00  0.00     0.095 A 
HETATM   41  C   UNL     1      45.437 -11.975   9.599  1.00  0.00     0.039 A 
HETATM   42  C   UNL     1      45.577 -11.201  10.756  1.00  0.00     0.003 A 
HETATM   43  C   UNL     1      44.517 -10.425  11.207  1.00  0.00     0.002 A 
HETATM   44  C   UNL     1      43.305 -10.447  10.521  1.00  0.00     0.032 A 
BRANCH  40  45
HETATM   45  O   UNL     1      44.068 -12.604   7.676  1.00  0.00    -0.354 OA
HETATM   46  C   UNL     1      44.733 -13.838   7.453  1.00  0.00     0.210 C 
ENDBRANCH  40  45
ENDBRANCH  36  39
ENDBRANCH  34  35
ENDBRANCH  33  34
ENDBRANCH   2  33
TORSDOF 11
ENDMDL
MODEL 6
REMARK VINA RESULT:      -8.4      3.565      6.121
REMARK  11 active torsions:
REMARK  status: ('A' for Active; 'I' for Inactive)
REMARK    1  A    between atoms: C_2  and  O_3 
REMARK    2  A    between atoms: O_3  and  C_4 
REMARK    3  A    between atoms: C_5  and  O_6 
REMARK    4  A    between atoms: O_6  and  C_7 
REMARK    5  A    between atoms: C_7  and  C_8 
REMARK       I    between atoms: C_8  and  N_9 
REMARK    6  A    between atoms: N_9  and  C_10 
REMARK    7  A    between atoms: C_11  and  O_12 
REMARK    8  A    between atoms: C_21  and  C_22 
REMARK    9  A    between atoms: C_27  and  C_28 
REMARK   10  A    between atoms: C_34  and  C_35 
REMARK   11  A    between atoms: C_35  and  C_36 
ROOT
HETATM    1  C   UNL     1      41.111 -14.552   1.783  1.00  0.00     0.102 A 
HETATM    2  C   UNL     1      40.468 -13.900   2.840  1.00  0.00     0.102 A 
HETATM    3  C   UNL     1      39.352 -13.097   2.600  1.00  0.00     0.040 A 
HETATM    4  C   UNL     1      38.845 -12.972   1.310  1.00  0.00     0.012 A 
HETATM    5  C   UNL     1      39.455 -13.640   0.240  1.00  0.00    -0.028 A 
HETATM    6  C   UNL     1      40.572 -14.458   0.496  1.00  0.00     0.049 A 
ENDROOT
BRANCH   5   7
HETATM    7  C   UNL     1      38.915 -13.457  -1.168  1.00  0.00     0.157 C 
HETATM    8  N   UNL     1      39.072 -14.701  -1.898  1.00  0.00    -0.354 N 
HETATM    9  C   UNL     1      39.157 -14.761  -3.250  1.00  0.00     0.173 C 
HETATM   10  H   UNL     1      38.827 -15.566  -1.430  1.00  0.00     0.163 HD
HETATM   11  S   UNL     1      38.963 -16.193  -4.066  1.00  0.00    -0.041 SA
HETATM   12  N   UNL     1      39.450 -13.601  -3.897  1.00  0.00    -0.332 N 
HETATM   13  C   UNL     1      39.706 -12.403  -3.268  1.00  0.00     0.057 C 
HETATM   14  H   UNL     1      39.603 -13.665  -4.899  1.00  0.00     0.168 HD
HETATM   15  C   UNL     1      39.481 -12.294  -1.945  1.00  0.00     0.047 C 
BRANCH  13  16
HETATM   16  C   UNL     1      40.187 -11.324  -4.145  1.00  0.00    -0.009 A 
HETATM   17  C   UNL     1      41.528 -11.278  -4.545  1.00  0.00     0.014 A 
HETATM   18  C   UNL     1      41.969 -10.283  -5.418  1.00  0.00     0.001 A 
HETATM   19  C   UNL     1      41.073  -9.332  -5.901  1.00  0.00     0.000 A 
HETATM   20  C   UNL     1      39.735  -9.372  -5.510  1.00  0.00     0.001 A 
HETATM   21  C   UNL     1      39.291 -10.365  -4.635  1.00  0.00     0.014 A 
ENDBRANCH  13  16
BRANCH  15  22
HETATM   22  C   UNL     1      39.815 -11.041  -1.206  1.00  0.00     0.193 C 
HETATM   23  O   UNL     1      38.935 -10.343  -0.713  1.00  0.00    -0.287 OA
BRANCH  22  24
HETATM   24  C   UNL     1      41.223 -10.564  -1.211  1.00  0.00     0.015 A 
HETATM   25  C   UNL     1      41.458  -9.217  -1.516  1.00  0.00     0.015 A 
HETATM   26  C   UNL     1      42.764  -8.730  -1.581  1.00  0.00     0.001 A 
HETATM   27  C   UNL     1      43.837  -9.584  -1.333  1.00  0.00     0.000 A 
HETATM   28  C   UNL     1      43.607 -10.922  -1.006  1.00  0.00     0.001 A 
HETATM   29  C   UNL     1      42.301 -11.413  -0.937  1.00  0.00     0.015 A 
ENDBRANCH  22  24
ENDBRANCH  15  22
ENDBRANCH   5   7
BRANCH   1  30
HETATM   30  O   UNL     1      42.229 -15.289   2.068  1.00  0.00    -0.349 OA
BRANCH  30  31
HETATM   31  C   UNL     1      42.263 -16.605   1.501  1.00  0.00     0.171 C 
HETATM   32  C   UNL     1      43.704 -17.048   1.323  1.00  0.00     0.034 C 
ENDBRANCH  30  31
ENDBRANCH   1  30
BRANCH   2  33
HETATM   33  O   UNL     1      40.938 -13.914   4.126  1.00  0.00    -0.339 OA
BRANCH  33  34
HETATM   34  C   UNL     1      40.101 -14.661   5.020  1.00  0.00     0.278 C 
BRANCH  34  35
HETATM   35  C   UNL     1      40.837 -15.898   5.563  1.00  0.00     0.246 C 
HETATM   36  N   UNL     1      42.132 -15.991   5.077  1.00  0.00    -0.323 N 
HETATM   37  H   UNL     1      42.454 -15.146   4.620  1.00  0.00     0.169 HD
HETATM   38  O   UNL     1      40.303 -16.626   6.395  1.00  0.00    -0.271 OA
BRANCH  36  39
HETATM   39  C   UNL     1      43.110 -16.945   5.422  1.00  0.00     0.068 A 
HETATM   40  C   UNL     1      44.090 -16.766   6.416  1.00  0.00     0.095 A 
HETATM   41  C   UNL     1      45.044 -17.774   6.618  1.00  0.00     0.039 A 
HETATM   42  C   UNL     1      45.000 -18.960   5.878  1.00  0.00     0.003 A 
HETATM   43  C   UNL     1      43.991 -19.162   4.946  1.00  0.00     0.002 A 
HETATM   44  C   UNL     1      43.044 -18.164   4.727  1.00  0.00     0.032 A 
BRANCH  40  45
HETATM   45  O   UNL     1      43.982 -15.655   7.208  1.00  0.00    -0.354 OA
HETATM   46  C   UNL     1      44.783 -14.526   6.892  1.00  0.00     0.210 C 
ENDBRANCH  40  45
ENDBRANCH  36  39
ENDBRANCH  34  35
ENDBRANCH  33  34
ENDBRANCH   2  33
TORSDOF 11
ENDMDL
MODEL 7
REMARK VINA RESULT:      -8.1      4.168      6.603
REMARK  11 active torsions:
REMARK  status: ('A' for Active; 'I' for Inactive)
REMARK    1  A    between atoms: C_2  and  O_3 
REMARK    2  A    between atoms: O_3  and  C_4 
REMARK    3  A    between atoms: C_5  and  O_6 
REMARK    4  A    between atoms: O_6  and  C_7 
REMARK    5  A    between atoms: C_7  and  C_8 
REMARK       I    between atoms: C_8  and  N_9 
REMARK    6  A    between atoms: N_9  and  C_10 
REMARK    7  A    between atoms: C_11  and  O_12 
REMARK    8  A    between atoms: C_21  and  C_22 
REMARK    9  A    between atoms: C_27  and  C_28 
REMARK   10  A    between atoms: C_34  and  C_35 
REMARK   11  A    between atoms: C_35  and  C_36 
ROOT
HETATM    1  C   UNL     1      42.247 -14.739   1.642  1.00  0.00     0.102 A 
HETATM    2  C   UNL     1      42.129 -14.261   2.951  1.00  0.00     0.102 A 
HETATM    3  C   UNL     1      41.608 -12.991   3.196  1.00  0.00     0.040 A 
HETATM    4  C   UNL     1      41.162 -12.202   2.139  1.00  0.00     0.012 A 
HETATM    5  C   UNL     1      41.243 -12.672   0.820  1.00  0.00    -0.028 A 
HETATM    6  C   UNL     1      41.758 -13.961   0.588  1.00  0.00     0.049 A 
ENDROOT
BRANCH   5   7
HETATM    7  C   UNL     1      40.792 -11.781  -0.324  1.00  0.00     0.157 C 
HETATM    8  N   UNL     1      41.093 -10.400   0.008  1.00  0.00    -0.354 N 
HETATM    9  C   UNL     1      40.420  -9.348  -0.521  1.00  0.00     0.173 C 
HETATM   10  H   UNL     1      41.997 -10.190   0.414  1.00  0.00     0.163 HD
HETATM   11  S   UNL     1      41.015  -7.802  -0.417  1.00  0.00    -0.041 SA
HETATM   12  N   UNL     1      39.221  -9.618  -1.102  1.00  0.00    -0.332 N 
HETATM   13  C   UNL     1      38.638 -10.865  -1.141  1.00  0.00     0.057 C 
HETATM   14  H   UNL     1      38.678  -8.819  -1.416  1.00  0.00     0.168 HD
HETATM   15  C   UNL     1      39.355 -11.938  -0.755  1.00  0.00     0.047 C 
BRANCH  13  16
HETATM   16  C   UNL     1      37.257 -10.897  -1.647  1.00  0.00    -0.009 A 
HETATM   17  C   UNL     1      36.175 -10.832  -0.761  1.00  0.00     0.014 A 
HETATM   18  C   UNL     1      34.867 -10.812  -1.248  1.00  0.00     0.001 A 
HETATM   19  C   UNL     1      34.633 -10.848  -2.621  1.00  0.00     0.000 A 
HETATM   20  C   UNL     1      35.705 -10.909  -3.510  1.00  0.00     0.001 A 
HETATM   21  C   UNL     1      37.014 -10.933  -3.026  1.00  0.00     0.014 A 
ENDBRANCH  13  16
BRANCH  15  22
HETATM   22  C   UNL     1      38.743 -13.298  -0.708  1.00  0.00     0.193 C 
HETATM   23  O   UNL     1      38.238 -13.730   0.323  1.00  0.00    -0.287 OA
BRANCH  22  24
HETATM   24  C   UNL     1      38.896 -14.190  -1.887  1.00  0.00     0.015 A 
HETATM   25  C   UNL     1      37.764 -14.433  -2.677  1.00  0.00     0.015 A 
HETATM   26  C   UNL     1      37.843 -15.301  -3.766  1.00  0.00     0.001 A 
HETATM   27  C   UNL     1      39.053 -15.920  -4.076  1.00  0.00     0.000 A 
HETATM   28  C   UNL     1      40.188 -15.664  -3.305  1.00  0.00     0.001 A 
HETATM   29  C   UNL     1      40.115 -14.793  -2.215  1.00  0.00     0.015 A 
ENDBRANCH  22  24
ENDBRANCH  15  22
ENDBRANCH   5   7
BRANCH   1  30
HETATM   30  O   UNL     1      42.809 -15.973   1.456  1.00  0.00    -0.349 OA
BRANCH  30  31
HETATM   31  C   UNL     1      42.143 -16.820   0.511  1.00  0.00     0.171 C 
HETATM   32  C   UNL     1      40.881 -17.389   1.135  1.00  0.00     0.034 C 
ENDBRANCH  30  31
ENDBRANCH   1  30
BRANCH   2  33
HETATM   33  O   UNL     1      42.604 -14.941   4.042  1.00  0.00    -0.339 OA
BRANCH  33  34
HETATM   34  C   UNL     1      41.582 -15.673   4.734  1.00  0.00     0.278 C 
BRANCH  34  35
HETATM   35  C   UNL     1      41.823 -17.188   4.632  1.00  0.00     0.246 C 
HETATM   36  N   UNL     1      43.069 -17.485   4.100  1.00  0.00    -0.323 N 
HETATM   37  H   UNL     1      43.691 -16.688   4.057  1.00  0.00     0.169 HD
HETATM   38  O   UNL     1      40.997 -17.982   5.072  1.00  0.00    -0.271 OA
BRANCH  36  39
HETATM   39  C   UNL     1      43.649 -18.760   3.938  1.00  0.00     0.068 A 
HETATM   40  C   UNL     1      44.355 -19.452   4.939  1.00  0.00     0.095 A 
HETATM   41  C   UNL     1      44.936 -20.690   4.627  1.00  0.00     0.039 A 
HETATM   42  C   UNL     1      44.781 -21.254   3.357  1.00  0.00     0.003 A 
HETATM   43  C   UNL     1      44.026 -20.599   2.392  1.00  0.00     0.002 A 
HETATM   44  C   UNL     1      43.453 -19.364   2.686  1.00  0.00     0.032 A 
BRANCH  40  45
HETATM   45  O   UNL     1      44.335 -18.921   6.200  1.00  0.00    -0.354 OA
HETATM   46  C   UNL     1      45.354 -17.997   6.554  1.00  0.00     0.210 C 
ENDBRANCH  40  45
ENDBRANCH  36  39
ENDBRANCH  34  35
ENDBRANCH  33  34
ENDBRANCH   2  33
TORSDOF 11
ENDMDL
MODEL 8
REMARK VINA RESULT:      -8.0      4.186      7.290
REMARK  11 active torsions:
REMARK  status: ('A' for Active; 'I' for Inactive)
REMARK    1  A    between atoms: C_2  and  O_3 
REMARK    2  A    between atoms: O_3  and  C_4 
REMARK    3  A    between atoms: C_5  and  O_6 
REMARK    4  A    between atoms: O_6  and  C_7 
REMARK    5  A    between atoms: C_7  and  C_8 
REMARK       I    between atoms: C_8  and  N_9 
REMARK    6  A    between atoms: N_9  and  C_10 
REMARK    7  A    between atoms: C_11  and  O_12 
REMARK    8  A    between atoms: C_21  and  C_22 
REMARK    9  A    between atoms: C_27  and  C_28 
REMARK   10  A    between atoms: C_34  and  C_35 
REMARK   11  A    between atoms: C_35  and  C_36 
ROOT
HETATM    1  C   UNL     1      40.135 -14.193   2.607  1.00  0.00     0.102 A 
HETATM    2  C   UNL     1      41.404 -14.762   2.453  1.00  0.00     0.102 A 
HETATM    3  C   UNL     1      41.906 -15.036   1.181  1.00  0.00     0.040 A 
HETATM    4  C   UNL     1      41.164 -14.706   0.050  1.00  0.00     0.012 A 
HETATM    5  C   UNL     1      39.903 -14.109   0.179  1.00  0.00    -0.028 A 
HETATM    6  C   UNL     1      39.412 -13.826   1.467  1.00  0.00     0.049 A 
ENDROOT
BRANCH   5   7
HETATM    7  C   UNL     1      39.088 -13.797  -1.064  1.00  0.00     0.157 C 
HETATM    8  N   UNL     1      39.193 -14.912  -1.987  1.00  0.00    -0.354 N 
HETATM    9  C   UNL     1      39.019 -14.785  -3.327  1.00  0.00     0.173 C 
HETATM   10  H   UNL     1      39.108 -15.852  -1.617  1.00  0.00     0.163 HD
HETATM   11  S   UNL     1      38.777 -16.109  -4.297  1.00  0.00    -0.041 SA
HETATM   12  N   UNL     1      39.094 -13.526  -3.836  1.00  0.00    -0.332 N 
HETATM   13  C   UNL     1      39.377 -12.401  -3.093  1.00  0.00     0.057 C 
HETATM   14  H   UNL     1      39.054 -13.442  -4.847  1.00  0.00     0.168 HD
HETATM   15  C   UNL     1      39.405 -12.491  -1.750  1.00  0.00     0.047 C 
BRANCH  13  16
HETATM   16  C   UNL     1      39.598 -11.174  -3.873  1.00  0.00    -0.009 A 
HETATM   17  C   UNL     1      40.793 -10.985  -4.579  1.00  0.00     0.014 A 
HETATM   18  C   UNL     1      40.977  -9.843  -5.358  1.00  0.00     0.001 A 
HETATM   19  C   UNL     1      39.968  -8.886  -5.443  1.00  0.00     0.000 A 
HETATM   20  C   UNL     1      38.774  -9.067  -4.746  1.00  0.00     0.001 A 
HETATM   21  C   UNL     1      38.588 -10.207  -3.963  1.00  0.00     0.014 A 
ENDBRANCH  13  16
BRANCH  15  22
HETATM   22  C   UNL     1      39.782 -11.320  -0.906  1.00  0.00     0.193 C 
HETATM   23  O   UNL     1      38.962 -10.779  -0.171  1.00  0.00    -0.287 OA
BRANCH  22  24
HETATM   24  C   UNL     1      41.127 -10.713  -1.087  1.00  0.00     0.015 A 
HETATM   25  C   UNL     1      41.204  -9.322  -1.243  1.00  0.00     0.015 A 
HETATM   26  C   UNL     1      42.438  -8.709  -1.465  1.00  0.00     0.001 A 
HETATM   27  C   UNL     1      43.597  -9.481  -1.521  1.00  0.00     0.000 A 
HETATM   28  C   UNL     1      43.528 -10.864  -1.344  1.00  0.00     0.001 A 
HETATM   29  C   UNL     1      42.295 -11.482  -1.120  1.00  0.00     0.015 A 
ENDBRANCH  22  24
ENDBRANCH  15  22
ENDBRANCH   5   7
BRANCH   1  30
HETATM   30  O   UNL     1      39.671 -13.990   3.879  1.00  0.00    -0.349 OA
BRANCH  30  31
HETATM   31  C   UNL     1      39.451 -12.622   4.244  1.00  0.00     0.171 C 
HETATM   32  C   UNL     1      40.771 -11.971   4.612  1.00  0.00     0.034 C 
ENDBRANCH  30  31
ENDBRANCH   1  30
BRANCH   2  33
HETATM   33  O   UNL     1      42.170 -15.178   3.510  1.00  0.00    -0.339 OA
BRANCH  33  34
HETATM   34  C   UNL     1      43.259 -16.024   3.112  1.00  0.00     0.278 C 
BRANCH  34  35
HETATM   35  C   UNL     1      43.012 -17.480   3.540  1.00  0.00     0.246 C 
HETATM   36  N   UNL     1      44.151 -18.262   3.415  1.00  0.00    -0.323 N 
HETATM   37  H   UNL     1      44.996 -17.724   3.266  1.00  0.00     0.169 HD
HETATM   38  O   UNL     1      41.930 -17.817   4.009  1.00  0.00    -0.271 OA
BRANCH  36  39
HETATM   39  C   UNL     1      44.308 -19.612   3.787  1.00  0.00     0.068 A 
HETATM   40  C   UNL     1      44.448 -20.067   5.111  1.00  0.00     0.095 A 
HETATM   41  C   UNL     1      44.659 -21.435   5.340  1.00  0.00     0.039 A 
HETATM   42  C   UNL     1      44.684 -22.343   4.277  1.00  0.00     0.003 A 
HETATM   43  C   UNL     1      44.477 -21.899   2.977  1.00  0.00     0.002 A 
HETATM   44  C   UNL     1      44.278 -20.541   2.735  1.00  0.00     0.032 A 
BRANCH  40  45
HETATM   45  O   UNL     1      44.258 -19.152   6.111  1.00  0.00    -0.354 OA
HETATM   46  C   UNL     1      45.344 -18.310   6.465  1.00  0.00     0.210 C 
ENDBRANCH  40  45
ENDBRANCH  36  39
ENDBRANCH  34  35
ENDBRANCH  33  34
ENDBRANCH   2  33
TORSDOF 11
ENDMDL
MODEL 9
REMARK VINA RESULT:      -7.6      3.341      5.946
REMARK  11 active torsions:
REMARK  status: ('A' for Active; 'I' for Inactive)
REMARK    1  A    between atoms: C_2  and  O_3 
REMARK    2  A    between atoms: O_3  and  C_4 
REMARK    3  A    between atoms: C_5  and  O_6 
REMARK    4  A    between atoms: O_6  and  C_7 
REMARK    5  A    between atoms: C_7  and  C_8 
REMARK       I    between atoms: C_8  and  N_9 
REMARK    6  A    between atoms: N_9  and  C_10 
REMARK    7  A    between atoms: C_11  and  O_12 
REMARK    8  A    between atoms: C_21  and  C_22 
REMARK    9  A    between atoms: C_27  and  C_28 
REMARK   10  A    between atoms: C_34  and  C_35 
REMARK   11  A    between atoms: C_35  and  C_36 
ROOT
HETATM    1  C   UNL     1      41.215 -14.519   1.743  1.00  0.00     0.102 A 
HETATM    2  C   UNL     1      40.319 -13.895   2.617  1.00  0.00     0.102 A 
HETATM    3  C   UNL     1      40.145 -12.511   2.581  1.00  0.00     0.040 A 
HETATM    4  C   UNL     1      40.832 -11.744   1.644  1.00  0.00     0.012 A 
HETATM    5  C   UNL     1      41.713 -12.352   0.738  1.00  0.00    -0.028 A 
HETATM    6  C   UNL     1      41.870 -13.750   0.776  1.00  0.00     0.049 A 
ENDROOT
BRANCH   5   7
HETATM    7  C   UNL     1      42.488 -11.495  -0.247  1.00  0.00     0.157 C 
HETATM    8  N   UNL     1      42.746 -10.200   0.356  1.00  0.00    -0.354 N 
HETATM    9  C   UNL     1      42.960  -9.074  -0.369  1.00  0.00     0.173 C 
HETATM   10  H   UNL     1      43.058 -10.174   1.320  1.00  0.00     0.163 HD
HETATM   11  S   UNL     1      43.610  -7.713   0.322  1.00  0.00    -0.041 SA
HETATM   12  N   UNL     1      42.580  -9.105  -1.674  1.00  0.00    -0.332 N 
HETATM   13  C   UNL     1      41.957 -10.175  -2.278  1.00  0.00     0.057 C 
HETATM   14  H   UNL     1      42.657  -8.234  -2.191  1.00  0.00     0.168 HD
HETATM   15  C   UNL     1      41.872 -11.345  -1.617  1.00  0.00     0.047 C 
BRANCH  13  16
HETATM   16  C   UNL     1      41.462  -9.925  -3.640  1.00  0.00    -0.009 A 
HETATM   17  C   UNL     1      42.221 -10.308  -4.753  1.00  0.00     0.014 A 
HETATM   18  C   UNL     1      41.725 -10.116  -6.043  1.00  0.00     0.001 A 
HETATM   19  C   UNL     1      40.466  -9.547  -6.229  1.00  0.00     0.000 A 
HETATM   20  C   UNL     1      39.703  -9.166  -5.127  1.00  0.00     0.001 A 
HETATM   21  C   UNL     1      40.198  -9.354  -3.835  1.00  0.00     0.014 A 
ENDBRANCH  13  16
BRANCH  15  22
HETATM   22  C   UNL     1      41.142 -12.508  -2.198  1.00  0.00     0.193 C 
HETATM   23  O   UNL     1      41.748 -13.466  -2.668  1.00  0.00    -0.287 OA
BRANCH  22  24
HETATM   24  C   UNL     1      39.665 -12.422  -2.346  1.00  0.00     0.015 A 
HETATM   25  C   UNL     1      39.093 -12.926  -3.522  1.00  0.00     0.015 A 
HETATM   26  C   UNL     1      37.717 -12.825  -3.731  1.00  0.00     0.001 A 
HETATM   27  C   UNL     1      36.909 -12.231  -2.764  1.00  0.00     0.000 A 
HETATM   28  C   UNL     1      37.471 -11.748  -1.581  1.00  0.00     0.001 A 
HETATM   29  C   UNL     1      38.848 -11.848  -1.366  1.00  0.00     0.015 A 
ENDBRANCH  22  24
ENDBRANCH  15  22
ENDBRANCH   5   7
BRANCH   1  30
HETATM   30  O   UNL     1      41.382 -15.874   1.854  1.00  0.00    -0.349 OA
BRANCH  30  31
HETATM   31  C   UNL     1      41.963 -16.520   0.714  1.00  0.00     0.171 C 
HETATM   32  C   UNL     1      43.317 -17.096   1.086  1.00  0.00     0.034 C 
ENDBRANCH  30  31
ENDBRANCH   1  30
BRANCH   2  33
HETATM   33  O   UNL     1      39.655 -14.563   3.612  1.00  0.00    -0.339 OA
BRANCH  33  34
HETATM   34  C   UNL     1      40.215 -14.331   4.912  1.00  0.00     0.278 C 
BRANCH  34  35
HETATM   35  C   UNL     1      40.899 -15.597   5.453  1.00  0.00     0.246 C 
HETATM   36  N   UNL     1      42.193 -15.738   4.973  1.00  0.00    -0.323 N 
HETATM   37  H   UNL     1      42.549 -14.905   4.522  1.00  0.00     0.169 HD
HETATM   38  O   UNL     1      40.333 -16.307   6.279  1.00  0.00    -0.271 OA
BRANCH  36  39
HETATM   39  C   UNL     1      43.130 -16.731   5.320  1.00  0.00     0.068 A 
HETATM   40  C   UNL     1      44.050 -16.631   6.380  1.00  0.00     0.095 A 
HETATM   41  C   UNL     1      44.972 -17.669   6.579  1.00  0.00     0.039 A 
HETATM   42  C   UNL     1      44.954 -18.809   5.768  1.00  0.00     0.003 A 
HETATM   43  C   UNL     1      44.001 -18.935   4.766  1.00  0.00     0.002 A 
HETATM   44  C   UNL     1      43.086 -17.906   4.551  1.00  0.00     0.032 A 
BRANCH  40  45
HETATM   45  O   UNL     1      43.912 -15.566   7.228  1.00  0.00    -0.354 OA
HETATM   46  C   UNL     1      44.693 -14.407   6.980  1.00  0.00     0.210 C 
ENDBRANCH  40  45
ENDBRANCH  36  39
ENDBRANCH  34  35
ENDBRANCH  33  34
ENDBRANCH   2  33
TORSDOF 11
ENDMDL
MODEL 10
REMARK VINA RESULT:      -7.6      4.480      6.847
REMARK  11 active torsions:
REMARK  status: ('A' for Active; 'I' for Inactive)
REMARK    1  A    between atoms: C_2  and  O_3 
REMARK    2  A    between atoms: O_3  and  C_4 
REMARK    3  A    between atoms: C_5  and  O_6 
REMARK    4  A    between atoms: O_6  and  C_7 
REMARK    5  A    between atoms: C_7  and  C_8 
REMARK       I    between atoms: C_8  and  N_9 
REMARK    6  A    between atoms: N_9  and  C_10 
REMARK    7  A    between atoms: C_11  and  O_12 
REMARK    8  A    between atoms: C_21  and  C_22 
REMARK    9  A    between atoms: C_27  and  C_28 
REMARK   10  A    between atoms: C_34  and  C_35 
REMARK   11  A    between atoms: C_35  and  C_36 
ROOT
HETATM    1  C   UNL     1      41.782 -14.678   1.589  1.00  0.00     0.102 A 
HETATM    2  C   UNL     1      40.890 -14.395   2.628  1.00  0.00     0.102 A 
HETATM    3  C   UNL     1      40.484 -13.083   2.873  1.00  0.00     0.040 A 
HETATM    4  C   UNL     1      40.933 -12.048   2.057  1.00  0.00     0.012 A 
HETATM    5  C   UNL     1      41.804 -12.312   0.991  1.00  0.00    -0.028 A 
HETATM    6  C   UNL     1      42.196 -13.642   0.746  1.00  0.00     0.049 A 
ENDROOT
BRANCH   5   7
HETATM    7  C   UNL     1      42.318 -11.166   0.138  1.00  0.00     0.157 C 
HETATM    8  N   UNL     1      41.934  -9.911   0.756  1.00  0.00    -0.354 N 
HETATM    9  C   UNL     1      41.793  -8.755   0.060  1.00  0.00     0.173 C 
HETATM   10  H   UNL     1      42.048  -9.814   1.758  1.00  0.00     0.163 HD
HETATM   11  S   UNL     1      41.720  -7.286   0.829  1.00  0.00    -0.041 SA
HETATM   12  N   UNL     1      41.674  -8.864  -1.290  1.00  0.00    -0.332 N 
HETATM   13  C   UNL     1      41.640 -10.059  -1.974  1.00  0.00     0.057 C 
HETATM   14  H   UNL     1      41.478  -8.008  -1.800  1.00  0.00     0.168 HD
HETATM   15  C   UNL     1      41.925 -11.200  -1.318  1.00  0.00     0.047 C 
BRANCH  13  16
HETATM   16  C   UNL     1      41.314  -9.954  -3.405  1.00  0.00    -0.009 A 
HETATM   17  C   UNL     1      42.333  -9.927  -4.365  1.00  0.00     0.014 A 
HETATM   18  C   UNL     1      42.019  -9.879  -5.724  1.00  0.00     0.001 A 
HETATM   19  C   UNL     1      40.686  -9.865  -6.131  1.00  0.00     0.000 A 
HETATM   20  C   UNL     1      39.666  -9.894  -5.182  1.00  0.00     0.001 A 
HETATM   21  C   UNL     1      39.977  -9.939  -3.822  1.00  0.00     0.014 A 
ENDBRANCH  13  16
BRANCH  15  22
HETATM   22  C   UNL     1      41.828 -12.525  -1.997  1.00  0.00     0.193 C 
HETATM   23  O   UNL     1      42.829 -13.095  -2.419  1.00  0.00    -0.287 OA
BRANCH  22  24
HETATM   24  C   UNL     1      40.480 -13.075  -2.299  1.00  0.00     0.015 A 
HETATM   25  C   UNL     1      39.443 -12.802  -1.397  1.00  0.00     0.015 A 
HETATM   26  C   UNL     1      38.172 -13.336  -1.608  1.00  0.00     0.001 A 
HETATM   27  C   UNL     1      37.930 -14.134  -2.725  1.00  0.00     0.000 A 
HETATM   28  C   UNL     1      38.954 -14.390  -3.638  1.00  0.00     0.001 A 
HETATM   29  C   UNL     1      40.229 -13.856  -3.432  1.00  0.00     0.015 A 
ENDBRANCH  22  24
ENDBRANCH  15  22
ENDBRANCH   5   7
BRANCH   1  30
HETATM   30  O   UNL     1      42.184 -15.977   1.423  1.00  0.00    -0.349 OA
BRANCH  30  31
HETATM   31  C   UNL     1      41.310 -16.798   0.640  1.00  0.00     0.171 C 
HETATM   32  C   UNL     1      41.225 -16.251  -0.774  1.00  0.00     0.034 C 
ENDBRANCH  30  31
ENDBRANCH   1  30
BRANCH   2  33
HETATM   33  O   UNL     1      40.453 -15.340   3.519  1.00  0.00    -0.339 OA
BRANCH  33  34
HETATM   34  C   UNL     1      41.445 -15.688   4.496  1.00  0.00     0.278 C 
BRANCH  34  35
HETATM   35  C   UNL     1      41.749 -17.195   4.461  1.00  0.00     0.246 C 
HETATM   36  N   UNL     1      42.886 -17.482   3.720  1.00  0.00    -0.323 N 
HETATM   37  H   UNL     1      43.441 -16.664   3.499  1.00  0.00     0.169 HD
HETATM   38  O   UNL     1      41.068 -17.985   5.109  1.00  0.00    -0.271 OA
BRANCH  36  39
HETATM   39  C   UNL     1      43.498 -18.739   3.542  1.00  0.00     0.068 A 
HETATM   40  C   UNL     1      44.368 -19.345   4.466  1.00  0.00     0.095 A 
HETATM   41  C   UNL     1      44.958 -20.575   4.138  1.00  0.00     0.039 A 
HETATM   42  C   UNL     1      44.655 -21.215   2.932  1.00  0.00     0.003 A 
HETATM   43  C   UNL     1      43.742 -20.647   2.053  1.00  0.00     0.002 A 
HETATM   44  C   UNL     1      43.158 -19.420   2.362  1.00  0.00     0.032 A 
BRANCH  40  45
HETATM   45  O   UNL     1      44.500 -18.744   5.689  1.00  0.00    -0.354 OA
HETATM   46  C   UNL     1      43.928 -19.388   6.817  1.00  0.00     0.210 C 
ENDBRANCH  40  45
ENDBRANCH  36  39
ENDBRANCH  34  35
ENDBRANCH  33  34
ENDBRANCH   2  33
TORSDOF 11
ENDMDL
