MODEL 1
REMARK VINA RESULT:      -8.7      0.000      0.000
REMARK  6 active torsions:
REMARK  status: ('A' for Active; 'I' for Inactive)
REMARK    1  A    between atoms: C_2  and  O_3 
REMARK    2  A    between atoms: O_3  and  C_4 
REMARK    3  A    between atoms: C_7  and  N_8 
REMARK    4  A    between atoms: N_8  and  C_9 
REMARK    5  A    between atoms: C_10  and  C_11 
REMARK    6  A    between atoms: C_14  and  C_15 
ROOT
HETATM    1  C   UNL     1      39.812 -13.714   4.727  1.00  0.00     0.113 C 
HETATM    2  C   UNL     1      40.760 -13.298   5.590  1.00  0.00     0.082 C 
HETATM    3  C   UNL     1      40.636 -11.929   6.240  1.00  0.00     0.024 C 
HETATM    4  N   UNL     1      40.533 -10.793   6.779  1.00  0.00    -0.096 N 
ENDROOT
BRANCH   2   5
HETATM    5  C   UNL     1      41.920 -14.103   5.864  1.00  0.00     0.119 A 
HETATM    6  S   UNL     1      43.395 -13.367   6.418  1.00  0.00    -0.078 SA
HETATM    7  C   UNL     1      44.158 -14.894   6.469  1.00  0.00     0.084 A 
HETATM    8  C   UNL     1      43.276 -15.879   6.088  1.00  0.00     0.081 A 
HETATM    9  N   UNL     1      42.005 -15.423   5.753  1.00  0.00    -0.239 NA
BRANCH   8  10
HETATM   10  C   UNL     1      43.564 -17.285   5.954  1.00  0.00     0.070 A 
HETATM   11  C   UNL     1      43.793 -18.118   7.179  1.00  0.00     0.301 A 
HETATM   12  O   UNL     1      43.689 -17.671   8.318  1.00  0.00    -0.259 OA
HETATM   13  O   UNL     1      44.138 -19.454   6.990  1.00  0.00    -0.274 OA
HETATM   14  C   UNL     1      44.225 -20.031   5.714  1.00  0.00     0.089 A 
HETATM   15  C   UNL     1      43.967 -19.272   4.579  1.00  0.00     0.000 A 
HETATM   16  C   UNL     1      44.571 -21.377   5.636  1.00  0.00     0.039 A 
HETATM   17  C   UNL     1      44.058 -19.879   3.325  1.00  0.00     0.033 A 
HETATM   18  C   UNL     1      43.636 -17.867   4.742  1.00  0.00     0.034 A 
HETATM   19  C   UNL     1      44.405 -21.230   3.234  1.00  0.00     0.012 A 
HETATM   20  C   UNL     1      44.662 -21.982   4.383  1.00  0.00     0.022 A 
HETATM   21 BR   UNL     1      44.531 -22.050   1.535  1.00  0.00    -0.051 Br
ENDBRANCH   8  10
ENDBRANCH   2   5
BRANCH   1  22
HETATM   22  N   UNL     1      39.804 -14.876   3.990  1.00  0.00    -0.364 N 
HETATM   23  H   UNL     1      39.378 -15.677   4.465  1.00  0.00     0.165 HD
BRANCH  22  24
HETATM   24  C   UNL     1      40.140 -15.095   2.646  1.00  0.00     0.032 A 
HETATM   25  C   UNL     1      40.801 -16.285   2.310  1.00  0.00     0.032 A 
HETATM   26  C   UNL     1      41.178 -16.557   0.992  1.00  0.00     0.039 A 
HETATM   27  C   UNL     1      40.896 -15.646  -0.024  1.00  0.00     0.068 A 
HETATM   28  C   UNL     1      40.272 -14.443   0.298  1.00  0.00     0.039 A 
HETATM   29  C   UNL     1      39.906 -14.169   1.624  1.00  0.00     0.032 A 
BRANCH  27  30
HETATM   30  O   UNL     1      41.291 -16.036  -1.272  1.00  0.00    -0.352 OA
BRANCH  30  31
HETATM   31  C   UNL     1      40.978 -15.151  -2.346  1.00  0.00     0.171 C 
HETATM   32  C   UNL     1      39.962 -15.842  -3.238  1.00  0.00     0.034 C 
ENDBRANCH  30  31
ENDBRANCH  27  30
ENDBRANCH  22  24
ENDBRANCH   1  22
TORSDOF 6
ENDMDL
MODEL 2
REMARK VINA RESULT:      -8.6      3.074      6.955
REMARK  6 active torsions:
REMARK  status: ('A' for Active; 'I' for Inactive)
REMARK    1  A    between atoms: C_2  and  O_3 
REMARK    2  A    between atoms: O_3  and  C_4 
REMARK    3  A    between atoms: C_7  and  N_8 
REMARK    4  A    between atoms: N_8  and  C_9 
REMARK    5  A    between atoms: C_10  and  C_11 
REMARK    6  A    between atoms: C_14  and  C_15 
ROOT
HETATM    1  C   UNL     1      44.117 -15.914   6.739  1.00  0.00     0.113 C 
HETATM    2  C   UNL     1      44.012 -14.582   6.561  1.00  0.00     0.082 C 
HETATM    3  C   UNL     1      44.803 -13.641   7.455  1.00  0.00     0.024 C 
HETATM    4  N   UNL     1      45.458 -12.859   8.198  1.00  0.00    -0.096 N 
ENDROOT
BRANCH   2   5
HETATM    5  C   UNL     1      43.121 -14.032   5.576  1.00  0.00     0.119 A 
HETATM    6  S   UNL     1      42.059 -12.716   5.982  1.00  0.00    -0.078 SA
HETATM    7  C   UNL     1      41.426 -12.714   4.396  1.00  0.00     0.084 A 
HETATM    8  C   UNL     1      42.044 -13.681   3.637  1.00  0.00     0.081 A 
HETATM    9  N   UNL     1      43.011 -14.419   4.311  1.00  0.00    -0.239 NA
BRANCH   8  10
HETATM   10  C   UNL     1      41.744 -14.020   2.268  1.00  0.00     0.070 A 
HETATM   11  C   UNL     1      41.113 -15.342   1.951  1.00  0.00     0.301 A 
HETATM   12  O   UNL     1      40.778 -16.146   2.816  1.00  0.00    -0.259 OA
HETATM   13  O   UNL     1      40.911 -15.649   0.607  1.00  0.00    -0.274 OA
HETATM   14  C   UNL     1      41.230 -14.750  -0.422  1.00  0.00     0.089 A 
HETATM   15  C   UNL     1      41.772 -13.505  -0.126  1.00  0.00     0.000 A 
HETATM   16  C   UNL     1      40.982 -15.153  -1.731  1.00  0.00     0.039 A 
HETATM   17  C   UNL     1      42.074 -12.634  -1.175  1.00  0.00     0.033 A 
HETATM   18  C   UNL     1      42.025 -13.169   1.263  1.00  0.00     0.034 A 
HETATM   19  C   UNL     1      41.829 -13.027  -2.493  1.00  0.00     0.012 A 
HETATM   20  C   UNL     1      41.285 -14.282  -2.777  1.00  0.00     0.022 A 
HETATM   21 BR   UNL     1      42.241 -11.846  -3.912  1.00  0.00    -0.051 Br
ENDBRANCH   8  10
ENDBRANCH   2   5
BRANCH   1  22
HETATM   22  N   UNL     1      43.419 -16.903   6.083  1.00  0.00    -0.364 N 
HETATM   23  H   UNL     1      42.401 -16.791   6.106  1.00  0.00     0.165 HD
BRANCH  22  24
HETATM   24  C   UNL     1      43.882 -17.942   5.263  1.00  0.00     0.032 A 
HETATM   25  C   UNL     1      43.561 -17.907   3.899  1.00  0.00     0.032 A 
HETATM   26  C   UNL     1      43.977 -18.919   3.030  1.00  0.00     0.039 A 
HETATM   27  C   UNL     1      44.731 -19.990   3.506  1.00  0.00     0.068 A 
HETATM   28  C   UNL     1      45.029 -20.059   4.865  1.00  0.00     0.039 A 
HETATM   29  C   UNL     1      44.599 -19.047   5.735  1.00  0.00     0.032 A 
BRANCH  27  30
HETATM   30  O   UNL     1      45.098 -20.901   2.556  1.00  0.00    -0.352 OA
BRANCH  30  31
HETATM   31  C   UNL     1      44.349 -22.114   2.514  1.00  0.00     0.171 C 
HETATM   32  C   UNL     1      43.279 -21.964   1.447  1.00  0.00     0.034 C 
ENDBRANCH  30  31
ENDBRANCH  27  30
ENDBRANCH  22  24
ENDBRANCH   1  22
TORSDOF 6
ENDMDL
MODEL 3
REMARK VINA RESULT:      -8.6      2.579      3.639
REMARK  6 active torsions:
REMARK  status: ('A' for Active; 'I' for Inactive)
REMARK    1  A    between atoms: C_2  and  O_3 
REMARK    2  A    between atoms: O_3  and  C_4 
REMARK    3  A    between atoms: C_7  and  N_8 
REMARK    4  A    between atoms: N_8  and  C_9 
REMARK    5  A    between atoms: C_10  and  C_11 
REMARK    6  A    between atoms: C_14  and  C_15 
ROOT
HETATM    1  C   UNL     1      41.839 -11.430   0.522  1.00  0.00     0.113 C 
HETATM    2  C   UNL     1      41.186 -11.503   1.699  1.00  0.00     0.082 C 
HETATM    3  C   UNL     1      40.784 -10.223   2.415  1.00  0.00     0.024 C 
HETATM    4  N   UNL     1      40.452  -9.161   3.010  1.00  0.00    -0.096 N 
ENDROOT
BRANCH   2   5
HETATM    5  C   UNL     1      40.911 -12.770   2.320  1.00  0.00     0.119 A 
HETATM    6  S   UNL     1      39.295 -13.181   2.813  1.00  0.00    -0.078 SA
HETATM    7  C   UNL     1      39.839 -14.691   3.399  1.00  0.00     0.084 A 
HETATM    8  C   UNL     1      41.192 -14.824   3.185  1.00  0.00     0.081 A 
HETATM    9  N   UNL     1      41.792 -13.733   2.565  1.00  0.00    -0.239 NA
BRANCH   8  10
HETATM   10  C   UNL     1      42.020 -15.932   3.588  1.00  0.00     0.070 A 
HETATM   11  C   UNL     1      42.767 -15.868   4.887  1.00  0.00     0.301 A 
HETATM   12  O   UNL     1      42.665 -14.929   5.669  1.00  0.00    -0.259 OA
HETATM   13  O   UNL     1      43.609 -16.935   5.194  1.00  0.00    -0.274 OA
HETATM   14  C   UNL     1      43.729 -18.057   4.360  1.00  0.00     0.089 A 
HETATM   15  C   UNL     1      43.002 -18.138   3.179  1.00  0.00     0.000 A 
HETATM   16  C   UNL     1      44.593 -19.072   4.763  1.00  0.00     0.039 A 
HETATM   17  C   UNL     1      43.142 -19.272   2.375  1.00  0.00     0.033 A 
HETATM   18  C   UNL     1      42.140 -17.028   2.815  1.00  0.00     0.034 A 
HETATM   19  C   UNL     1      44.007 -20.296   2.770  1.00  0.00     0.012 A 
HETATM   20  C   UNL     1      44.733 -20.202   3.960  1.00  0.00     0.022 A 
HETATM   21 BR   UNL     1      44.198 -21.830   1.679  1.00  0.00    -0.051 Br
ENDBRANCH   8  10
ENDBRANCH   2   5
BRANCH   1  22
HETATM   22  N   UNL     1      42.347 -12.473  -0.218  1.00  0.00    -0.364 N 
HETATM   23  H   UNL     1      43.229 -12.855   0.137  1.00  0.00     0.165 HD
BRANCH  22  24
HETATM   24  C   UNL     1      41.774 -13.192  -1.277  1.00  0.00     0.032 A 
HETATM   25  C   UNL     1      41.320 -14.495  -1.029  1.00  0.00     0.032 A 
HETATM   26  C   UNL     1      40.754 -15.270  -2.044  1.00  0.00     0.039 A 
HETATM   27  C   UNL     1      40.623 -14.757  -3.333  1.00  0.00     0.068 A 
HETATM   28  C   UNL     1      41.102 -13.478  -3.606  1.00  0.00     0.039 A 
HETATM   29  C   UNL     1      41.680 -12.707  -2.586  1.00  0.00     0.032 A 
BRANCH  27  30
HETATM   30  O   UNL     1      40.032 -15.601  -4.230  1.00  0.00    -0.352 OA
BRANCH  30  31
HETATM   31  C   UNL     1      38.790 -16.181  -3.838  1.00  0.00     0.171 C 
HETATM   32  C   UNL     1      37.702 -15.144  -4.056  1.00  0.00     0.034 C 
ENDBRANCH  30  31
ENDBRANCH  27  30
ENDBRANCH  22  24
ENDBRANCH   1  22
TORSDOF 6
ENDMDL
MODEL 4
REMARK VINA RESULT:      -8.0      3.647      7.253
REMARK  6 active torsions:
REMARK  status: ('A' for Active; 'I' for Inactive)
REMARK    1  A    between atoms: C_2  and  O_3 
REMARK    2  A    between atoms: O_3  and  C_4 
REMARK    3  A    between atoms: C_7  and  N_8 
REMARK    4  A    between atoms: N_8  and  C_9 
REMARK    5  A    between atoms: C_10  and  C_11 
REMARK    6  A    between atoms: C_14  and  C_15 
ROOT
HETATM    1  C   UNL     1      41.329 -11.325   6.623  1.00  0.00     0.113 C 
HETATM    2  C   UNL     1      40.866 -11.812   5.455  1.00  0.00     0.082 C 
HETATM    3  C   UNL     1      39.494 -11.389   4.955  1.00  0.00     0.024 C 
HETATM    4  N   UNL     1      38.355 -11.039   4.541  1.00  0.00    -0.096 N 
ENDROOT
BRANCH   2   5
HETATM    5  C   UNL     1      41.624 -12.771   4.698  1.00  0.00     0.119 A 
HETATM    6  S   UNL     1      42.063 -12.446   3.047  1.00  0.00    -0.078 SA
HETATM    7  C   UNL     1      42.848 -13.959   2.939  1.00  0.00     0.084 A 
HETATM    8  C   UNL     1      42.760 -14.627   4.140  1.00  0.00     0.081 A 
HETATM    9  N   UNL     1      42.070 -13.942   5.135  1.00  0.00    -0.239 NA
BRANCH   8  10
HETATM   10  C   UNL     1      43.252 -15.951   4.424  1.00  0.00     0.070 A 
HETATM   11  C   UNL     1      43.828 -16.256   5.774  1.00  0.00     0.301 A 
HETATM   12  O   UNL     1      43.851 -15.439   6.689  1.00  0.00    -0.259 OA
HETATM   13  O   UNL     1      44.355 -17.531   5.973  1.00  0.00    -0.274 OA
HETATM   14  C   UNL     1      44.312 -18.520   4.979  1.00  0.00     0.089 A 
HETATM   15  C   UNL     1      43.737 -18.253   3.743  1.00  0.00     0.000 A 
HETATM   16  C   UNL     1      44.861 -19.764   5.282  1.00  0.00     0.039 A 
HETATM   17  C   UNL     1      43.708 -19.263   2.778  1.00  0.00     0.033 A 
HETATM   18  C   UNL     1      43.208 -16.924   3.494  1.00  0.00     0.034 A 
HETATM   19  C   UNL     1      44.255 -20.514   3.071  1.00  0.00     0.012 A 
HETATM   20  C   UNL     1      44.832 -20.770   4.317  1.00  0.00     0.022 A 
HETATM   21 BR   UNL     1      44.218 -21.880   1.763  1.00  0.00    -0.051 Br
ENDBRANCH   8  10
ENDBRANCH   2   5
BRANCH   1  22
HETATM   22  N   UNL     1      42.501 -11.658   7.262  1.00  0.00    -0.364 N 
HETATM   23  H   UNL     1      43.189 -12.130   6.669  1.00  0.00     0.165 HD
BRANCH  22  24
HETATM   24  C   UNL     1      42.960 -11.315   8.543  1.00  0.00     0.032 A 
HETATM   25  C   UNL     1      42.102 -10.597   9.387  1.00  0.00     0.032 A 
HETATM   26  C   UNL     1      42.504 -10.210  10.668  1.00  0.00     0.039 A 
HETATM   27  C   UNL     1      43.773 -10.539  11.139  1.00  0.00     0.068 A 
HETATM   28  C   UNL     1      44.651 -11.221  10.299  1.00  0.00     0.039 A 
HETATM   29  C   UNL     1      44.248 -11.597   9.009  1.00  0.00     0.032 A 
BRANCH  27  30
HETATM   30  O   UNL     1      44.039 -10.128  12.414  1.00  0.00    -0.352 OA
BRANCH  30  31
HETATM   31  C   UNL     1      42.919 -10.001  13.289  1.00  0.00     0.171 C 
HETATM   32  C   UNL     1      42.852  -8.556  13.752  1.00  0.00     0.034 C 
ENDBRANCH  30  31
ENDBRANCH  27  30
ENDBRANCH  22  24
ENDBRANCH   1  22
TORSDOF 6
ENDMDL
MODEL 5
REMARK VINA RESULT:      -8.0      3.187      7.454
REMARK  6 active torsions:
REMARK  status: ('A' for Active; 'I' for Inactive)
REMARK    1  A    between atoms: C_2  and  O_3 
REMARK    2  A    between atoms: O_3  and  C_4 
REMARK    3  A    between atoms: C_7  and  N_8 
REMARK    4  A    between atoms: N_8  and  C_9 
REMARK    5  A    between atoms: C_10  and  C_11 
REMARK    6  A    between atoms: C_14  and  C_15 
ROOT
HETATM    1  C   UNL     1      40.283 -14.907   5.447  1.00  0.00     0.113 C 
HETATM    2  C   UNL     1      40.344 -13.603   5.114  1.00  0.00     0.082 C 
HETATM    3  C   UNL     1      40.214 -12.544   6.197  1.00  0.00     0.024 C 
HETATM    4  N   UNL     1      40.105 -11.666   7.096  1.00  0.00    -0.096 N 
ENDROOT
BRANCH   2   5
HETATM    5  C   UNL     1      40.473 -13.192   3.743  1.00  0.00     0.119 A 
HETATM    6  S   UNL     1      40.949 -11.566   3.348  1.00  0.00    -0.078 SA
HETATM    7  C   UNL     1      40.844 -11.921   1.680  1.00  0.00     0.084 A 
HETATM    8  C   UNL     1      40.476 -13.235   1.497  1.00  0.00     0.081 A 
HETATM    9  N   UNL     1      40.275 -13.951   2.672  1.00  0.00    -0.239 NA
BRANCH   8  10
HETATM   10  C   UNL     1      40.232 -13.890   0.236  1.00  0.00     0.070 A 
HETATM   11  C   UNL     1      41.231 -14.874  -0.296  1.00  0.00     0.301 A 
HETATM   12  O   UNL     1      42.238 -15.203   0.324  1.00  0.00    -0.259 OA
HETATM   13  O   UNL     1      40.982 -15.424  -1.551  1.00  0.00    -0.274 OA
HETATM   14  C   UNL     1      39.824 -15.122  -2.283  1.00  0.00     0.089 A 
HETATM   15  C   UNL     1      38.875 -14.246  -1.771  1.00  0.00     0.000 A 
HETATM   16  C   UNL     1      39.668 -15.731  -3.526  1.00  0.00     0.039 A 
HETATM   17  C   UNL     1      37.732 -13.970  -2.525  1.00  0.00     0.033 A 
HETATM   18  C   UNL     1      39.122 -13.631  -0.479  1.00  0.00     0.034 A 
HETATM   19  C   UNL     1      37.565 -14.576  -3.773  1.00  0.00     0.012 A 
HETATM   20  C   UNL     1      38.527 -15.455  -4.277  1.00  0.00     0.022 A 
HETATM   21 BR   UNL     1      36.018 -14.201  -4.795  1.00  0.00    -0.051 Br
ENDBRANCH   8  10
ENDBRANCH   2   5
BRANCH   1  22
HETATM   22  N   UNL     1      40.300 -15.990   4.597  1.00  0.00    -0.364 N 
HETATM   23  H   UNL     1      39.502 -16.038   3.957  1.00  0.00     0.165 HD
BRANCH  22  24
HETATM   24  C   UNL     1      41.305 -16.939   4.363  1.00  0.00     0.032 A 
HETATM   25  C   UNL     1      41.626 -17.256   3.036  1.00  0.00     0.032 A 
HETATM   26  C   UNL     1      42.606 -18.204   2.734  1.00  0.00     0.039 A 
HETATM   27  C   UNL     1      43.295 -18.856   3.756  1.00  0.00     0.068 A 
HETATM   28  C   UNL     1      42.963 -18.580   5.080  1.00  0.00     0.039 A 
HETATM   29  C   UNL     1      41.970 -17.635   5.378  1.00  0.00     0.032 A 
BRANCH  27  30
HETATM   30  O   UNL     1      44.245 -19.742   3.334  1.00  0.00    -0.352 OA
BRANCH  30  31
HETATM   31  C   UNL     1      43.951 -20.476   2.147  1.00  0.00     0.171 C 
HETATM   32  C   UNL     1      44.284 -21.935   2.406  1.00  0.00     0.034 C 
ENDBRANCH  30  31
ENDBRANCH  27  30
ENDBRANCH  22  24
ENDBRANCH   1  22
TORSDOF 6
ENDMDL
MODEL 6
REMARK VINA RESULT:      -7.5      3.293      5.806
REMARK  6 active torsions:
REMARK  status: ('A' for Active; 'I' for Inactive)
REMARK    1  A    between atoms: C_2  and  O_3 
REMARK    2  A    between atoms: O_3  and  C_4 
REMARK    3  A    between atoms: C_7  and  N_8 
REMARK    4  A    between atoms: N_8  and  C_9 
REMARK    5  A    between atoms: C_10  and  C_11 
REMARK    6  A    between atoms: C_14  and  C_15 
ROOT
HETATM    1  C   UNL     1      41.211 -11.469   0.143  1.00  0.00     0.113 C 
HETATM    2  C   UNL     1      40.645 -12.616  -0.281  1.00  0.00     0.082 C 
HETATM    3  C   UNL     1      40.203 -12.746  -1.729  1.00  0.00     0.024 C 
HETATM    4  N   UNL     1      39.835 -12.853  -2.931  1.00  0.00    -0.096 N 
ENDROOT
BRANCH   2   5
HETATM    5  C   UNL     1      40.399 -13.703   0.628  1.00  0.00     0.119 A 
HETATM    6  S   UNL     1      38.787 -14.039   1.188  1.00  0.00    -0.078 SA
HETATM    7  C   UNL     1      39.367 -15.339   2.132  1.00  0.00     0.084 A 
HETATM    8  C   UNL     1      40.727 -15.471   1.974  1.00  0.00     0.081 A 
HETATM    9  N   UNL     1      41.305 -14.544   1.112  1.00  0.00    -0.239 NA
BRANCH   8  10
HETATM   10  C   UNL     1      41.582 -16.417   2.646  1.00  0.00     0.070 A 
HETATM   11  C   UNL     1      42.087 -16.114   4.025  1.00  0.00     0.301 A 
HETATM   12  O   UNL     1      41.758 -15.109   4.649  1.00  0.00    -0.259 OA
HETATM   13  O   UNL     1      42.967 -17.028   4.600  1.00  0.00    -0.274 OA
HETATM   14  C   UNL     1      43.340 -18.216   3.953  1.00  0.00     0.089 A 
HETATM   15  C   UNL     1      42.837 -18.520   2.695  1.00  0.00     0.000 A 
HETATM   16  C   UNL     1      44.221 -19.064   4.618  1.00  0.00     0.039 A 
HETATM   17  C   UNL     1      43.226 -19.713   2.081  1.00  0.00     0.033 A 
HETATM   18  C   UNL     1      41.942 -17.572   2.055  1.00  0.00     0.034 A 
HETATM   19  C   UNL     1      44.109 -20.573   2.740  1.00  0.00     0.012 A 
HETATM   20  C   UNL     1      44.609 -20.254   4.005  1.00  0.00     0.022 A 
HETATM   21 BR   UNL     1      44.637 -22.187   1.907  1.00  0.00    -0.051 Br
ENDBRANCH   8  10
ENDBRANCH   2   5
BRANCH   1  22
HETATM   22  N   UNL     1      41.592 -11.148   1.426  1.00  0.00    -0.364 N 
HETATM   23  H   UNL     1      42.525 -10.732   1.499  1.00  0.00     0.165 HD
BRANCH  22  24
HETATM   24  C   UNL     1      40.852 -11.155   2.617  1.00  0.00     0.032 A 
HETATM   25  C   UNL     1      41.372 -11.843   3.721  1.00  0.00     0.032 A 
HETATM   26  C   UNL     1      40.677 -11.902   4.932  1.00  0.00     0.039 A 
HETATM   27  C   UNL     1      39.444 -11.267   5.068  1.00  0.00     0.068 A 
HETATM   28  C   UNL     1      38.895 -10.609   3.969  1.00  0.00     0.039 A 
HETATM   29  C   UNL     1      39.591 -10.563   2.752  1.00  0.00     0.032 A 
BRANCH  27  30
HETATM   30  O   UNL     1      38.875 -11.375   6.305  1.00  0.00    -0.352 OA
BRANCH  30  31
HETATM   31  C   UNL     1      39.679 -10.975   7.414  1.00  0.00     0.171 C 
HETATM   32  C   UNL     1      39.619  -9.460   7.509  1.00  0.00     0.034 C 
ENDBRANCH  30  31
ENDBRANCH  27  30
ENDBRANCH  22  24
ENDBRANCH   1  22
TORSDOF 6
ENDMDL
MODEL 7
REMARK VINA RESULT:      -7.5      2.269      2.945
REMARK  6 active torsions:
REMARK  status: ('A' for Active; 'I' for Inactive)
REMARK    1  A    between atoms: C_2  and  O_3 
REMARK    2  A    between atoms: O_3  and  C_4 
REMARK    3  A    between atoms: C_7  and  N_8 
REMARK    4  A    between atoms: N_8  and  C_9 
REMARK    5  A    between atoms: C_10  and  C_11 
REMARK    6  A    between atoms: C_14  and  C_15 
ROOT
HETATM    1  C   UNL     1      40.919 -11.690   2.915  1.00  0.00     0.113 C 
HETATM    2  C   UNL     1      40.965 -12.248   4.141  1.00  0.00     0.082 C 
HETATM    3  C   UNL     1      40.059 -11.720   5.241  1.00  0.00     0.024 C 
HETATM    4  N   UNL     1      39.308 -11.281   6.155  1.00  0.00    -0.096 N 
ENDROOT
BRANCH   2   5
HETATM    5  C   UNL     1      41.898 -13.299   4.444  1.00  0.00     0.119 A 
HETATM    6  S   UNL     1      43.030 -13.125   5.753  1.00  0.00    -0.078 SA
HETATM    7  C   UNL     1      43.681 -14.669   5.419  1.00  0.00     0.084 A 
HETATM    8  C   UNL     1      43.015 -15.246   4.361  1.00  0.00     0.081 A 
HETATM    9  N   UNL     1      41.999 -14.466   3.819  1.00  0.00    -0.239 NA
BRANCH   8  10
HETATM   10  C   UNL     1      43.310 -16.519   3.753  1.00  0.00     0.070 A 
HETATM   11  C   UNL     1      43.160 -16.687   2.270  1.00  0.00     0.301 A 
HETATM   12  O   UNL     1      42.850 -15.764   1.523  1.00  0.00    -0.259 OA
HETATM   13  O   UNL     1      43.388 -17.957   1.743  1.00  0.00    -0.274 OA
HETATM   14  C   UNL     1      43.792 -19.036   2.543  1.00  0.00     0.089 A 
HETATM   15  C   UNL     1      43.976 -18.870   3.910  1.00  0.00     0.000 A 
HETATM   16  C   UNL     1      44.000 -20.262   1.916  1.00  0.00     0.039 A 
HETATM   17  C   UNL     1      44.382 -19.966   4.676  1.00  0.00     0.033 A 
HETATM   18  C   UNL     1      43.715 -17.567   4.494  1.00  0.00     0.034 A 
HETATM   19  C   UNL     1      44.594 -21.201   4.057  1.00  0.00     0.012 A 
HETATM   20  C   UNL     1      44.405 -21.355   2.682  1.00  0.00     0.022 A 
HETATM   21 BR   UNL     1      45.142 -22.684   5.095  1.00  0.00    -0.051 Br
ENDBRANCH   8  10
ENDBRANCH   2   5
BRANCH   1  22
HETATM   22  N   UNL     1      41.717 -11.982   1.832  1.00  0.00    -0.364 N 
HETATM   23  H   UNL     1      42.702 -11.726   1.949  1.00  0.00     0.165 HD
BRANCH  22  24
HETATM   24  C   UNL     1      41.429 -12.712   0.669  1.00  0.00     0.032 A 
HETATM   25  C   UNL     1      40.336 -13.588   0.687  1.00  0.00     0.032 A 
HETATM   26  C   UNL     1      40.005 -14.356  -0.433  1.00  0.00     0.039 A 
HETATM   27  C   UNL     1      40.758 -14.260  -1.601  1.00  0.00     0.068 A 
HETATM   28  C   UNL     1      41.871 -13.422  -1.623  1.00  0.00     0.039 A 
HETATM   29  C   UNL     1      42.206 -12.661  -0.493  1.00  0.00     0.032 A 
BRANCH  27  30
HETATM   30  O   UNL     1      40.321 -15.042  -2.633  1.00  0.00    -0.352 OA
BRANCH  30  31
HETATM   31  C   UNL     1      39.204 -14.553  -3.373  1.00  0.00     0.171 C 
HETATM   32  C   UNL     1      38.643 -15.707  -4.186  1.00  0.00     0.034 C 
ENDBRANCH  30  31
ENDBRANCH  27  30
ENDBRANCH  22  24
ENDBRANCH   1  22
TORSDOF 6
ENDMDL
MODEL 8
REMARK VINA RESULT:      -7.4      3.002      6.785
REMARK  6 active torsions:
REMARK  status: ('A' for Active; 'I' for Inactive)
REMARK    1  A    between atoms: C_2  and  O_3 
REMARK    2  A    between atoms: O_3  and  C_4 
REMARK    3  A    between atoms: C_7  and  N_8 
REMARK    4  A    between atoms: N_8  and  C_9 
REMARK    5  A    between atoms: C_10  and  C_11 
REMARK    6  A    between atoms: C_14  and  C_15 
ROOT
HETATM    1  C   UNL     1      44.039 -15.329   6.731  1.00  0.00     0.113 C 
HETATM    2  C   UNL     1      43.979 -13.987   6.834  1.00  0.00     0.082 C 
HETATM    3  C   UNL     1      44.988 -13.255   7.705  1.00  0.00     0.024 C 
HETATM    4  N   UNL     1      45.824 -12.647   8.428  1.00  0.00    -0.096 N 
ENDROOT
BRANCH   2   5
HETATM    5  C   UNL     1      42.941 -13.237   6.181  1.00  0.00     0.119 A 
HETATM    6  S   UNL     1      42.291 -11.801   6.917  1.00  0.00    -0.078 SA
HETATM    7  C   UNL     1      41.220 -11.591   5.603  1.00  0.00     0.084 A 
HETATM    8  C   UNL     1      41.408 -12.588   4.673  1.00  0.00     0.081 A 
HETATM    9  N   UNL     1      42.392 -13.514   5.005  1.00  0.00    -0.239 NA
BRANCH   8  10
HETATM   10  C   UNL     1      40.658 -12.781   3.457  1.00  0.00     0.070 A 
HETATM   11  C   UNL     1      39.230 -12.329   3.385  1.00  0.00     0.301 A 
HETATM   12  O   UNL     1      38.670 -11.739   4.304  1.00  0.00    -0.259 OA
HETATM   13  O   UNL     1      38.530 -12.604   2.212  1.00  0.00    -0.274 OA
HETATM   14  C   UNL     1      39.132 -13.232   1.112  1.00  0.00     0.089 A 
HETATM   15  C   UNL     1      40.469 -13.610   1.161  1.00  0.00     0.000 A 
HETATM   16  C   UNL     1      38.346 -13.455  -0.015  1.00  0.00     0.039 A 
HETATM   17  C   UNL     1      41.037 -14.230   0.046  1.00  0.00     0.033 A 
HETATM   18  C   UNL     1      41.216 -13.366   2.381  1.00  0.00     0.034 A 
HETATM   19  C   UNL     1      40.257 -14.458  -1.091  1.00  0.00     0.012 A 
HETATM   20  C   UNL     1      38.915 -14.074  -1.127  1.00  0.00     0.022 A 
HETATM   21 BR   UNL     1      41.028 -15.300  -2.600  1.00  0.00    -0.051 Br
ENDBRANCH   8  10
ENDBRANCH   2   5
BRANCH   1  22
HETATM   22  N   UNL     1      43.167 -16.156   6.061  1.00  0.00    -0.364 N 
HETATM   23  H   UNL     1      42.177 -15.963   6.240  1.00  0.00     0.165 HD
BRANCH  22  24
HETATM   24  C   UNL     1      43.413 -17.108   5.060  1.00  0.00     0.032 A 
HETATM   25  C   UNL     1      43.114 -16.771   3.733  1.00  0.00     0.032 A 
HETATM   26  C   UNL     1      43.320 -17.679   2.691  1.00  0.00     0.039 A 
HETATM   27  C   UNL     1      43.838 -18.946   2.952  1.00  0.00     0.068 A 
HETATM   28  C   UNL     1      44.106 -19.310   4.270  1.00  0.00     0.039 A 
HETATM   29  C   UNL     1      43.886 -18.399   5.314  1.00  0.00     0.032 A 
BRANCH  27  30
HETATM   30  O   UNL     1      44.017 -19.732   1.850  1.00  0.00    -0.352 OA
BRANCH  30  31
HETATM   31  C   UNL     1      43.353 -20.995   1.853  1.00  0.00     0.171 C 
HETATM   32  C   UNL     1      44.413 -22.079   1.768  1.00  0.00     0.034 C 
ENDBRANCH  30  31
ENDBRANCH  27  30
ENDBRANCH  22  24
ENDBRANCH   1  22
TORSDOF 6
ENDMDL
MODEL 9
REMARK VINA RESULT:      -7.3      3.218      7.282
REMARK  6 active torsions:
REMARK  status: ('A' for Active; 'I' for Inactive)
REMARK    1  A    between atoms: C_2  and  O_3 
REMARK    2  A    between atoms: O_3  and  C_4 
REMARK    3  A    between atoms: C_7  and  N_8 
REMARK    4  A    between atoms: N_8  and  C_9 
REMARK    5  A    between atoms: C_10  and  C_11 
REMARK    6  A    between atoms: C_14  and  C_15 
ROOT
HETATM    1  C   UNL     1      39.892 -14.090   6.291  1.00  0.00     0.113 C 
HETATM    2  C   UNL     1      39.743 -12.768   6.078  1.00  0.00     0.082 C 
HETATM    3  C   UNL     1      39.595 -11.828   7.264  1.00  0.00     0.024 C 
HETATM    4  N   UNL     1      39.471 -11.048   8.248  1.00  0.00    -0.096 N 
ENDROOT
BRANCH   2   5
HETATM    5  C   UNL     1      39.664 -12.234   4.746  1.00  0.00     0.119 A 
HETATM    6  S   UNL     1      39.109 -10.608   4.476  1.00  0.00    -0.078 SA
HETATM    7  C   UNL     1      39.305 -10.802   2.790  1.00  0.00     0.084 A 
HETATM    8  C   UNL     1      39.788 -12.060   2.510  1.00  0.00     0.081 A 
HETATM    9  N   UNL     1      39.997 -12.864   3.625  1.00  0.00    -0.239 NA
BRANCH   8  10
HETATM   10  C   UNL     1      40.031 -12.614   1.202  1.00  0.00     0.070 A 
HETATM   11  C   UNL     1      41.440 -12.801   0.723  1.00  0.00     0.301 A 
HETATM   12  O   UNL     1      42.419 -12.558   1.422  1.00  0.00    -0.259 OA
HETATM   13  O   UNL     1      41.618 -13.274  -0.576  1.00  0.00    -0.274 OA
HETATM   14  C   UNL     1      40.536 -13.615  -1.402  1.00  0.00     0.089 A 
HETATM   15  C   UNL     1      39.231 -13.485  -0.943  1.00  0.00     0.000 A 
HETATM   16  C   UNL     1      40.824 -14.083  -2.681  1.00  0.00     0.039 A 
HETATM   17  C   UNL     1      38.179 -13.837  -1.791  1.00  0.00     0.033 A 
HETATM   18  C   UNL     1      39.012 -12.965   0.395  1.00  0.00     0.034 A 
HETATM   19  C   UNL     1      38.455 -14.309  -3.077  1.00  0.00     0.012 A 
HETATM   20  C   UNL     1      39.772 -14.434  -3.526  1.00  0.00     0.022 A 
HETATM   21 BR   UNL     1      37.029 -14.784  -4.225  1.00  0.00    -0.051 Br
ENDBRANCH   8  10
ENDBRANCH   2   5
BRANCH   1  22
HETATM   22  N   UNL     1      39.956 -15.088   5.345  1.00  0.00    -0.364 N 
HETATM   23  H   UNL     1      39.161 -15.113   4.700  1.00  0.00     0.165 HD
BRANCH  22  24
HETATM   24  C   UNL     1      41.003 -15.965   5.029  1.00  0.00     0.032 A 
HETATM   25  C   UNL     1      42.058 -15.486   4.241  1.00  0.00     0.032 A 
HETATM   26  C   UNL     1      43.124 -16.314   3.876  1.00  0.00     0.039 A 
HETATM   27  C   UNL     1      43.162 -17.641   4.298  1.00  0.00     0.068 A 
HETATM   28  C   UNL     1      42.104 -18.144   5.052  1.00  0.00     0.039 A 
HETATM   29  C   UNL     1      41.030 -17.313   5.405  1.00  0.00     0.032 A 
BRANCH  27  30
HETATM   30  O   UNL     1      44.266 -18.340   3.899  1.00  0.00    -0.352 OA
BRANCH  30  31
HETATM   31  C   UNL     1      44.042 -19.665   3.419  1.00  0.00     0.171 C 
HETATM   32  C   UNL     1      43.557 -19.565   1.984  1.00  0.00     0.034 C 
ENDBRANCH  30  31
ENDBRANCH  27  30
ENDBRANCH  22  24
ENDBRANCH   1  22
TORSDOF 6
ENDMDL
MODEL 10
REMARK VINA RESULT:      -7.3      3.982      8.892
REMARK  6 active torsions:
REMARK  status: ('A' for Active; 'I' for Inactive)
REMARK    1  A    between atoms: C_2  and  O_3 
REMARK    2  A    between atoms: O_3  and  C_4 
REMARK    3  A    between atoms: C_7  and  N_8 
REMARK    4  A    between atoms: N_8  and  C_9 
REMARK    5  A    between atoms: C_10  and  C_11 
REMARK    6  A    between atoms: C_14  and  C_15 
ROOT
HETATM    1  C   UNL     1      44.398 -14.998   6.928  1.00  0.00     0.113 C 
HETATM    2  C   UNL     1      43.796 -15.925   6.158  1.00  0.00     0.082 C 
HETATM    3  C   UNL     1      44.277 -17.366   6.203  1.00  0.00     0.024 C 
HETATM    4  N   UNL     1      44.676 -18.562   6.239  1.00  0.00    -0.096 N 
ENDROOT
BRANCH   2   5
HETATM    5  C   UNL     1      42.741 -15.564   5.250  1.00  0.00     0.119 A 
HETATM    6  S   UNL     1      41.197 -15.038   5.852  1.00  0.00    -0.078 SA
HETATM    7  C   UNL     1      40.618 -14.851   4.256  1.00  0.00     0.084 A 
HETATM    8  C   UNL     1      41.605 -15.174   3.352  1.00  0.00     0.081 A 
HETATM    9  N   UNL     1      42.809 -15.570   3.924  1.00  0.00    -0.239 NA
BRANCH   8  10
HETATM   10  C   UNL     1      41.481 -15.192   1.916  1.00  0.00     0.070 A 
HETATM   11  C   UNL     1      41.060 -16.453   1.222  1.00  0.00     0.301 A 
HETATM   12  O   UNL     1      40.751 -17.475   1.827  1.00  0.00    -0.259 OA
HETATM   13  O   UNL     1      41.026 -16.437  -0.171  1.00  0.00    -0.274 OA
HETATM   14  C   UNL     1      41.322 -15.283  -0.913  1.00  0.00     0.089 A 
HETATM   15  C   UNL     1      41.668 -14.101  -0.269  1.00  0.00     0.000 A 
HETATM   16  C   UNL     1      41.252 -15.372  -2.300  1.00  0.00     0.039 A 
HETATM   17  C   UNL     1      41.952 -12.971  -1.038  1.00  0.00     0.033 A 
HETATM   18  C   UNL     1      41.743 -14.095   1.181  1.00  0.00     0.034 A 
HETATM   19  C   UNL     1      41.885 -13.048  -2.432  1.00  0.00     0.012 A 
HETATM   20  C   UNL     1      41.537 -14.242  -3.067  1.00  0.00     0.022 A 
HETATM   21 BR   UNL     1      42.273 -11.517  -3.472  1.00  0.00    -0.051 Br
ENDBRANCH   8  10
ENDBRANCH   2   5
BRANCH   1  22
HETATM   22  N   UNL     1      44.152 -13.644   6.955  1.00  0.00    -0.364 N 
HETATM   23  H   UNL     1      43.672 -13.283   6.125  1.00  0.00     0.165 HD
BRANCH  22  24
HETATM   24  C   UNL     1      44.310 -12.718   7.996  1.00  0.00     0.032 A 
HETATM   25  C   UNL     1      43.237 -11.869   8.301  1.00  0.00     0.032 A 
HETATM   26  C   UNL     1      43.334 -10.914   9.315  1.00  0.00     0.039 A 
HETATM   27  C   UNL     1      44.508 -10.788  10.055  1.00  0.00     0.068 A 
HETATM   28  C   UNL     1      45.597 -11.599   9.741  1.00  0.00     0.039 A 
HETATM   29  C   UNL     1      45.498 -12.549   8.714  1.00  0.00     0.032 A 
BRANCH  27  30
HETATM   30  O   UNL     1      44.472  -9.836  11.035  1.00  0.00    -0.352 OA
BRANCH  30  31
HETATM   31  C   UNL     1      43.199  -9.577  11.625  1.00  0.00     0.171 C 
HETATM   32  C   UNL     1      43.256 -10.030  13.073  1.00  0.00     0.034 C 
ENDBRANCH  30  31
ENDBRANCH  27  30
ENDBRANCH  22  24
ENDBRANCH   1  22
TORSDOF 6
ENDMDL
