MODEL 1
REMARK VINA RESULT:      -8.8      0.000      0.000
REMARK  10 active torsions:
REMARK  status: ('A' for Active; 'I' for Inactive)
REMARK    1  A    between atoms: N_15  and  C_16 
REMARK    2  A    between atoms: C_16  and  C_17 
REMARK    3  A    between atoms: C_17  and  N_18 
REMARK       I    between atoms: N_18  and  C_19 
REMARK    4  A    between atoms: C_19  and  C_20 
REMARK    5  A    between atoms: C_20  and  C_21 
REMARK    6  A    between atoms: C_21  and  C_22 
REMARK    7  A    between atoms: C_24  and  C_25 
REMARK    8  A    between atoms: C_29  and  O_30 
REMARK    9  A    between atoms: C_31  and  C_32 
REMARK   10  A    between atoms: C_38  and  O_39 
ROOT
HETATM    1  C   UNL     1      39.430 -11.203   3.368  1.00  0.00     0.142 C 
ENDROOT
BRANCH   1   2
HETATM    2  C   UNL     1      38.278 -11.761   2.520  1.00  0.00     0.151 C 
BRANCH   2   3
HETATM    3  N   UNL     1      38.706 -12.527   1.334  1.00  0.00    -0.291 N 
HETATM    4  C   UNL     1      39.011 -13.857   1.408  1.00  0.00     0.366 A 
HETATM    5  O   UNL     1      39.204 -14.355   0.162  1.00  0.00    -0.287 OA
HETATM    6  O   UNL     1      39.114 -14.530   2.417  1.00  0.00    -0.238 OA
HETATM    7  C   UNL     1      39.004 -13.338  -0.878  1.00  0.00     0.126 A 
HETATM    8  C   UNL     1      40.380 -13.283  -1.574  1.00  0.00     0.082 C 
HETATM    9  C   UNL     1      38.604 -12.079  -0.026  1.00  0.00     0.166 A 
HETATM   10  C   UNL     1      37.961 -13.984  -1.815  1.00  0.00     0.082 C 
HETATM   11  C   UNL     1      40.398 -12.678  -2.978  1.00  0.00     0.122 C 
HETATM   12  N   UNL     1      39.369 -13.399  -3.818  1.00  0.00    -0.059 N 
HETATM   13  C   UNL     1      41.765 -12.973  -3.633  1.00  0.00     0.046 C 
HETATM   14  C   UNL     1      40.180 -11.166  -3.046  1.00  0.00     0.046 C 
HETATM   15  C   UNL     1      37.961 -13.599  -3.309  1.00  0.00     0.122 C 
HETATM   16  H   UNL     1      39.755 -14.335  -4.014  1.00  0.00     0.279 HD
HETATM   17  H   UNL     1      39.329 -12.955  -4.750  1.00  0.00     0.279 HD
HETATM   18  C   UNL     1      37.390 -14.790  -4.118  1.00  0.00     0.046 C 
HETATM   19  C   UNL     1      37.102 -12.385  -3.673  1.00  0.00     0.046 C 
HETATM   20  C   UNL     1      37.239 -11.471  -0.321  1.00  0.00     0.074 C 
BRANCH   9  21
HETATM   21  O   UNL     1      39.599 -11.078  -0.158  1.00  0.00    -0.368 OA
HETATM   22  H   UNL     1      40.302 -11.368   0.455  1.00  0.00     0.212 HD
ENDBRANCH   9  21
ENDBRANCH   2   3
ENDBRANCH   1   2
BRANCH   1  23
HETATM   23  N   UNL     1      40.193 -12.223   4.072  1.00  0.00    -0.359 N 
HETATM   24  C   UNL     1      39.804 -12.679   5.310  1.00  0.00     0.217 C 
HETATM   25  O   UNL     1      38.814 -12.245   5.890  1.00  0.00    -0.274 OA
HETATM   26  H   UNL     1      41.106 -12.484   3.724  1.00  0.00     0.162 HD
BRANCH  24  27
HETATM   27  C   UNL     1      40.671 -13.782   5.892  1.00  0.00     0.107 C 
BRANCH  27  28
HETATM   28  C   UNL     1      40.219 -15.202   5.542  1.00  0.00     0.048 C 
BRANCH  28  29
HETATM   29  C   UNL     1      41.269 -16.232   5.174  1.00  0.00    -0.057 A 
HETATM   30  C   UNL     1      41.507 -16.657   3.864  1.00  0.00     0.018 A 
HETATM   31  C   UNL     1      42.459 -17.646   3.534  1.00  0.00    -0.016 A 
HETATM   32  C   UNL     1      43.221 -18.158   4.606  1.00  0.00     0.079 A 
HETATM   33  C   UNL     1      43.051 -17.743   5.952  1.00  0.00    -0.016 A 
HETATM   34  C   UNL     1      42.046 -16.789   6.201  1.00  0.00     0.018 A 
BRANCH  31  35
HETATM   35  C   UNL     1      42.663 -17.987   2.031  1.00  0.00    -0.021 C 
HETATM   36  C   UNL     1      41.426 -17.482   1.262  1.00  0.00     0.019 C 
HETATM   37  C   UNL     1      43.918 -17.377   1.368  1.00  0.00     0.019 C 
HETATM   38  C   UNL     1      42.794 -19.518   1.799  1.00  0.00     0.019 C 
ENDBRANCH  31  35
BRANCH  32  39
HETATM   39  O   UNL     1      44.208 -19.069   4.364  1.00  0.00    -0.360 OA
HETATM   40  H   UNL     1      44.901 -18.908   5.025  1.00  0.00     0.217 HD
ENDBRANCH  32  39
BRANCH  33  41
HETATM   41  C   UNL     1      43.947 -18.273   7.103  1.00  0.00    -0.021 C 
HETATM   42  C   UNL     1      45.436 -18.000   6.790  1.00  0.00     0.019 C 
HETATM   43  C   UNL     1      43.665 -17.598   8.472  1.00  0.00     0.019 C 
HETATM   44  C   UNL     1      43.723 -19.785   7.324  1.00  0.00     0.019 C 
ENDBRANCH  33  41
ENDBRANCH  28  29
ENDBRANCH  27  28
ENDBRANCH  24  27
ENDBRANCH   1  23
TORSDOF 10
ENDMDL
MODEL 2
REMARK VINA RESULT:      -8.8      0.152      2.949
REMARK  10 active torsions:
REMARK  status: ('A' for Active; 'I' for Inactive)
REMARK    1  A    between atoms: N_15  and  C_16 
REMARK    2  A    between atoms: C_16  and  C_17 
REMARK    3  A    between atoms: C_17  and  N_18 
REMARK       I    between atoms: N_18  and  C_19 
REMARK    4  A    between atoms: C_19  and  C_20 
REMARK    5  A    between atoms: C_20  and  C_21 
REMARK    6  A    between atoms: C_21  and  C_22 
REMARK    7  A    between atoms: C_24  and  C_25 
REMARK    8  A    between atoms: C_29  and  O_30 
REMARK    9  A    between atoms: C_31  and  C_32 
REMARK   10  A    between atoms: C_38  and  O_39 
ROOT
HETATM    1  C   UNL     1      39.414 -11.109   3.295  1.00  0.00     0.142 C 
ENDROOT
BRANCH   1   2
HETATM    2  C   UNL     1      38.257 -11.682   2.464  1.00  0.00     0.151 C 
BRANCH   2   3
HETATM    3  N   UNL     1      38.679 -12.468   1.288  1.00  0.00    -0.291 N 
HETATM    4  C   UNL     1      38.978 -13.797   1.382  1.00  0.00     0.366 A 
HETATM    5  O   UNL     1      39.165 -14.315   0.142  1.00  0.00    -0.287 OA
HETATM    6  O   UNL     1      39.083 -14.455   2.400  1.00  0.00    -0.238 OA
HETATM    7  C   UNL     1      38.966 -13.314  -0.912  1.00  0.00     0.126 A 
HETATM    8  C   UNL     1      40.339 -13.274  -1.613  1.00  0.00     0.082 C 
HETATM    9  C   UNL     1      38.573 -12.040  -0.078  1.00  0.00     0.166 A 
HETATM   10  C   UNL     1      37.917 -13.970  -1.836  1.00  0.00     0.082 C 
HETATM   11  C   UNL     1      40.355 -12.691  -3.027  1.00  0.00     0.122 C 
HETATM   12  N   UNL     1      39.321 -13.421  -3.852  1.00  0.00    -0.059 N 
HETATM   13  C   UNL     1      41.719 -13.002  -3.682  1.00  0.00     0.046 C 
HETATM   14  C   UNL     1      40.143 -11.180  -3.118  1.00  0.00     0.046 C 
HETATM   15  C   UNL     1      37.913 -13.609  -3.336  1.00  0.00     0.122 C 
HETATM   16  H   UNL     1      39.703 -14.362  -4.035  1.00  0.00     0.279 HD
HETATM   17  H   UNL     1      39.279 -12.992  -4.790  1.00  0.00     0.279 HD
HETATM   18  C   UNL     1      37.336 -14.810  -4.124  1.00  0.00     0.046 C 
HETATM   19  C   UNL     1      37.058 -12.397  -3.715  1.00  0.00     0.046 C 
HETATM   20  C   UNL     1      37.210 -11.432  -0.379  1.00  0.00     0.074 C 
BRANCH   9  21
HETATM   21  O   UNL     1      39.572 -11.045  -0.230  1.00  0.00    -0.368 OA
HETATM   22  H   UNL     1      39.275 -10.328   0.364  1.00  0.00     0.212 HD
ENDBRANCH   9  21
ENDBRANCH   2   3
ENDBRANCH   1   2
BRANCH   1  23
HETATM   23  N   UNL     1      40.152 -12.112   4.049  1.00  0.00    -0.359 N 
HETATM   24  C   UNL     1      39.696 -12.573   5.262  1.00  0.00     0.217 C 
HETATM   25  O   UNL     1      38.662 -12.158   5.777  1.00  0.00    -0.274 OA
HETATM   26  H   UNL     1      41.090 -12.355   3.760  1.00  0.00     0.162 HD
BRANCH  24  27
HETATM   27  C   UNL     1      40.547 -13.656   5.900  1.00  0.00     0.107 C 
BRANCH  27  28
HETATM   28  C   UNL     1      40.164 -15.085   5.508  1.00  0.00     0.048 C 
BRANCH  28  29
HETATM   29  C   UNL     1      41.267 -16.078   5.199  1.00  0.00    -0.057 A 
HETATM   30  C   UNL     1      42.082 -16.655   6.177  1.00  0.00     0.018 A 
HETATM   31  C   UNL     1      43.133 -17.548   5.878  1.00  0.00    -0.016 A 
HETATM   32  C   UNL     1      43.291 -17.889   4.517  1.00  0.00     0.079 A 
HETATM   33  C   UNL     1      42.474 -17.365   3.482  1.00  0.00    -0.016 A 
HETATM   34  C   UNL     1      41.482 -16.441   3.862  1.00  0.00     0.018 A 
BRANCH  31  35
HETATM   35  C   UNL     1      43.928 -18.161   7.064  1.00  0.00    -0.021 C 
HETATM   36  C   UNL     1      43.495 -17.427   8.349  1.00  0.00     0.019 C 
HETATM   37  C   UNL     1      43.733 -19.676   7.293  1.00  0.00     0.019 C 
HETATM   38  C   UNL     1      45.462 -17.978   6.888  1.00  0.00     0.019 C 
ENDBRANCH  31  35
BRANCH  32  39
HETATM   39  O   UNL     1      44.241 -18.798   4.150  1.00  0.00    -0.360 OA
HETATM   40  H   UNL     1      43.954 -19.168   3.299  1.00  0.00     0.217 HD
ENDBRANCH  32  39
BRANCH  33  41
HETATM   41  C   UNL     1      42.626 -17.805   2.002  1.00  0.00    -0.021 C 
HETATM   42  C   UNL     1      43.914 -17.205   1.394  1.00  0.00     0.019 C 
HETATM   43  C   UNL     1      42.740 -19.342   1.819  1.00  0.00     0.019 C 
HETATM   44  C   UNL     1      41.399 -17.372   1.169  1.00  0.00     0.019 C 
ENDBRANCH  33  41
ENDBRANCH  28  29
ENDBRANCH  27  28
ENDBRANCH  24  27
ENDBRANCH   1  23
TORSDOF 10
ENDMDL
MODEL 3
REMARK VINA RESULT:      -8.8      5.131      9.150
REMARK  10 active torsions:
REMARK  status: ('A' for Active; 'I' for Inactive)
REMARK    1  A    between atoms: N_15  and  C_16 
REMARK    2  A    between atoms: C_16  and  C_17 
REMARK    3  A    between atoms: C_17  and  N_18 
REMARK       I    between atoms: N_18  and  C_19 
REMARK    4  A    between atoms: C_19  and  C_20 
REMARK    5  A    between atoms: C_20  and  C_21 
REMARK    6  A    between atoms: C_21  and  C_22 
REMARK    7  A    between atoms: C_24  and  C_25 
REMARK    8  A    between atoms: C_29  and  O_30 
REMARK    9  A    between atoms: C_31  and  C_32 
REMARK   10  A    between atoms: C_38  and  O_39 
ROOT
HETATM    1  C   UNL     1      39.529 -13.143   6.524  1.00  0.00     0.142 C 
ENDROOT
BRANCH   1   2
HETATM    2  C   UNL     1      39.738 -13.450   5.033  1.00  0.00     0.151 C 
BRANCH   2   3
HETATM    3  N   UNL     1      41.024 -14.099   4.717  1.00  0.00    -0.291 N 
HETATM    4  C   UNL     1      42.198 -13.401   4.703  1.00  0.00     0.366 A 
HETATM    5  O   UNL     1      43.240 -14.256   4.558  1.00  0.00    -0.287 OA
HETATM    6  O   UNL     1      42.335 -12.195   4.794  1.00  0.00    -0.238 OA
HETATM    7  C   UNL     1      42.804 -15.656   4.488  1.00  0.00     0.126 A 
HETATM    8  C   UNL     1      43.303 -16.103   3.099  1.00  0.00     0.082 C 
HETATM    9  C   UNL     1      41.246 -15.516   4.656  1.00  0.00     0.166 A 
HETATM   10  C   UNL     1      43.628 -16.345   5.596  1.00  0.00     0.082 C 
HETATM   11  C   UNL     1      43.430 -17.612   2.885  1.00  0.00     0.122 C 
HETATM   12  N   UNL     1      44.277 -18.180   4.000  1.00  0.00    -0.059 N 
HETATM   13  C   UNL     1      44.214 -17.869   1.580  1.00  0.00     0.046 C 
HETATM   14  C   UNL     1      42.109 -18.374   2.776  1.00  0.00     0.046 C 
HETATM   15  C   UNL     1      43.985 -17.837   5.442  1.00  0.00     0.122 C 
HETATM   16  H   UNL     1      45.247 -17.883   3.810  1.00  0.00     0.279 HD
HETATM   17  H   UNL     1      44.315 -19.206   3.900  1.00  0.00     0.279 HD
HETATM   18  C   UNL     1      45.303 -18.104   6.210  1.00  0.00     0.046 C 
HETATM   19  C   UNL     1      42.954 -18.819   6.007  1.00  0.00     0.046 C 
HETATM   20  C   UNL     1      40.629 -16.239   5.846  1.00  0.00     0.074 C 
BRANCH   9  21
HETATM   21  O   UNL     1      40.599 -15.939   3.467  1.00  0.00    -0.368 OA
HETATM   22  H   UNL     1      40.258 -16.826   3.693  1.00  0.00     0.212 HD
ENDBRANCH   9  21
ENDBRANCH   2   3
ENDBRANCH   1   2
BRANCH   1  23
HETATM   23  N   UNL     1      40.162 -11.910   6.967  1.00  0.00    -0.359 N 
HETATM   24  C   UNL     1      39.689 -10.681   6.571  1.00  0.00     0.217 C 
HETATM   25  O   UNL     1      38.727 -10.558   5.818  1.00  0.00    -0.274 OA
HETATM   26  H   UNL     1      41.056 -11.956   7.438  1.00  0.00     0.162 HD
BRANCH  24  27
HETATM   27  C   UNL     1      40.421  -9.489   7.159  1.00  0.00     0.107 C 
BRANCH  27  28
HETATM   28  C   UNL     1      40.032  -9.145   8.599  1.00  0.00     0.048 C 
BRANCH  28  29
HETATM   29  C   UNL     1      41.035  -9.400   9.707  1.00  0.00    -0.057 A 
HETATM   30  C   UNL     1      40.905  -8.881  10.999  1.00  0.00     0.018 A 
HETATM   31  C   UNL     1      41.863  -9.090  12.014  1.00  0.00    -0.016 A 
HETATM   32  C   UNL     1      42.956  -9.917  11.677  1.00  0.00     0.079 A 
HETATM   33  C   UNL     1      43.126 -10.502  10.396  1.00  0.00    -0.016 A 
HETATM   34  C   UNL     1      42.150 -10.201   9.426  1.00  0.00     0.018 A 
BRANCH  31  35
HETATM   35  C   UNL     1      41.571  -8.502  13.423  1.00  0.00    -0.021 C 
HETATM   36  C   UNL     1      40.099  -8.041  13.443  1.00  0.00     0.019 C 
HETATM   37  C   UNL     1      41.784  -9.466  14.611  1.00  0.00     0.019 C 
HETATM   38  C   UNL     1      42.474  -7.276  13.737  1.00  0.00     0.019 C 
ENDBRANCH  31  35
BRANCH  32  39
HETATM   39  O   UNL     1      43.892 -10.224  12.622  1.00  0.00    -0.360 OA
HETATM   40  H   UNL     1      44.500  -9.468  12.665  1.00  0.00     0.217 HD
ENDBRANCH  32  39
BRANCH  33  41
HETATM   41  C   UNL     1      44.301 -11.461  10.071  1.00  0.00    -0.021 C 
HETATM   42  C   UNL     1      44.104 -12.096   8.676  1.00  0.00     0.019 C 
HETATM   43  C   UNL     1      45.684 -10.758  10.032  1.00  0.00     0.019 C 
HETATM   44  C   UNL     1      44.422 -12.568  11.142  1.00  0.00     0.019 C 
ENDBRANCH  33  41
ENDBRANCH  28  29
ENDBRANCH  27  28
ENDBRANCH  24  27
ENDBRANCH   1  23
TORSDOF 10
ENDMDL
MODEL 4
REMARK VINA RESULT:      -8.5      1.868      3.992
REMARK  10 active torsions:
REMARK  status: ('A' for Active; 'I' for Inactive)
REMARK    1  A    between atoms: N_15  and  C_16 
REMARK    2  A    between atoms: C_16  and  C_17 
REMARK    3  A    between atoms: C_17  and  N_18 
REMARK       I    between atoms: N_18  and  C_19 
REMARK    4  A    between atoms: C_19  and  C_20 
REMARK    5  A    between atoms: C_20  and  C_21 
REMARK    6  A    between atoms: C_21  and  C_22 
REMARK    7  A    between atoms: C_24  and  C_25 
REMARK    8  A    between atoms: C_29  and  O_30 
REMARK    9  A    between atoms: C_31  and  C_32 
REMARK   10  A    between atoms: C_38  and  O_39 
ROOT
HETATM    1  C   UNL     1      41.520 -13.293   3.224  1.00  0.00     0.142 C 
ENDROOT
BRANCH   1   2
HETATM    2  C   UNL     1      41.835 -12.272   2.121  1.00  0.00     0.151 C 
BRANCH   2   3
HETATM    3  N   UNL     1      40.923 -12.323   0.963  1.00  0.00    -0.291 N 
HETATM    4  C   UNL     1      39.656 -11.816   1.022  1.00  0.00     0.366 A 
HETATM    5  O   UNL     1      39.097 -11.831  -0.214  1.00  0.00    -0.287 OA
HETATM    6  O   UNL     1      39.075 -11.410   2.010  1.00  0.00    -0.238 OA
HETATM    7  C   UNL     1      40.015 -12.355  -1.232  1.00  0.00     0.126 A 
HETATM    8  C   UNL     1      39.264 -13.590  -1.770  1.00  0.00     0.082 C 
HETATM    9  C   UNL     1      41.307 -12.642  -0.383  1.00  0.00     0.166 A 
HETATM   10  C   UNL     1      40.039 -11.241  -2.300  1.00  0.00     0.082 C 
HETATM   11  C   UNL     1      39.708 -14.100  -3.142  1.00  0.00     0.122 C 
HETATM   12  N   UNL     1      39.665 -12.945  -4.115  1.00  0.00    -0.059 N 
HETATM   13  C   UNL     1      38.673 -15.126  -3.653  1.00  0.00     0.046 C 
HETATM   14  C   UNL     1      41.076 -14.781  -3.179  1.00  0.00     0.046 C 
HETATM   15  C   UNL     1      40.309 -11.622  -3.770  1.00  0.00     0.122 C 
HETATM   16  H   UNL     1      38.668 -12.755  -4.301  1.00  0.00     0.279 HD
HETATM   17  H   UNL     1      40.024 -13.265  -5.028  1.00  0.00     0.279 HD
HETATM   18  C   UNL     1      39.621 -10.573  -4.679  1.00  0.00     0.046 C 
HETATM   19  C   UNL     1      41.784 -11.643  -4.181  1.00  0.00     0.046 C 
HETATM   20  C   UNL     1      42.569 -11.899  -0.804  1.00  0.00     0.074 C 
BRANCH   9  21
HETATM   21  O   UNL     1      41.569 -14.036  -0.370  1.00  0.00    -0.368 OA
HETATM   22  H   UNL     1      40.679 -14.437  -0.346  1.00  0.00     0.212 HD
ENDBRANCH   9  21
ENDBRANCH   2   3
ENDBRANCH   1   2
BRANCH   1  23
HETATM   23  N   UNL     1      41.473 -14.671   2.757  1.00  0.00    -0.359 N 
HETATM   24  C   UNL     1      40.276 -15.323   2.577  1.00  0.00     0.217 C 
HETATM   25  O   UNL     1      39.195 -14.792   2.812  1.00  0.00    -0.274 OA
HETATM   26  H   UNL     1      42.329 -15.209   2.720  1.00  0.00     0.162 HD
BRANCH  24  27
HETATM   27  C   UNL     1      40.388 -16.737   2.034  1.00  0.00     0.107 C 
BRANCH  27  28
HETATM   28  C   UNL     1      41.799 -17.148   1.609  1.00  0.00     0.048 C 
BRANCH  28  29
HETATM   29  C   UNL     1      42.643 -17.966   2.568  1.00  0.00    -0.057 A 
HETATM   30  C   UNL     1      42.972 -17.542   3.859  1.00  0.00     0.018 A 
HETATM   31  C   UNL     1      43.791 -18.290   4.731  1.00  0.00    -0.016 A 
HETATM   32  C   UNL     1      44.224 -19.546   4.253  1.00  0.00     0.079 A 
HETATM   33  C   UNL     1      43.895 -20.047   2.968  1.00  0.00    -0.016 A 
HETATM   34  C   UNL     1      43.116 -19.215   2.142  1.00  0.00     0.018 A 
BRANCH  31  35
HETATM   35  C   UNL     1      44.035 -17.730   6.160  1.00  0.00    -0.021 C 
HETATM   36  C   UNL     1      43.667 -16.232   6.147  1.00  0.00     0.019 C 
HETATM   37  C   UNL     1      43.234 -18.407   7.294  1.00  0.00     0.019 C 
HETATM   38  C   UNL     1      45.524 -17.865   6.588  1.00  0.00     0.019 C 
ENDBRANCH  31  35
BRANCH  32  39
HETATM   39  O   UNL     1      44.964 -20.361   5.060  1.00  0.00    -0.360 OA
HETATM   40  H   UNL     1      45.778 -19.876   5.272  1.00  0.00     0.217 HD
ENDBRANCH  32  39
BRANCH  33  41
HETATM   41  C   UNL     1      44.330 -21.459   2.492  1.00  0.00    -0.021 C 
HETATM   42  C   UNL     1      45.761 -21.410   1.911  1.00  0.00     0.019 C 
HETATM   43  C   UNL     1      44.363 -22.515   3.628  1.00  0.00     0.019 C 
HETATM   44  C   UNL     1      43.349 -22.009   1.432  1.00  0.00     0.019 C 
ENDBRANCH  33  41
ENDBRANCH  28  29
ENDBRANCH  27  28
ENDBRANCH  24  27
ENDBRANCH   1  23
TORSDOF 10
ENDMDL
MODEL 5
REMARK VINA RESULT:      -8.5      4.833      8.930
REMARK  10 active torsions:
REMARK  status: ('A' for Active; 'I' for Inactive)
REMARK    1  A    between atoms: N_15  and  C_16 
REMARK    2  A    between atoms: C_16  and  C_17 
REMARK    3  A    between atoms: C_17  and  N_18 
REMARK       I    between atoms: N_18  and  C_19 
REMARK    4  A    between atoms: C_19  and  C_20 
REMARK    5  A    between atoms: C_20  and  C_21 
REMARK    6  A    between atoms: C_21  and  C_22 
REMARK    7  A    between atoms: C_24  and  C_25 
REMARK    8  A    between atoms: C_29  and  O_30 
REMARK    9  A    between atoms: C_31  and  C_32 
REMARK   10  A    between atoms: C_38  and  O_39 
ROOT
HETATM    1  C   UNL     1      39.212 -12.673   5.053  1.00  0.00     0.142 C 
ENDROOT
BRANCH   1   2
HETATM    2  C   UNL     1      39.852 -13.708   5.990  1.00  0.00     0.151 C 
BRANCH   2   3
HETATM    3  N   UNL     1      41.117 -14.284   5.492  1.00  0.00    -0.291 N 
HETATM    4  C   UNL     1      42.293 -13.592   5.548  1.00  0.00     0.366 A 
HETATM    5  O   UNL     1      43.320 -14.403   5.192  1.00  0.00    -0.287 OA
HETATM    6  O   UNL     1      42.443 -12.424   5.854  1.00  0.00    -0.238 OA
HETATM    7  C   UNL     1      42.870 -15.766   4.886  1.00  0.00     0.126 A 
HETATM    8  C   UNL     1      43.295 -15.945   3.413  1.00  0.00     0.082 C 
HETATM    9  C   UNL     1      41.325 -15.664   5.157  1.00  0.00     0.166 A 
HETATM   10  C   UNL     1      43.746 -16.648   5.801  1.00  0.00     0.082 C 
HETATM   11  C   UNL     1      43.399 -17.388   2.915  1.00  0.00     0.122 C 
HETATM   12  N   UNL     1      44.298 -18.151   3.859  1.00  0.00    -0.059 N 
HETATM   13  C   UNL     1      44.114 -17.394   1.547  1.00  0.00     0.046 C 
HETATM   14  C   UNL     1      42.069 -18.119   2.735  1.00  0.00     0.046 C 
HETATM   15  C   UNL     1      44.083 -18.085   5.353  1.00  0.00     0.122 C 
HETATM   16  H   UNL     1      45.260 -17.822   3.678  1.00  0.00     0.279 HD
HETATM   17  H   UNL     1      44.324 -19.141   3.568  1.00  0.00     0.279 HD
HETATM   18  C   UNL     1      45.437 -18.487   5.989  1.00  0.00     0.046 C 
HETATM   19  C   UNL     1      43.076 -19.157   5.778  1.00  0.00     0.046 C 
HETATM   20  C   UNL     1      40.764 -16.598   6.221  1.00  0.00     0.074 C 
BRANCH   9  21
HETATM   21  O   UNL     1      40.614 -15.859   3.945  1.00  0.00    -0.368 OA
HETATM   22  H   UNL     1      40.975 -15.171   3.353  1.00  0.00     0.212 HD
ENDBRANCH   9  21
ENDBRANCH   2   3
ENDBRANCH   1   2
BRANCH   1  23
HETATM   23  N   UNL     1      39.469 -11.293   5.434  1.00  0.00    -0.359 N 
HETATM   24  C   UNL     1      39.382 -10.885   6.744  1.00  0.00     0.217 C 
HETATM   25  O   UNL     1      39.072 -11.650   7.652  1.00  0.00    -0.274 OA
HETATM   26  H   UNL     1      39.553 -10.589   4.712  1.00  0.00     0.162 HD
BRANCH  24  27
HETATM   27  C   UNL     1      39.731  -9.428   6.990  1.00  0.00     0.107 C 
BRANCH  27  28
HETATM   28  C   UNL     1      41.214  -9.162   7.263  1.00  0.00     0.048 C 
BRANCH  28  29
HETATM   29  C   UNL     1      41.772  -9.477   8.637  1.00  0.00    -0.057 A 
HETATM   30  C   UNL     1      42.786 -10.413   8.861  1.00  0.00     0.018 A 
HETATM   31  C   UNL     1      43.273 -10.730  10.148  1.00  0.00    -0.016 A 
HETATM   32  C   UNL     1      42.718  -9.998  11.220  1.00  0.00     0.079 A 
HETATM   33  C   UNL     1      41.712  -9.012  11.054  1.00  0.00    -0.016 A 
HETATM   34  C   UNL     1      41.247  -8.794   9.743  1.00  0.00     0.018 A 
BRANCH  31  35
HETATM   35  C   UNL     1      44.442 -11.749  10.254  1.00  0.00    -0.021 C 
HETATM   36  C   UNL     1      45.739 -10.952  10.501  1.00  0.00     0.019 C 
HETATM   37  C   UNL     1      44.313 -12.807  11.371  1.00  0.00     0.019 C 
HETATM   38  C   UNL     1      44.613 -12.570   8.945  1.00  0.00     0.019 C 
ENDBRANCH  31  35
BRANCH  32  39
HETATM   39  O   UNL     1      43.181 -10.196  12.489  1.00  0.00    -0.360 OA
HETATM   40  H   UNL     1      42.870 -11.074  12.763  1.00  0.00     0.217 HD
ENDBRANCH  32  39
BRANCH  33  41
HETATM   41  C   UNL     1      41.166  -8.176  12.241  1.00  0.00    -0.021 C 
HETATM   42  C   UNL     1      40.000  -7.277  11.771  1.00  0.00     0.019 C 
HETATM   43  C   UNL     1      40.603  -9.037  13.402  1.00  0.00     0.019 C 
HETATM   44  C   UNL     1      42.283  -7.308  12.863  1.00  0.00     0.019 C 
ENDBRANCH  33  41
ENDBRANCH  28  29
ENDBRANCH  27  28
ENDBRANCH  24  27
ENDBRANCH   1  23
TORSDOF 10
ENDMDL
MODEL 6
REMARK VINA RESULT:      -8.5      1.171      2.469
REMARK  10 active torsions:
REMARK  status: ('A' for Active; 'I' for Inactive)
REMARK    1  A    between atoms: N_15  and  C_16 
REMARK    2  A    between atoms: C_16  and  C_17 
REMARK    3  A    between atoms: C_17  and  N_18 
REMARK       I    between atoms: N_18  and  C_19 
REMARK    4  A    between atoms: C_19  and  C_20 
REMARK    5  A    between atoms: C_20  and  C_21 
REMARK    6  A    between atoms: C_21  and  C_22 
REMARK    7  A    between atoms: C_24  and  C_25 
REMARK    8  A    between atoms: C_29  and  O_30 
REMARK    9  A    between atoms: C_31  and  C_32 
REMARK   10  A    between atoms: C_38  and  O_39 
ROOT
HETATM    1  C   UNL     1      38.625 -11.635   3.354  1.00  0.00     0.142 C 
ENDROOT
BRANCH   1   2
HETATM    2  C   UNL     1      39.345 -10.640   2.431  1.00  0.00     0.151 C 
BRANCH   2   3
HETATM    3  N   UNL     1      39.278 -10.980   0.996  1.00  0.00    -0.291 N 
HETATM    4  C   UNL     1      38.516 -10.260   0.122  1.00  0.00     0.366 A 
HETATM    5  O   UNL     1      38.765 -10.666  -1.148  1.00  0.00    -0.287 OA
HETATM    6  O   UNL     1      37.714  -9.387   0.395  1.00  0.00    -0.238 OA
HETATM    7  C   UNL     1      39.784 -11.721  -1.203  1.00  0.00     0.126 A 
HETATM    8  C   UNL     1      39.024 -12.900  -1.845  1.00  0.00     0.082 C 
HETATM    9  C   UNL     1      40.163 -11.882   0.315  1.00  0.00     0.166 A 
HETATM   10  C   UNL     1      40.828 -11.160  -2.191  1.00  0.00     0.082 C 
HETATM   11  C   UNL     1      39.890 -13.996  -2.470  1.00  0.00     0.122 C 
HETATM   12  N   UNL     1      40.850 -13.347  -3.439  1.00  0.00    -0.059 N 
HETATM   13  C   UNL     1      38.990 -14.922  -3.316  1.00  0.00     0.046 C 
HETATM   14  C   UNL     1      40.646 -14.880  -1.479  1.00  0.00     0.046 C 
HETATM   15  C   UNL     1      41.670 -12.147  -3.027  1.00  0.00     0.122 C 
HETATM   16  H   UNL     1      40.290 -13.062  -4.259  1.00  0.00     0.279 HD
HETATM   17  H   UNL     1      41.480 -14.070  -3.819  1.00  0.00     0.279 HD
HETATM   18  C   UNL     1      42.076 -11.444  -4.346  1.00  0.00     0.046 C 
HETATM   19  C   UNL     1      42.973 -12.613  -2.372  1.00  0.00     0.046 C 
HETATM   20  C   UNL     1      41.621 -11.628   0.676  1.00  0.00     0.074 C 
BRANCH   9  21
HETATM   21  O   UNL     1      39.789 -13.174   0.765  1.00  0.00    -0.368 OA
HETATM   22  H   UNL     1      39.814 -13.095   1.738  1.00  0.00     0.212 HD
ENDBRANCH   9  21
ENDBRANCH   2   3
ENDBRANCH   1   2
BRANCH   1  23
HETATM   23  N   UNL     1      39.508 -12.615   3.968  1.00  0.00    -0.359 N 
HETATM   24  C   UNL     1      39.576 -12.758   5.334  1.00  0.00     0.217 C 
HETATM   25  O   UNL     1      38.917 -12.065   6.102  1.00  0.00    -0.274 OA
HETATM   26  H   UNL     1      40.199 -13.084   3.396  1.00  0.00     0.162 HD
BRANCH  24  27
HETATM   27  C   UNL     1      40.502 -13.859   5.821  1.00  0.00     0.107 C 
BRANCH  27  28
HETATM   28  C   UNL     1      40.100 -15.271   5.389  1.00  0.00     0.048 C 
BRANCH  28  29
HETATM   29  C   UNL     1      41.190 -16.273   5.063  1.00  0.00    -0.057 A 
HETATM   30  C   UNL     1      41.469 -16.714   3.765  1.00  0.00     0.018 A 
HETATM   31  C   UNL     1      42.458 -17.677   3.474  1.00  0.00    -0.016 A 
HETATM   32  C   UNL     1      43.213 -18.145   4.571  1.00  0.00     0.079 A 
HETATM   33  C   UNL     1      43.002 -17.711   5.905  1.00  0.00    -0.016 A 
HETATM   34  C   UNL     1      41.961 -16.786   6.115  1.00  0.00     0.018 A 
BRANCH  31  35
HETATM   35  C   UNL     1      42.706 -18.038   1.982  1.00  0.00    -0.021 C 
HETATM   36  C   UNL     1      41.463 -17.601   1.181  1.00  0.00     0.019 C 
HETATM   37  C   UNL     1      43.946 -17.388   1.330  1.00  0.00     0.019 C 
HETATM   38  C   UNL     1      42.906 -19.567   1.783  1.00  0.00     0.019 C 
ENDBRANCH  31  35
BRANCH  32  39
HETATM   39  O   UNL     1      44.234 -19.028   4.366  1.00  0.00    -0.360 OA
HETATM   40  H   UNL     1      43.895 -19.904   4.613  1.00  0.00     0.217 HD
ENDBRANCH  32  39
BRANCH  33  41
HETATM   41  C   UNL     1      43.889 -18.192   7.084  1.00  0.00    -0.021 C 
HETATM   42  C   UNL     1      45.376 -17.884   6.794  1.00  0.00     0.019 C 
HETATM   43  C   UNL     1      43.561 -17.497   8.432  1.00  0.00     0.019 C 
HETATM   44  C   UNL     1      43.703 -19.705   7.333  1.00  0.00     0.019 C 
ENDBRANCH  33  41
ENDBRANCH  28  29
ENDBRANCH  27  28
ENDBRANCH  24  27
ENDBRANCH   1  23
TORSDOF 10
ENDMDL
MODEL 7
REMARK VINA RESULT:      -8.1      2.337      6.379
REMARK  10 active torsions:
REMARK  status: ('A' for Active; 'I' for Inactive)
REMARK    1  A    between atoms: N_15  and  C_16 
REMARK    2  A    between atoms: C_16  and  C_17 
REMARK    3  A    between atoms: C_17  and  N_18 
REMARK       I    between atoms: N_18  and  C_19 
REMARK    4  A    between atoms: C_19  and  C_20 
REMARK    5  A    between atoms: C_20  and  C_21 
REMARK    6  A    between atoms: C_21  and  C_22 
REMARK    7  A    between atoms: C_24  and  C_25 
REMARK    8  A    between atoms: C_29  and  O_30 
REMARK    9  A    between atoms: C_31  and  C_32 
REMARK   10  A    between atoms: C_38  and  O_39 
ROOT
HETATM    1  C   UNL     1      39.431 -14.256  -0.207  1.00  0.00     0.142 C 
ENDROOT
BRANCH   1   2
HETATM    2  C   UNL     1      39.070 -13.042   0.661  1.00  0.00     0.151 C 
BRANCH   2   3
HETATM    3  N   UNL     1      40.091 -12.682   1.664  1.00  0.00    -0.291 N 
HETATM    4  C   UNL     1      41.175 -11.916   1.344  1.00  0.00     0.366 A 
HETATM    5  O   UNL     1      41.857 -11.590   2.470  1.00  0.00    -0.287 OA
HETATM    6  O   UNL     1      41.520 -11.563   0.232  1.00  0.00    -0.238 OA
HETATM    7  C   UNL     1      41.221 -12.128   3.678  1.00  0.00     0.126 A 
HETATM    8  C   UNL     1      42.314 -13.046   4.263  1.00  0.00     0.082 C 
HETATM    9  C   UNL     1      39.954 -12.845   3.084  1.00  0.00     0.166 A 
HETATM   10  C   UNL     1      41.039 -10.883   4.572  1.00  0.00     0.082 C 
HETATM   11  C   UNL     1      42.171 -13.402   5.743  1.00  0.00     0.122 C 
HETATM   12  N   UNL     1      42.032 -12.118   6.528  1.00  0.00    -0.059 N 
HETATM   13  C   UNL     1      43.481 -14.059   6.229  1.00  0.00     0.046 C 
HETATM   14  C   UNL     1      41.030 -14.361   6.082  1.00  0.00     0.046 C 
HETATM   15  C   UNL     1      41.043 -11.058   6.105  1.00  0.00     0.122 C 
HETATM   16  H   UNL     1      42.965 -11.676   6.533  1.00  0.00     0.279 HD
HETATM   17  H   UNL     1      41.871 -12.350   7.521  1.00  0.00     0.279 HD
HETATM   18  C   UNL     1      41.544  -9.739   6.744  1.00  0.00     0.046 C 
HETATM   19  C   UNL     1      39.677 -11.345   6.734  1.00  0.00     0.046 C 
HETATM   20  C   UNL     1      38.603 -12.351   3.584  1.00  0.00     0.074 C 
BRANCH   9  21
HETATM   21  O   UNL     1      40.051 -14.243   3.305  1.00  0.00    -0.368 OA
HETATM   22  H   UNL     1      39.327 -14.612   2.763  1.00  0.00     0.212 HD
ENDBRANCH   9  21
ENDBRANCH   2   3
ENDBRANCH   1   2
BRANCH   1  23
HETATM   23  N   UNL     1      40.332 -15.198   0.440  1.00  0.00    -0.359 N 
HETATM   24  C   UNL     1      41.174 -16.000  -0.294  1.00  0.00     0.217 C 
HETATM   25  O   UNL     1      41.202 -15.977  -1.521  1.00  0.00    -0.274 OA
HETATM   26  H   UNL     1      40.224 -15.384   1.428  1.00  0.00     0.162 HD
BRANCH  24  27
HETATM   27  C   UNL     1      42.091 -16.890   0.525  1.00  0.00     0.107 C 
BRANCH  27  28
HETATM   28  C   UNL     1      41.666 -17.078   1.983  1.00  0.00     0.048 C 
BRANCH  28  29
HETATM   29  C   UNL     1      42.495 -17.980   2.876  1.00  0.00    -0.057 A 
HETATM   30  C   UNL     1      42.713 -17.731   4.235  1.00  0.00     0.018 A 
HETATM   31  C   UNL     1      43.519 -18.554   5.050  1.00  0.00    -0.016 A 
HETATM   32  C   UNL     1      44.062 -19.702   4.432  1.00  0.00     0.079 A 
HETATM   33  C   UNL     1      43.849 -20.027   3.068  1.00  0.00    -0.016 A 
HETATM   34  C   UNL     1      43.074 -19.126   2.313  1.00  0.00     0.018 A 
BRANCH  31  35
HETATM   35  C   UNL     1      43.635 -18.196   6.558  1.00  0.00    -0.021 C 
HETATM   36  C   UNL     1      42.383 -17.381   6.944  1.00  0.00     0.019 C 
HETATM   37  C   UNL     1      43.740 -19.394   7.528  1.00  0.00     0.019 C 
HETATM   38  C   UNL     1      44.893 -17.332   6.852  1.00  0.00     0.019 C 
ENDBRANCH  31  35
BRANCH  32  39
HETATM   39  O   UNL     1      44.798 -20.585   5.167  1.00  0.00    -0.360 OA
HETATM   40  H   UNL     1      44.437 -21.467   4.981  1.00  0.00     0.217 HD
ENDBRANCH  32  39
BRANCH  33  41
HETATM   41  C   UNL     1      44.402 -21.329   2.430  1.00  0.00    -0.021 C 
HETATM   42  C   UNL     1      44.431 -22.467   3.475  1.00  0.00     0.019 C 
HETATM   43  C   UNL     1      43.545 -21.855   1.247  1.00  0.00     0.019 C 
HETATM   44  C   UNL     1      45.819 -21.103   1.857  1.00  0.00     0.019 C 
ENDBRANCH  33  41
ENDBRANCH  28  29
ENDBRANCH  27  28
ENDBRANCH  24  27
ENDBRANCH   1  23
TORSDOF 10
ENDMDL
MODEL 8
REMARK VINA RESULT:      -8.1      2.245      3.590
REMARK  10 active torsions:
REMARK  status: ('A' for Active; 'I' for Inactive)
REMARK    1  A    between atoms: N_15  and  C_16 
REMARK    2  A    between atoms: C_16  and  C_17 
REMARK    3  A    between atoms: C_17  and  N_18 
REMARK       I    between atoms: N_18  and  C_19 
REMARK    4  A    between atoms: C_19  and  C_20 
REMARK    5  A    between atoms: C_20  and  C_21 
REMARK    6  A    between atoms: C_21  and  C_22 
REMARK    7  A    between atoms: C_24  and  C_25 
REMARK    8  A    between atoms: C_29  and  O_30 
REMARK    9  A    between atoms: C_31  and  C_32 
REMARK   10  A    between atoms: C_38  and  O_39 
ROOT
HETATM    1  C   UNL     1      38.239 -14.001   0.973  1.00  0.00     0.142 C 
ENDROOT
BRANCH   1   2
HETATM    2  C   UNL     1      38.392 -14.038  -0.554  1.00  0.00     0.151 C 
BRANCH   2   3
HETATM    3  N   UNL     1      39.655 -13.461  -1.056  1.00  0.00    -0.291 N 
HETATM    4  C   UNL     1      40.741 -14.241  -1.334  1.00  0.00     0.366 A 
HETATM    5  O   UNL     1      41.699 -13.495  -1.939  1.00  0.00    -0.287 OA
HETATM    6  O   UNL     1      40.876 -15.424  -1.087  1.00  0.00    -0.238 OA
HETATM    7  C   UNL     1      41.278 -12.103  -2.134  1.00  0.00     0.126 A 
HETATM    8  C   UNL     1      42.324 -11.310  -1.325  1.00  0.00     0.082 C 
HETATM    9  C   UNL     1      39.817 -12.124  -1.552  1.00  0.00     0.166 A 
HETATM   10  C   UNL     1      41.490 -11.873  -3.646  1.00  0.00     0.082 C 
HETATM   11  C   UNL     1      42.466  -9.829  -1.679  1.00  0.00     0.122 C 
HETATM   12  N   UNL     1      42.701  -9.718  -3.167  1.00  0.00    -0.059 N 
HETATM   13  C   UNL     1      43.738  -9.272  -1.004  1.00  0.00     0.046 C 
HETATM   14  C   UNL     1      41.300  -8.937  -1.253  1.00  0.00     0.046 C 
HETATM   15  C   UNL     1      41.811 -10.449  -4.146  1.00  0.00     0.122 C 
HETATM   16  H   UNL     1      43.666 -10.043  -3.337  1.00  0.00     0.279 HD
HETATM   17  H   UNL     1      42.734  -8.719  -3.426  1.00  0.00     0.279 HD
HETATM   18  C   UNL     1      42.634 -10.567  -5.452  1.00  0.00     0.046 C 
HETATM   19  C   UNL     1      40.594  -9.584  -4.484  1.00  0.00     0.046 C 
HETATM   20  C   UNL     1      38.702 -11.736  -2.514  1.00  0.00     0.074 C 
BRANCH   9  21
HETATM   21  O   UNL     1      39.751 -11.295  -0.403  1.00  0.00    -0.368 OA
HETATM   22  H   UNL     1      40.112 -10.442  -0.712  1.00  0.00     0.212 HD
ENDBRANCH   9  21
ENDBRANCH   2   3
ENDBRANCH   1   2
BRANCH   1  23
HETATM   23  N   UNL     1      38.816 -15.151   1.652  1.00  0.00    -0.359 N 
HETATM   24  C   UNL     1      40.026 -15.065   2.301  1.00  0.00     0.217 C 
HETATM   25  O   UNL     1      40.685 -14.030   2.329  1.00  0.00    -0.274 OA
HETATM   26  H   UNL     1      38.406 -16.065   1.510  1.00  0.00     0.162 HD
BRANCH  24  27
HETATM   27  C   UNL     1      40.470 -16.333   3.007  1.00  0.00     0.107 C 
BRANCH  27  28
HETATM   28  C   UNL     1      41.492 -17.172   2.235  1.00  0.00     0.048 C 
BRANCH  28  29
HETATM   29  C   UNL     1      42.447 -18.057   3.012  1.00  0.00    -0.057 A 
HETATM   30  C   UNL     1      42.969 -19.253   2.512  1.00  0.00     0.018 A 
HETATM   31  C   UNL     1      43.827 -20.092   3.256  1.00  0.00    -0.016 A 
HETATM   32  C   UNL     1      44.191 -19.628   4.538  1.00  0.00     0.079 A 
HETATM   33  C   UNL     1      43.723 -18.406   5.088  1.00  0.00    -0.016 A 
HETATM   34  C   UNL     1      42.831 -17.655   4.299  1.00  0.00     0.018 A 
BRANCH  31  35
HETATM   35  C   UNL     1      44.381 -21.367   2.562  1.00  0.00    -0.021 C 
HETATM   36  C   UNL     1      45.752 -21.011   1.951  1.00  0.00     0.019 C 
HETATM   37  C   UNL     1      44.572 -22.600   3.473  1.00  0.00     0.019 C 
HETATM   38  C   UNL     1      43.446 -21.856   1.420  1.00  0.00     0.019 C 
ENDBRANCH  31  35
BRANCH  32  39
HETATM   39  O   UNL     1      45.069 -20.346   5.297  1.00  0.00    -0.360 OA
HETATM   40  H   UNL     1      44.801 -20.223   6.222  1.00  0.00     0.217 HD
ENDBRANCH  32  39
BRANCH  33  41
HETATM   41  C   UNL     1      44.190 -17.887   6.474  1.00  0.00    -0.021 C 
HETATM   42  C   UNL     1      45.731 -17.953   6.578  1.00  0.00     0.019 C 
HETATM   43  C   UNL     1      43.804 -16.409   6.746  1.00  0.00     0.019 C 
HETATM   44  C   UNL     1      43.549 -18.708   7.615  1.00  0.00     0.019 C 
ENDBRANCH  33  41
ENDBRANCH  28  29
ENDBRANCH  27  28
ENDBRANCH  24  27
ENDBRANCH   1  23
TORSDOF 10
ENDMDL
MODEL 9
REMARK VINA RESULT:      -8.0      1.607      2.252
REMARK  10 active torsions:
REMARK  status: ('A' for Active; 'I' for Inactive)
REMARK    1  A    between atoms: N_15  and  C_16 
REMARK    2  A    between atoms: C_16  and  C_17 
REMARK    3  A    between atoms: C_17  and  N_18 
REMARK       I    between atoms: N_18  and  C_19 
REMARK    4  A    between atoms: C_19  and  C_20 
REMARK    5  A    between atoms: C_20  and  C_21 
REMARK    6  A    between atoms: C_21  and  C_22 
REMARK    7  A    between atoms: C_24  and  C_25 
REMARK    8  A    between atoms: C_29  and  O_30 
REMARK    9  A    between atoms: C_31  and  C_32 
REMARK   10  A    between atoms: C_38  and  O_39 
ROOT
HETATM    1  C   UNL     1      41.765 -12.099   2.630  1.00  0.00     0.142 C 
ENDROOT
BRANCH   1   2
HETATM    2  C   UNL     1      41.000 -11.049   1.810  1.00  0.00     0.151 C 
BRANCH   2   3
HETATM    3  N   UNL     1      40.905 -11.350   0.369  1.00  0.00    -0.291 N 
HETATM    4  C   UNL     1      42.016 -11.473  -0.415  1.00  0.00     0.366 A 
HETATM    5  O   UNL     1      41.663 -11.919  -1.646  1.00  0.00    -0.287 OA
HETATM    6  O   UNL     1      43.165 -11.222  -0.103  1.00  0.00    -0.238 OA
HETATM    7  C   UNL     1      40.220 -12.159  -1.757  1.00  0.00     0.126 A 
HETATM    8  C   UNL     1      39.795 -11.193  -2.882  1.00  0.00     0.082 C 
HETATM    9  C   UNL     1      39.722 -11.801  -0.308  1.00  0.00     0.166 A 
HETATM   10  C   UNL     1      40.135 -13.619  -2.250  1.00  0.00     0.082 C 
HETATM   11  C   UNL     1      38.464 -11.505  -3.568  1.00  0.00     0.122 C 
HETATM   12  N   UNL     1      38.499 -12.940  -4.039  1.00  0.00    -0.059 N 
HETATM   13  C   UNL     1      38.344 -10.642  -4.843  1.00  0.00     0.046 C 
HETATM   14  C   UNL     1      37.215 -11.247  -2.727  1.00  0.00     0.046 C 
HETATM   15  C   UNL     1      38.925 -14.049  -3.105  1.00  0.00     0.122 C 
HETATM   16  H   UNL     1      39.137 -12.968  -4.850  1.00  0.00     0.279 HD
HETATM   17  H   UNL     1      37.581 -13.180  -4.447  1.00  0.00     0.279 HD
HETATM   18  C   UNL     1      39.366 -15.219  -4.018  1.00  0.00     0.046 C 
HETATM   19  C   UNL     1      37.713 -14.554  -2.317  1.00  0.00     0.046 C 
HETATM   20  C   UNL     1      39.019 -12.914   0.457  1.00  0.00     0.074 C 
BRANCH   9  21
HETATM   21  O   UNL     1      38.875 -10.665  -0.363  1.00  0.00    -0.368 OA
HETATM   22  H   UNL     1      37.984 -11.047  -0.485  1.00  0.00     0.212 HD
ENDBRANCH   9  21
ENDBRANCH   2   3
ENDBRANCH   1   2
BRANCH   1  23
HETATM   23  N   UNL     1      40.945 -12.794   3.611  1.00  0.00    -0.359 N 
HETATM   24  C   UNL     1      41.464 -13.198   4.819  1.00  0.00     0.217 C 
HETATM   25  O   UNL     1      42.637 -13.010   5.127  1.00  0.00    -0.274 OA
HETATM   26  H   UNL     1      40.030 -13.130   3.340  1.00  0.00     0.162 HD
BRANCH  24  27
HETATM   27  C   UNL     1      40.472 -13.863   5.756  1.00  0.00     0.107 C 
BRANCH  27  28
HETATM   28  C   UNL     1      40.075 -15.288   5.363  1.00  0.00     0.048 C 
BRANCH  28  29
HETATM   29  C   UNL     1      41.169 -16.289   5.046  1.00  0.00    -0.057 A 
HETATM   30  C   UNL     1      41.451 -16.740   3.753  1.00  0.00     0.018 A 
HETATM   31  C   UNL     1      42.444 -17.702   3.472  1.00  0.00    -0.016 A 
HETATM   32  C   UNL     1      43.199 -18.158   4.574  1.00  0.00     0.079 A 
HETATM   33  C   UNL     1      42.984 -17.714   5.904  1.00  0.00    -0.016 A 
HETATM   34  C   UNL     1      41.941 -16.790   6.104  1.00  0.00     0.018 A 
BRANCH  31  35
HETATM   35  C   UNL     1      42.695 -18.075   1.984  1.00  0.00    -0.021 C 
HETATM   36  C   UNL     1      41.465 -17.620   1.172  1.00  0.00     0.019 C 
HETATM   37  C   UNL     1      43.951 -17.450   1.336  1.00  0.00     0.019 C 
HETATM   38  C   UNL     1      42.869 -19.608   1.794  1.00  0.00     0.019 C 
ENDBRANCH  31  35
BRANCH  32  39
HETATM   39  O   UNL     1      44.223 -19.039   4.378  1.00  0.00    -0.360 OA
HETATM   40  H   UNL     1      44.484 -19.359   5.257  1.00  0.00     0.217 HD
ENDBRANCH  32  39
BRANCH  33  41
HETATM   41  C   UNL     1      43.872 -18.181   7.088  1.00  0.00    -0.021 C 
HETATM   42  C   UNL     1      43.692 -19.697   7.325  1.00  0.00     0.019 C 
HETATM   43  C   UNL     1      45.390 -17.960   6.853  1.00  0.00     0.019 C 
HETATM   44  C   UNL     1      43.527 -17.401   8.376  1.00  0.00     0.019 C 
ENDBRANCH  33  41
ENDBRANCH  28  29
ENDBRANCH  27  28
ENDBRANCH  24  27
ENDBRANCH   1  23
TORSDOF 10
ENDMDL
MODEL 10
REMARK VINA RESULT:      -8.0      2.330      8.445
REMARK  10 active torsions:
REMARK  status: ('A' for Active; 'I' for Inactive)
REMARK    1  A    between atoms: N_15  and  C_16 
REMARK    2  A    between atoms: C_16  and  C_17 
REMARK    3  A    between atoms: C_17  and  N_18 
REMARK       I    between atoms: N_18  and  C_19 
REMARK    4  A    between atoms: C_19  and  C_20 
REMARK    5  A    between atoms: C_20  and  C_21 
REMARK    6  A    between atoms: C_21  and  C_22 
REMARK    7  A    between atoms: C_24  and  C_25 
REMARK    8  A    between atoms: C_29  and  O_30 
REMARK    9  A    between atoms: C_31  and  C_32 
REMARK   10  A    between atoms: C_38  and  O_39 
ROOT
HETATM    1  C   UNL     1      39.295 -12.220   5.511  1.00  0.00     0.142 C 
ENDROOT
BRANCH   1   2
HETATM    2  C   UNL     1      39.595 -13.657   5.961  1.00  0.00     0.151 C 
BRANCH   2   3
HETATM    3  N   UNL     1      40.886 -14.190   5.485  1.00  0.00    -0.291 N 
HETATM    4  C   UNL     1      42.045 -13.476   5.599  1.00  0.00     0.366 A 
HETATM    5  O   UNL     1      43.100 -14.253   5.250  1.00  0.00    -0.287 OA
HETATM    6  O   UNL     1      42.160 -12.316   5.947  1.00  0.00    -0.238 OA
HETATM    7  C   UNL     1      42.690 -15.614   4.886  1.00  0.00     0.126 A 
HETATM    8  C   UNL     1      43.163 -15.737   3.423  1.00  0.00     0.082 C 
HETATM    9  C   UNL     1      41.135 -15.554   5.112  1.00  0.00     0.166 A 
HETATM   10  C   UNL     1      43.556 -16.507   5.801  1.00  0.00     0.082 C 
HETATM   11  C   UNL     1      43.314 -17.160   2.883  1.00  0.00     0.122 C 
HETATM   12  N   UNL     1      44.201 -17.934   3.830  1.00  0.00    -0.059 N 
HETATM   13  C   UNL     1      44.070 -17.107   1.538  1.00  0.00     0.046 C 
HETATM   14  C   UNL     1      42.006 -17.912   2.638  1.00  0.00     0.046 C 
HETATM   15  C   UNL     1      43.939 -17.921   5.318  1.00  0.00     0.122 C 
HETATM   16  H   UNL     1      45.160 -17.580   3.689  1.00  0.00     0.279 HD
HETATM   17  H   UNL     1      44.257 -18.913   3.508  1.00  0.00     0.279 HD
HETATM   18  C   UNL     1      45.281 -18.315   5.982  1.00  0.00     0.046 C 
HETATM   19  C   UNL     1      42.943 -19.027   5.677  1.00  0.00     0.046 C 
HETATM   20  C   UNL     1      40.563 -16.533   6.129  1.00  0.00     0.074 C 
BRANCH   9  21
HETATM   21  O   UNL     1      40.466 -15.724   3.873  1.00  0.00    -0.368 OA
HETATM   22  H   UNL     1      41.156 -15.530   3.210  1.00  0.00     0.212 HD
ENDBRANCH   9  21
ENDBRANCH   2   3
ENDBRANCH   1   2
BRANCH   1  23
HETATM   23  N   UNL     1      39.103 -12.078   4.076  1.00  0.00    -0.359 N 
HETATM   24  C   UNL     1      38.364 -11.043   3.553  1.00  0.00     0.217 C 
HETATM   25  O   UNL     1      37.819 -10.201   4.259  1.00  0.00    -0.274 OA
HETATM   26  H   UNL     1      39.376 -12.836   3.464  1.00  0.00     0.162 HD
BRANCH  24  27
HETATM   27  C   UNL     1      38.299 -11.000   2.036  1.00  0.00     0.107 C 
BRANCH  27  28
HETATM   28  C   UNL     1      37.650 -12.226   1.389  1.00  0.00     0.048 C 
BRANCH  28  29
HETATM   29  C   UNL     1      38.027 -12.585  -0.035  1.00  0.00    -0.057 A 
HETATM   30  C   UNL     1      37.283 -12.193  -1.152  1.00  0.00     0.018 A 
HETATM   31  C   UNL     1      37.618 -12.565  -2.472  1.00  0.00    -0.016 A 
HETATM   32  C   UNL     1      38.801 -13.320  -2.624  1.00  0.00     0.079 A 
HETATM   33  C   UNL     1      39.617 -13.720  -1.534  1.00  0.00    -0.016 A 
HETATM   34  C   UNL     1      39.183 -13.349  -0.247  1.00  0.00     0.018 A 
BRANCH  31  35
HETATM   35  C   UNL     1      36.739 -12.015  -3.629  1.00  0.00    -0.021 C 
HETATM   36  C   UNL     1      35.568 -11.233  -2.999  1.00  0.00     0.019 C 
HETATM   37  C   UNL     1      37.452 -11.079  -4.630  1.00  0.00     0.019 C 
HETATM   38  C   UNL     1      36.151 -13.159  -4.502  1.00  0.00     0.019 C 
ENDBRANCH  31  35
BRANCH  32  39
HETATM   39  O   UNL     1      39.232 -13.664  -3.873  1.00  0.00    -0.360 OA
HETATM   40  H   UNL     1      39.152 -12.867  -4.421  1.00  0.00     0.217 HD
ENDBRANCH  32  39
BRANCH  33  41
HETATM   41  C   UNL     1      40.947 -14.494  -1.733  1.00  0.00    -0.021 C 
HETATM   42  C   UNL     1      41.444 -15.059  -0.384  1.00  0.00     0.019 C 
HETATM   43  C   UNL     1      40.821 -15.710  -2.689  1.00  0.00     0.019 C 
HETATM   44  C   UNL     1      42.028 -13.581  -2.353  1.00  0.00     0.019 C 
ENDBRANCH  33  41
ENDBRANCH  28  29
ENDBRANCH  27  28
ENDBRANCH  24  27
ENDBRANCH   1  23
TORSDOF 10
ENDMDL
