MODEL 1
REMARK VINA RESULT:      -9.8      0.000      0.000
REMARK  4 active torsions:
REMARK  status: ('A' for Active; 'I' for Inactive)
REMARK    1  A    between atoms: C_4  and  N_5 
REMARK       I    between atoms: N_5  and  C_6 
REMARK    2  A    between atoms: C_6  and  C_7 
REMARK    3  A    between atoms: C_7  and  N_8 
REMARK    4  A    between atoms: C_12  and  C_13 
ROOT
HETATM    1  N   UNL     1      43.482 -17.298   2.425  1.00  0.00    -0.304 N 
HETATM    2  C   UNL     1      43.273 -16.211   3.261  1.00  0.00     0.261 C 
HETATM    3  O   UNL     1      43.102 -15.063   2.891  1.00  0.00    -0.267 OA
HETATM    4  C   UNL     1      43.417 -16.758   4.666  1.00  0.00     0.068 C 
HETATM    5  C   UNL     1      43.008 -16.121   5.782  1.00  0.00     0.093 C 
HETATM    6  C   UNL     1      43.077 -16.790   7.146  1.00  0.00     0.025 C 
HETATM    7  N   UNL     1      43.134 -17.345   8.276  1.00  0.00    -0.096 N 
HETATM    8  C   UNL     1      43.958 -18.128   4.516  1.00  0.00     0.008 A 
HETATM    9  C   UNL     1      43.945 -18.410   3.140  1.00  0.00     0.049 A 
HETATM   10  C   UNL     1      44.426 -19.081   5.408  1.00  0.00     0.015 A 
HETATM   11  C   UNL     1      44.862 -20.314   4.908  1.00  0.00     0.001 A 
HETATM   12  C   UNL     1      44.834 -20.585   3.532  1.00  0.00     0.002 A 
HETATM   13  C   UNL     1      44.373 -19.625   2.632  1.00  0.00     0.030 A 
ENDROOT
BRANCH   5  14
HETATM   14  C   UNL     1      42.342 -14.863   5.753  1.00  0.00     0.149 A 
HETATM   15  N   UNL     1      42.798 -13.644   5.963  1.00  0.00    -0.228 NA
HETATM   16  C   UNL     1      41.748 -12.794   5.716  1.00  0.00     0.086 A 
HETATM   17  C   UNL     1      40.626 -13.504   5.309  1.00  0.00     0.062 A 
HETATM   18  C   UNL     1      41.680 -11.397   5.802  1.00  0.00     0.034 A 
HETATM   19  N   UNL     1      41.024 -14.815   5.352  1.00  0.00    -0.338 N 
HETATM   20  C   UNL     1      39.419 -12.898   4.953  1.00  0.00     0.032 A 
HETATM   21  H   UNL     1      40.441 -15.603   5.107  1.00  0.00     0.167 HD
HETATM   22  C   UNL     1      39.373 -11.501   5.035  1.00  0.00     0.002 A 
HETATM   23  C   UNL     1      40.481 -10.761   5.458  1.00  0.00     0.002 A 
ENDBRANCH   5  14
BRANCH   1  24
HETATM   24  C   UNL     1      43.129 -17.299   1.024  1.00  0.00     0.235 C 
BRANCH  24  25
HETATM   25  C   UNL     1      41.673 -16.961   0.720  1.00  0.00     0.240 C 
HETATM   26  N   UNL     1      41.494 -15.659   0.289  1.00  0.00    -0.326 N 
HETATM   27  H   UNL     1      42.326 -15.168  -0.044  1.00  0.00     0.169 HD
HETATM   28  O   UNL     1      40.786 -17.785   0.939  1.00  0.00    -0.271 OA
BRANCH  26  29
HETATM   29  C   UNL     1      40.291 -14.925   0.299  1.00  0.00     0.035 A 
HETATM   30  C   UNL     1      39.741 -14.330  -0.842  1.00  0.00     0.036 A 
HETATM   31  C   UNL     1      38.492 -13.689  -0.794  1.00  0.00    -0.060 A 
HETATM   32  C   UNL     1      37.872 -13.140  -2.046  1.00  0.00     0.048 C 
HETATM   33  C   UNL     1      37.796 -13.641   0.418  1.00  0.00     0.007 A 
HETATM   34  C   UNL     1      38.341 -14.220   1.563  1.00  0.00     0.003 A 
HETATM   35  C   UNL     1      39.578 -14.867   1.501  1.00  0.00     0.029 A 
ENDBRANCH  26  29
ENDBRANCH  24  25
ENDBRANCH   1  24
TORSDOF 4
ENDMDL
MODEL 2
REMARK VINA RESULT:      -9.4      2.386      6.477
REMARK  4 active torsions:
REMARK  status: ('A' for Active; 'I' for Inactive)
REMARK    1  A    between atoms: C_4  and  N_5 
REMARK       I    between atoms: N_5  and  C_6 
REMARK    2  A    between atoms: C_6  and  C_7 
REMARK    3  A    between atoms: C_7  and  N_8 
REMARK    4  A    between atoms: C_12  and  C_13 
ROOT
HETATM    1  N   UNL     1      42.034 -15.292   3.827  1.00  0.00    -0.304 N 
HETATM    2  C   UNL     1      41.292 -14.505   4.696  1.00  0.00     0.261 C 
HETATM    3  O   UNL     1      41.323 -14.582   5.912  1.00  0.00    -0.267 OA
HETATM    4  C   UNL     1      40.405 -13.659   3.807  1.00  0.00     0.068 C 
HETATM    5  C   UNL     1      39.742 -12.557   4.211  1.00  0.00     0.093 C 
HETATM    6  C   UNL     1      38.970 -11.692   3.228  1.00  0.00     0.025 C 
HETATM    7  N   UNL     1      38.330 -10.975   2.413  1.00  0.00    -0.096 N 
HETATM    8  C   UNL     1      40.542 -14.222   2.444  1.00  0.00     0.008 A 
HETATM    9  C   UNL     1      41.562 -15.184   2.513  1.00  0.00     0.049 A 
HETATM   10  C   UNL     1      39.901 -13.985   1.237  1.00  0.00     0.015 A 
HETATM   11  C   UNL     1      40.304 -14.709   0.108  1.00  0.00     0.001 A 
HETATM   12  C   UNL     1      41.331 -15.660   0.190  1.00  0.00     0.002 A 
HETATM   13  C   UNL     1      41.971 -15.906   1.404  1.00  0.00     0.030 A 
ENDROOT
BRANCH   5  14
HETATM   14  C   UNL     1      39.845 -12.035   5.533  1.00  0.00     0.149 A 
HETATM   15  N   UNL     1      39.012 -12.106   6.552  1.00  0.00    -0.228 NA
HETATM   16  C   UNL     1      39.652 -11.511   7.611  1.00  0.00     0.086 A 
HETATM   17  C   UNL     1      40.925 -11.095   7.246  1.00  0.00     0.062 A 
HETATM   18  C   UNL     1      39.214 -11.303   8.926  1.00  0.00     0.034 A 
HETATM   19  N   UNL     1      41.020 -11.426   5.920  1.00  0.00    -0.338 N 
HETATM   20  C   UNL     1      41.820 -10.489   8.131  1.00  0.00     0.032 A 
HETATM   21  H   UNL     1      41.832 -11.264   5.341  1.00  0.00     0.167 HD
HETATM   22  C   UNL     1      41.370 -10.298   9.443  1.00  0.00     0.002 A 
HETATM   23  C   UNL     1      40.087 -10.692   9.836  1.00  0.00     0.002 A 
ENDBRANCH   5  14
BRANCH   1  24
HETATM   24  C   UNL     1      43.220 -16.014   4.228  1.00  0.00     0.235 C 
BRANCH  24  25
HETATM   25  C   UNL     1      43.021 -17.506   4.474  1.00  0.00     0.240 C 
HETATM   26  N   UNL     1      44.186 -18.241   4.334  1.00  0.00    -0.326 N 
HETATM   27  H   UNL     1      45.063 -17.719   4.368  1.00  0.00     0.169 HD
HETATM   28  O   UNL     1      41.896 -17.956   4.686  1.00  0.00    -0.271 OA
BRANCH  26  29
HETATM   29  C   UNL     1      44.285 -19.629   4.111  1.00  0.00     0.035 A 
HETATM   30  C   UNL     1      44.119 -20.222   2.855  1.00  0.00     0.036 A 
HETATM   31  C   UNL     1      44.319 -21.600   2.673  1.00  0.00    -0.060 A 
HETATM   32  C   UNL     1      44.231 -22.204   1.302  1.00  0.00     0.048 C 
HETATM   33  C   UNL     1      44.685 -22.387   3.769  1.00  0.00     0.007 A 
HETATM   34  C   UNL     1      44.841 -21.807   5.027  1.00  0.00     0.003 A 
HETATM   35  C   UNL     1      44.652 -20.434   5.195  1.00  0.00     0.029 A 
ENDBRANCH  26  29
ENDBRANCH  24  25
ENDBRANCH   1  24
TORSDOF 4
ENDMDL
MODEL 3
REMARK VINA RESULT:      -8.9      1.996      5.831
REMARK  4 active torsions:
REMARK  status: ('A' for Active; 'I' for Inactive)
REMARK    1  A    between atoms: C_4  and  N_5 
REMARK       I    between atoms: N_5  and  C_6 
REMARK    2  A    between atoms: C_6  and  C_7 
REMARK    3  A    between atoms: C_7  and  N_8 
REMARK    4  A    between atoms: C_12  and  C_13 
ROOT
HETATM    1  N   UNL     1      40.617 -15.503   3.366  1.00  0.00    -0.304 N 
HETATM    2  C   UNL     1      41.242 -16.418   4.201  1.00  0.00     0.261 C 
HETATM    3  O   UNL     1      41.062 -17.622   4.182  1.00  0.00    -0.267 OA
HETATM    4  C   UNL     1      42.064 -15.583   5.160  1.00  0.00     0.068 C 
HETATM    5  C   UNL     1      43.050 -16.063   5.944  1.00  0.00     0.093 C 
HETATM    6  C   UNL     1      43.912 -15.139   6.790  1.00  0.00     0.025 C 
HETATM    7  N   UNL     1      44.626 -14.373   7.491  1.00  0.00    -0.096 N 
HETATM    8  C   UNL     1      41.642 -14.180   4.943  1.00  0.00     0.008 A 
HETATM    9  C   UNL     1      40.791 -14.191   3.826  1.00  0.00     0.049 A 
HETATM   10  C   UNL     1      41.914 -12.983   5.587  1.00  0.00     0.015 A 
HETATM   11  C   UNL     1      41.339 -11.805   5.091  1.00  0.00     0.001 A 
HETATM   12  C   UNL     1      40.500 -11.831   3.969  1.00  0.00     0.002 A 
HETATM   13  C   UNL     1      40.216 -13.035   3.325  1.00  0.00     0.030 A 
ENDROOT
BRANCH   5  14
HETATM   14  C   UNL     1      43.461 -17.427   5.919  1.00  0.00     0.149 A 
HETATM   15  N   UNL     1      43.244 -18.406   6.774  1.00  0.00    -0.228 NA
HETATM   16  C   UNL     1      43.789 -19.534   6.211  1.00  0.00     0.086 A 
HETATM   17  C   UNL     1      44.324 -19.251   4.962  1.00  0.00     0.062 A 
HETATM   18  C   UNL     1      43.850 -20.845   6.701  1.00  0.00     0.034 A 
HETATM   19  N   UNL     1      44.115 -17.906   4.803  1.00  0.00    -0.338 N 
HETATM   20  C   UNL     1      44.912 -20.215   4.140  1.00  0.00     0.032 A 
HETATM   21  H   UNL     1      44.384 -17.372   3.989  1.00  0.00     0.167 HD
HETATM   22  C   UNL     1      44.956 -21.521   4.641  1.00  0.00     0.002 A 
HETATM   23  C   UNL     1      44.440 -21.834   5.902  1.00  0.00     0.002 A 
ENDBRANCH   5  14
BRANCH   1  24
HETATM   24  C   UNL     1      39.993 -15.870   2.116  1.00  0.00     0.235 C 
BRANCH  24  25
HETATM   25  C   UNL     1      40.785 -15.512   0.863  1.00  0.00     0.240 C 
HETATM   26  N   UNL     1      40.321 -14.372   0.232  1.00  0.00    -0.326 N 
HETATM   27  H   UNL     1      39.724 -13.754   0.784  1.00  0.00     0.169 HD
HETATM   28  O   UNL     1      41.680 -16.255   0.462  1.00  0.00    -0.271 OA
BRANCH  26  29
HETATM   29  C   UNL     1      40.555 -13.993  -1.106  1.00  0.00     0.035 A 
HETATM   30  C   UNL     1      41.357 -12.907  -1.471  1.00  0.00     0.036 A 
HETATM   31  C   UNL     1      41.630 -12.630  -2.820  1.00  0.00    -0.060 A 
HETATM   32  C   UNL     1      42.570 -11.520  -3.191  1.00  0.00     0.048 C 
HETATM   33  C   UNL     1      41.084 -13.452  -3.810  1.00  0.00     0.007 A 
HETATM   34  C   UNL     1      40.273 -14.530  -3.456  1.00  0.00     0.003 A 
HETATM   35  C   UNL     1      40.018 -14.805  -2.111  1.00  0.00     0.029 A 
ENDBRANCH  26  29
ENDBRANCH  24  25
ENDBRANCH   1  24
TORSDOF 4
ENDMDL
MODEL 4
REMARK VINA RESULT:      -8.9      2.250      6.061
REMARK  4 active torsions:
REMARK  status: ('A' for Active; 'I' for Inactive)
REMARK    1  A    between atoms: C_4  and  N_5 
REMARK       I    between atoms: N_5  and  C_6 
REMARK    2  A    between atoms: C_6  and  C_7 
REMARK    3  A    between atoms: C_7  and  N_8 
REMARK    4  A    between atoms: C_12  and  C_13 
ROOT
HETATM    1  N   UNL     1      39.973 -14.893   3.127  1.00  0.00    -0.304 N 
HETATM    2  C   UNL     1      40.831 -15.830   3.686  1.00  0.00     0.261 C 
HETATM    3  O   UNL     1      40.741 -17.037   3.544  1.00  0.00    -0.267 OA
HETATM    4  C   UNL     1      41.779 -15.031   4.556  1.00  0.00     0.068 C 
HETATM    5  C   UNL     1      42.945 -15.496   5.048  1.00  0.00     0.093 C 
HETATM    6  C   UNL     1      43.899 -14.593   5.811  1.00  0.00     0.025 C 
HETATM    7  N   UNL     1      44.691 -13.843   6.444  1.00  0.00    -0.096 N 
HETATM    8  C   UNL     1      41.217 -13.663   4.619  1.00  0.00     0.008 A 
HETATM    9  C   UNL     1      40.146 -13.632   3.712  1.00  0.00     0.049 A 
HETATM   10  C   UNL     1      41.534 -12.525   5.346  1.00  0.00     0.015 A 
HETATM   11  C   UNL     1      40.779 -11.363   5.140  1.00  0.00     0.001 A 
HETATM   12  C   UNL     1      39.719 -11.345   4.224  1.00  0.00     0.002 A 
HETATM   13  C   UNL     1      39.392 -12.490   3.498  1.00  0.00     0.030 A 
ENDROOT
BRANCH   5  14
HETATM   14  C   UNL     1      43.440 -16.800   4.757  1.00  0.00     0.149 A 
HETATM   15  N   UNL     1      43.728 -17.808   5.555  1.00  0.00    -0.228 NA
HETATM   16  C   UNL     1      44.078 -18.855   4.739  1.00  0.00     0.086 A 
HETATM   17  C   UNL     1      43.970 -18.495   3.403  1.00  0.00     0.062 A 
HETATM   18  C   UNL     1      44.486 -20.156   5.067  1.00  0.00     0.034 A 
HETATM   19  N   UNL     1      43.576 -17.183   3.439  1.00  0.00    -0.338 N 
HETATM   20  C   UNL     1      44.228 -19.372   2.346  1.00  0.00     0.032 A 
HETATM   21  H   UNL     1      43.398 -16.611   2.626  1.00  0.00     0.167 HD
HETATM   22  C   UNL     1      44.625 -20.668   2.692  1.00  0.00     0.002 A 
HETATM   23  C   UNL     1      44.758 -21.056   4.029  1.00  0.00     0.002 A 
ENDBRANCH   5  14
BRANCH   1  24
HETATM   24  C   UNL     1      39.120 -15.177   1.996  1.00  0.00     0.235 C 
BRANCH  24  25
HETATM   25  C   UNL     1      39.399 -14.349   0.747  1.00  0.00     0.240 C 
HETATM   26  N   UNL     1      40.719 -14.411   0.335  1.00  0.00    -0.326 N 
HETATM   27  H   UNL     1      41.278 -15.182   0.705  1.00  0.00     0.169 HD
HETATM   28  O   UNL     1      38.514 -13.651   0.254  1.00  0.00    -0.271 OA
BRANCH  26  29
HETATM   29  C   UNL     1      41.383 -13.499  -0.509  1.00  0.00     0.035 A 
HETATM   30  C   UNL     1      41.827 -12.241  -0.089  1.00  0.00     0.036 A 
HETATM   31  C   UNL     1      42.564 -11.409  -0.947  1.00  0.00    -0.060 A 
HETATM   32  C   UNL     1      43.115 -10.104  -0.450  1.00  0.00     0.048 C 
HETATM   33  C   UNL     1      42.850 -11.848  -2.244  1.00  0.00     0.007 A 
HETATM   34  C   UNL     1      42.402 -13.095  -2.676  1.00  0.00     0.003 A 
HETATM   35  C   UNL     1      41.681 -13.921  -1.810  1.00  0.00     0.029 A 
ENDBRANCH  26  29
ENDBRANCH  24  25
ENDBRANCH   1  24
TORSDOF 4
ENDMDL
MODEL 5
REMARK VINA RESULT:      -8.8      1.914      5.983
REMARK  4 active torsions:
REMARK  status: ('A' for Active; 'I' for Inactive)
REMARK    1  A    between atoms: C_4  and  N_5 
REMARK       I    between atoms: N_5  and  C_6 
REMARK    2  A    between atoms: C_6  and  C_7 
REMARK    3  A    between atoms: C_7  and  N_8 
REMARK    4  A    between atoms: C_12  and  C_13 
ROOT
HETATM    1  N   UNL     1      40.040 -12.578   4.499  1.00  0.00    -0.304 N 
HETATM    2  C   UNL     1      40.727 -13.781   4.570  1.00  0.00     0.261 C 
HETATM    3  O   UNL     1      40.387 -14.816   4.026  1.00  0.00    -0.267 OA
HETATM    4  C   UNL     1      41.871 -13.528   5.530  1.00  0.00     0.068 C 
HETATM    5  C   UNL     1      42.950 -14.326   5.664  1.00  0.00     0.093 C 
HETATM    6  C   UNL     1      44.115 -13.940   6.561  1.00  0.00     0.025 C 
HETATM    7  N   UNL     1      45.080 -13.619   7.305  1.00  0.00    -0.096 N 
HETATM    8  C   UNL     1      41.601 -12.209   6.146  1.00  0.00     0.008 A 
HETATM    9  C   UNL     1      40.501 -11.670   5.461  1.00  0.00     0.049 A 
HETATM   10  C   UNL     1      42.188 -11.491   7.177  1.00  0.00     0.015 A 
HETATM   11  C   UNL     1      41.670 -10.230   7.498  1.00  0.00     0.001 A 
HETATM   12  C   UNL     1      40.577  -9.700   6.798  1.00  0.00     0.002 A 
HETATM   13  C   UNL     1      39.979 -10.424   5.767  1.00  0.00     0.030 A 
ENDROOT
BRANCH   5  14
HETATM   14  C   UNL     1      43.153 -15.490   4.869  1.00  0.00     0.149 A 
HETATM   15  N   UNL     1      42.987 -16.766   5.155  1.00  0.00    -0.228 NA
HETATM   16  C   UNL     1      43.238 -17.455   3.994  1.00  0.00     0.086 A 
HETATM   17  C   UNL     1      43.532 -16.580   2.956  1.00  0.00     0.062 A 
HETATM   18  C   UNL     1      43.219 -18.833   3.741  1.00  0.00     0.034 A 
HETATM   19  N   UNL     1      43.484 -15.340   3.538  1.00  0.00    -0.338 N 
HETATM   20  C   UNL     1      43.793 -16.996   1.649  1.00  0.00     0.032 A 
HETATM   21  H   UNL     1      43.646 -14.468   3.054  1.00  0.00     0.167 HD
HETATM   22  C   UNL     1      43.760 -18.375   1.413  1.00  0.00     0.002 A 
HETATM   23  C   UNL     1      43.484 -19.282   2.441  1.00  0.00     0.002 A 
ENDBRANCH   5  14
BRANCH   1  24
HETATM   24  C   UNL     1      39.075 -12.277   3.467  1.00  0.00     0.235 C 
BRANCH  24  25
HETATM   25  C   UNL     1      39.580 -12.437   2.037  1.00  0.00     0.240 C 
HETATM   26  N   UNL     1      39.101 -13.576   1.413  1.00  0.00    -0.326 N 
HETATM   27  H   UNL     1      38.282 -14.018   1.833  1.00  0.00     0.169 HD
HETATM   28  O   UNL     1      40.396 -11.641   1.575  1.00  0.00    -0.271 OA
BRANCH  26  29
HETATM   29  C   UNL     1      39.651 -14.213   0.282  1.00  0.00     0.035 A 
HETATM   30  C   UNL     1      39.299 -13.889  -1.032  1.00  0.00     0.036 A 
HETATM   31  C   UNL     1      39.945 -14.492  -2.124  1.00  0.00    -0.060 A 
HETATM   32  C   UNL     1      39.623 -14.064  -3.526  1.00  0.00     0.048 C 
HETATM   33  C   UNL     1      40.951 -15.434  -1.887  1.00  0.00     0.007 A 
HETATM   34  C   UNL     1      41.301 -15.772  -0.580  1.00  0.00     0.003 A 
HETATM   35  C   UNL     1      40.661 -15.157   0.499  1.00  0.00     0.029 A 
ENDBRANCH  26  29
ENDBRANCH  24  25
ENDBRANCH   1  24
TORSDOF 4
ENDMDL
MODEL 6
REMARK VINA RESULT:      -8.7      3.328      8.754
REMARK  4 active torsions:
REMARK  status: ('A' for Active; 'I' for Inactive)
REMARK    1  A    between atoms: C_4  and  N_5 
REMARK       I    between atoms: N_5  and  C_6 
REMARK    2  A    between atoms: C_6  and  C_7 
REMARK    3  A    between atoms: C_7  and  N_8 
REMARK    4  A    between atoms: C_12  and  C_13 
ROOT
HETATM    1  N   UNL     1      40.359 -11.865   5.600  1.00  0.00    -0.304 N 
HETATM    2  C   UNL     1      41.203 -12.949   5.411  1.00  0.00     0.261 C 
HETATM    3  O   UNL     1      42.183 -13.202   6.089  1.00  0.00    -0.267 OA
HETATM    4  C   UNL     1      40.699 -13.632   4.157  1.00  0.00     0.068 C 
HETATM    5  C   UNL     1      41.036 -14.880   3.774  1.00  0.00     0.093 C 
HETATM    6  C   UNL     1      40.392 -15.540   2.566  1.00  0.00     0.025 C 
HETATM    7  N   UNL     1      39.857 -16.087   1.564  1.00  0.00    -0.096 N 
HETATM    8  C   UNL     1      39.706 -12.708   3.563  1.00  0.00     0.008 A 
HETATM    9  C   UNL     1      39.519 -11.675   4.495  1.00  0.00     0.049 A 
HETATM   10  C   UNL     1      39.002 -12.691   2.368  1.00  0.00     0.015 A 
HETATM   11  C   UNL     1      38.106 -11.641   2.130  1.00  0.00     0.001 A 
HETATM   12  C   UNL     1      37.923 -10.622   3.074  1.00  0.00     0.002 A 
HETATM   13  C   UNL     1      38.636 -10.631   4.273  1.00  0.00     0.030 A 
ENDROOT
BRANCH   5  14
HETATM   14  C   UNL     1      41.885 -15.722   4.549  1.00  0.00     0.149 A 
HETATM   15  N   UNL     1      43.101 -16.171   4.311  1.00  0.00    -0.228 NA
HETATM   16  C   UNL     1      43.480 -16.865   5.433  1.00  0.00     0.086 A 
HETATM   17  C   UNL     1      42.487 -16.814   6.402  1.00  0.00     0.062 A 
HETATM   18  C   UNL     1      44.668 -17.555   5.707  1.00  0.00     0.034 A 
HETATM   19  N   UNL     1      41.480 -16.094   5.814  1.00  0.00    -0.338 N 
HETATM   20  C   UNL     1      42.611 -17.402   7.663  1.00  0.00     0.032 A 
HETATM   21  H   UNL     1      40.600 -15.865   6.255  1.00  0.00     0.167 HD
HETATM   22  C   UNL     1      43.808 -18.078   7.922  1.00  0.00     0.002 A 
HETATM   23  C   UNL     1      44.820 -18.161   6.961  1.00  0.00     0.002 A 
ENDBRANCH   5  14
BRANCH   1  24
HETATM   24  C   UNL     1      40.280 -11.129   6.841  1.00  0.00     0.235 C 
BRANCH  24  25
HETATM   25  C   UNL     1      41.611 -10.610   7.375  1.00  0.00     0.240 C 
HETATM   26  N   UNL     1      42.194 -11.457   8.302  1.00  0.00    -0.326 N 
HETATM   27  H   UNL     1      41.851 -12.419   8.322  1.00  0.00     0.169 HD
HETATM   28  O   UNL     1      42.026  -9.502   7.037  1.00  0.00    -0.271 OA
BRANCH  26  29
HETATM   29  C   UNL     1      43.183 -11.119   9.248  1.00  0.00     0.035 A 
HETATM   30  C   UNL     1      42.899 -10.517  10.478  1.00  0.00     0.036 A 
HETATM   31  C   UNL     1      43.914 -10.285  11.421  1.00  0.00    -0.060 A 
HETATM   32  C   UNL     1      43.579  -9.727  12.774  1.00  0.00     0.048 C 
HETATM   33  C   UNL     1      45.227 -10.659  11.117  1.00  0.00     0.007 A 
HETATM   34  C   UNL     1      45.521 -11.249   9.889  1.00  0.00     0.003 A 
HETATM   35  C   UNL     1      44.502 -11.486   8.963  1.00  0.00     0.029 A 
ENDBRANCH  26  29
ENDBRANCH  24  25
ENDBRANCH   1  24
TORSDOF 4
ENDMDL
MODEL 7
REMARK VINA RESULT:      -8.6      3.402      9.081
REMARK  4 active torsions:
REMARK  status: ('A' for Active; 'I' for Inactive)
REMARK    1  A    between atoms: C_4  and  N_5 
REMARK       I    between atoms: N_5  and  C_6 
REMARK    2  A    between atoms: C_6  and  C_7 
REMARK    3  A    between atoms: C_7  and  N_8 
REMARK    4  A    between atoms: C_12  and  C_13 
ROOT
HETATM    1  N   UNL     1      39.960 -11.344   5.392  1.00  0.00    -0.304 N 
HETATM    2  C   UNL     1      40.636 -12.403   4.802  1.00  0.00     0.261 C 
HETATM    3  O   UNL     1      41.609 -12.964   5.274  1.00  0.00    -0.267 OA
HETATM    4  C   UNL     1      39.973 -12.596   3.455  1.00  0.00     0.068 C 
HETATM    5  C   UNL     1      40.114 -13.691   2.681  1.00  0.00     0.093 C 
HETATM    6  C   UNL     1      39.317 -13.862   1.397  1.00  0.00     0.025 C 
HETATM    7  N   UNL     1      38.656 -14.003   0.333  1.00  0.00    -0.096 N 
HETATM    8  C   UNL     1      39.084 -11.427   3.268  1.00  0.00     0.008 A 
HETATM    9  C   UNL     1      39.094 -10.723   4.483  1.00  0.00     0.049 A 
HETATM   10  C   UNL     1      38.323 -10.956   2.209  1.00  0.00     0.015 A 
HETATM   11  C   UNL     1      37.567  -9.791   2.388  1.00  0.00     0.001 A 
HETATM   12  C   UNL     1      37.579  -9.105   3.611  1.00  0.00     0.002 A 
HETATM   13  C   UNL     1      38.351  -9.570   4.675  1.00  0.00     0.030 A 
ENDROOT
BRANCH   5  14
HETATM   14  C   UNL     1      40.881 -14.824   3.077  1.00  0.00     0.149 A 
HETATM   15  N   UNL     1      42.088 -15.212   2.720  1.00  0.00    -0.228 NA
HETATM   16  C   UNL     1      42.374 -16.321   3.478  1.00  0.00     0.086 A 
HETATM   17  C   UNL     1      41.332 -16.602   4.351  1.00  0.00     0.062 A 
HETATM   18  C   UNL     1      43.515 -17.134   3.490  1.00  0.00     0.034 A 
HETATM   19  N   UNL     1      40.390 -15.647   4.070  1.00  0.00    -0.338 N 
HETATM   20  C   UNL     1      41.360 -17.653   5.271  1.00  0.00     0.032 A 
HETATM   21  H   UNL     1      39.498 -15.560   4.536  1.00  0.00     0.167 HD
HETATM   22  C   UNL     1      42.511 -18.449   5.275  1.00  0.00     0.002 A 
HETATM   23  C   UNL     1      43.570 -18.201   4.397  1.00  0.00     0.002 A 
ENDBRANCH   5  14
BRANCH   1  24
HETATM   24  C   UNL     1      40.054 -11.031   6.799  1.00  0.00     0.235 C 
BRANCH  24  25
HETATM   25  C   UNL     1      41.431 -10.579   7.275  1.00  0.00     0.240 C 
HETATM   26  N   UNL     1      42.043 -11.491   8.117  1.00  0.00    -0.326 N 
HETATM   27  H   UNL     1      41.672 -12.443   8.107  1.00  0.00     0.169 HD
HETATM   28  O   UNL     1      41.858  -9.466   6.972  1.00  0.00    -0.271 OA
BRANCH  26  29
HETATM   29  C   UNL     1      43.098 -11.234   9.015  1.00  0.00     0.035 A 
HETATM   30  C   UNL     1      42.926 -10.584  10.242  1.00  0.00     0.036 A 
HETATM   31  C   UNL     1      43.996 -10.435  11.139  1.00  0.00    -0.060 A 
HETATM   32  C   UNL     1      43.773  -9.821  12.490  1.00  0.00     0.048 C 
HETATM   33  C   UNL     1      45.253 -10.940  10.792  1.00  0.00     0.007 A 
HETATM   34  C   UNL     1      45.437 -11.580   9.566  1.00  0.00     0.003 A 
HETATM   35  C   UNL     1      44.363 -11.734   8.687  1.00  0.00     0.029 A 
ENDBRANCH  26  29
ENDBRANCH  24  25
ENDBRANCH   1  24
TORSDOF 4
ENDMDL
MODEL 8
REMARK VINA RESULT:      -8.4      2.888      6.931
REMARK  4 active torsions:
REMARK  status: ('A' for Active; 'I' for Inactive)
REMARK    1  A    between atoms: C_4  and  N_5 
REMARK       I    between atoms: N_5  and  C_6 
REMARK    2  A    between atoms: C_6  and  C_7 
REMARK    3  A    between atoms: C_7  and  N_8 
REMARK    4  A    between atoms: C_12  and  C_13 
ROOT
HETATM    1  N   UNL     1      41.716 -15.822   4.459  1.00  0.00    -0.304 N 
HETATM    2  C   UNL     1      40.785 -15.179   3.656  1.00  0.00     0.261 C 
HETATM    3  O   UNL     1      39.907 -14.436   4.058  1.00  0.00    -0.267 OA
HETATM    4  C   UNL     1      41.044 -15.694   2.256  1.00  0.00     0.068 C 
HETATM    5  C   UNL     1      40.572 -15.124   1.129  1.00  0.00     0.093 C 
HETATM    6  C   UNL     1      40.979 -15.629  -0.245  1.00  0.00     0.025 C 
HETATM    7  N   UNL     1      41.316 -16.049  -1.385  1.00  0.00    -0.096 N 
HETATM    8  C   UNL     1      41.991 -16.822   2.407  1.00  0.00     0.008 A 
HETATM    9  C   UNL     1      42.385 -16.831   3.755  1.00  0.00     0.049 A 
HETATM   10  C   UNL     1      42.501 -17.773   1.536  1.00  0.00     0.015 A 
HETATM   11  C   UNL     1      43.416 -18.714   2.027  1.00  0.00     0.001 A 
HETATM   12  C   UNL     1      43.808 -18.703   3.373  1.00  0.00     0.002 A 
HETATM   13  C   UNL     1      43.289 -17.754   4.254  1.00  0.00     0.030 A 
ENDROOT
BRANCH   5  14
HETATM   14  C   UNL     1      39.801 -13.926   1.135  1.00  0.00     0.149 A 
HETATM   15  N   UNL     1      40.176 -12.663   1.175  1.00  0.00    -0.228 NA
HETATM   16  C   UNL     1      39.027 -11.919   1.064  1.00  0.00     0.086 A 
HETATM   17  C   UNL     1      37.919 -12.743   0.915  1.00  0.00     0.062 A 
HETATM   18  C   UNL     1      38.850 -10.529   1.064  1.00  0.00     0.034 A 
HETATM   19  N   UNL     1      38.434 -14.012   0.976  1.00  0.00    -0.338 N 
HETATM   20  C   UNL     1      36.619 -12.262   0.743  1.00  0.00     0.032 A 
HETATM   21  H   UNL     1      37.891 -14.860   0.895  1.00  0.00     0.167 HD
HETATM   22  C   UNL     1      36.463 -10.871   0.736  1.00  0.00     0.002 A 
HETATM   23  C   UNL     1      37.557 -10.016   0.900  1.00  0.00     0.002 A 
ENDBRANCH   5  14
BRANCH   1  24
HETATM   24  C   UNL     1      42.032 -15.395   5.803  1.00  0.00     0.235 C 
BRANCH  24  25
HETATM   25  C   UNL     1      43.060 -14.273   5.904  1.00  0.00     0.240 C 
HETATM   26  N   UNL     1      43.910 -14.408   6.987  1.00  0.00    -0.326 N 
HETATM   27  H   UNL     1      43.959 -15.333   7.418  1.00  0.00     0.169 HD
HETATM   28  O   UNL     1      43.026 -13.327   5.118  1.00  0.00    -0.271 OA
BRANCH  26  29
HETATM   29  C   UNL     1      44.686 -13.393   7.583  1.00  0.00     0.035 A 
HETATM   30  C   UNL     1      44.222 -12.576   8.620  1.00  0.00     0.036 A 
HETATM   31  C   UNL     1      45.068 -11.641   9.238  1.00  0.00    -0.060 A 
HETATM   32  C   UNL     1      44.584 -10.840  10.412  1.00  0.00     0.048 C 
HETATM   33  C   UNL     1      46.392 -11.525   8.802  1.00  0.00     0.007 A 
HETATM   34  C   UNL     1      46.860 -12.327   7.762  1.00  0.00     0.003 A 
HETATM   35  C   UNL     1      46.014 -13.263   7.162  1.00  0.00     0.029 A 
ENDBRANCH  26  29
ENDBRANCH  24  25
ENDBRANCH   1  24
TORSDOF 4
ENDMDL
MODEL 9
REMARK VINA RESULT:      -8.2      2.337      8.031
REMARK  4 active torsions:
REMARK  status: ('A' for Active; 'I' for Inactive)
REMARK    1  A    between atoms: C_4  and  N_5 
REMARK       I    between atoms: N_5  and  C_6 
REMARK    2  A    between atoms: C_6  and  C_7 
REMARK    3  A    between atoms: C_7  and  N_8 
REMARK    4  A    between atoms: C_12  and  C_13 
ROOT
HETATM    1  N   UNL     1      41.002 -14.204   3.283  1.00  0.00    -0.304 N 
HETATM    2  C   UNL     1      40.756 -14.131   1.920  1.00  0.00     0.261 C 
HETATM    3  O   UNL     1      40.903 -15.048   1.131  1.00  0.00    -0.267 OA
HETATM    4  C   UNL     1      40.394 -12.684   1.657  1.00  0.00     0.068 C 
HETATM    5  C   UNL     1      39.801 -12.234   0.534  1.00  0.00     0.093 C 
HETATM    6  C   UNL     1      39.358 -10.786   0.398  1.00  0.00     0.025 C 
HETATM    7  N   UNL     1      38.991  -9.586   0.285  1.00  0.00    -0.096 N 
HETATM    8  C   UNL     1      40.706 -11.955   2.908  1.00  0.00     0.008 A 
HETATM    9  C   UNL     1      41.039 -12.929   3.862  1.00  0.00     0.049 A 
HETATM   10  C   UNL     1      40.725 -10.613   3.259  1.00  0.00     0.015 A 
HETATM   11  C   UNL     1      41.063 -10.267   4.574  1.00  0.00     0.001 A 
HETATM   12  C   UNL     1      41.383 -11.252   5.519  1.00  0.00     0.002 A 
HETATM   13  C   UNL     1      41.375 -12.601   5.166  1.00  0.00     0.030 A 
ENDROOT
BRANCH   5  14
HETATM   14  C   UNL     1      39.402 -13.096  -0.528  1.00  0.00     0.149 A 
HETATM   15  N   UNL     1      38.208 -13.357  -1.021  1.00  0.00    -0.228 NA
HETATM   16  C   UNL     1      38.411 -14.187  -2.096  1.00  0.00     0.086 A 
HETATM   17  C   UNL     1      39.766 -14.415  -2.293  1.00  0.00     0.062 A 
HETATM   18  C   UNL     1      37.484 -14.776  -2.967  1.00  0.00     0.034 A 
HETATM   19  N   UNL     1      40.375 -13.723  -1.279  1.00  0.00    -0.338 N 
HETATM   20  C   UNL     1      40.272 -15.193  -3.337  1.00  0.00     0.032 A 
HETATM   21  H   UNL     1      41.373 -13.673  -1.131  1.00  0.00     0.167 HD
HETATM   22  C   UNL     1      39.333 -15.765  -4.202  1.00  0.00     0.002 A 
HETATM   23  C   UNL     1      37.961 -15.567  -4.020  1.00  0.00     0.002 A 
ENDBRANCH   5  14
BRANCH   1  24
HETATM   24  C   UNL     1      41.071 -15.450   4.010  1.00  0.00     0.235 C 
BRANCH  24  25
HETATM   25  C   UNL     1      42.328 -16.278   3.765  1.00  0.00     0.240 C 
HETATM   26  N   UNL     1      42.059 -17.605   3.476  1.00  0.00    -0.326 N 
HETATM   27  H   UNL     1      41.105 -17.825   3.184  1.00  0.00     0.169 HD
HETATM   28  O   UNL     1      43.441 -15.775   3.911  1.00  0.00    -0.271 OA
BRANCH  26  29
HETATM   29  C   UNL     1      42.953 -18.689   3.581  1.00  0.00     0.035 A 
HETATM   30  C   UNL     1      43.135 -19.639   2.570  1.00  0.00     0.036 A 
HETATM   31  C   UNL     1      44.106 -20.646   2.690  1.00  0.00    -0.060 A 
HETATM   32  C   UNL     1      44.355 -21.599   1.557  1.00  0.00     0.048 C 
HETATM   33  C   UNL     1      44.896 -20.700   3.843  1.00  0.00     0.007 A 
HETATM   34  C   UNL     1      44.714 -19.764   4.861  1.00  0.00     0.003 A 
HETATM   35  C   UNL     1      43.754 -18.758   4.726  1.00  0.00     0.029 A 
ENDBRANCH  26  29
ENDBRANCH  24  25
ENDBRANCH   1  24
TORSDOF 4
ENDMDL
MODEL 10
REMARK VINA RESULT:      -8.1      2.449      3.154
REMARK  4 active torsions:
REMARK  status: ('A' for Active; 'I' for Inactive)
REMARK    1  A    between atoms: C_4  and  N_5 
REMARK       I    between atoms: N_5  and  C_6 
REMARK    2  A    between atoms: C_6  and  C_7 
REMARK    3  A    between atoms: C_7  and  N_8 
REMARK    4  A    between atoms: C_12  and  C_13 
ROOT
HETATM    1  N   UNL     1      42.045 -16.223   1.312  1.00  0.00    -0.304 N 
HETATM    2  C   UNL     1      42.051 -15.075   2.091  1.00  0.00     0.261 C 
HETATM    3  O   UNL     1      41.749 -13.961   1.701  1.00  0.00    -0.267 OA
HETATM    4  C   UNL     1      42.603 -15.508   3.433  1.00  0.00     0.068 C 
HETATM    5  C   UNL     1      42.509 -14.789   4.569  1.00  0.00     0.093 C 
HETATM    6  C   UNL     1      42.981 -15.348   5.901  1.00  0.00     0.025 C 
HETATM    7  N   UNL     1      43.373 -15.812   7.006  1.00  0.00    -0.096 N 
HETATM    8  C   UNL     1      43.118 -16.883   3.235  1.00  0.00     0.008 A 
HETATM    9  C   UNL     1      42.723 -17.272   1.945  1.00  0.00     0.049 A 
HETATM   10  C   UNL     1      43.847 -17.760   4.024  1.00  0.00     0.015 A 
HETATM   11  C   UNL     1      44.158 -19.026   3.512  1.00  0.00     0.001 A 
HETATM   12  C   UNL     1      43.749 -19.404   2.226  1.00  0.00     0.002 A 
HETATM   13  C   UNL     1      43.024 -18.521   1.426  1.00  0.00     0.030 A 
ENDROOT
BRANCH   5  14
HETATM   14  C   UNL     1      41.827 -13.541   4.639  1.00  0.00     0.149 A 
HETATM   15  N   UNL     1      42.291 -12.308   4.661  1.00  0.00    -0.228 NA
HETATM   16  C   UNL     1      41.192 -11.484   4.638  1.00  0.00     0.086 A 
HETATM   17  C   UNL     1      40.022 -12.228   4.563  1.00  0.00     0.062 A 
HETATM   18  C   UNL     1      41.114 -10.085   4.662  1.00  0.00     0.034 A 
HETATM   19  N   UNL     1      40.449 -13.530   4.578  1.00  0.00    -0.338 N 
HETATM   20  C   UNL     1      38.750 -11.656   4.488  1.00  0.00     0.032 A 
HETATM   21  H   UNL     1      39.843 -14.337   4.529  1.00  0.00     0.167 HD
HETATM   22  C   UNL     1      38.691 -10.257   4.503  1.00  0.00     0.002 A 
HETATM   23  C   UNL     1      39.851  -9.482   4.594  1.00  0.00     0.002 A 
ENDBRANCH   5  14
BRANCH   1  24
HETATM   24  C   UNL     1      41.309 -16.336   0.073  1.00  0.00     0.235 C 
BRANCH  24  25
HETATM   25  C   UNL     1      40.979 -15.013  -0.610  1.00  0.00     0.240 C 
HETATM   26  N   UNL     1      42.012 -14.533  -1.396  1.00  0.00    -0.326 N 
HETATM   27  H   UNL     1      42.735 -15.204  -1.662  1.00  0.00     0.169 HD
HETATM   28  O   UNL     1      39.915 -14.442  -0.375  1.00  0.00    -0.271 OA
BRANCH  26  29
HETATM   29  C   UNL     1      42.191 -13.206  -1.835  1.00  0.00     0.035 A 
HETATM   30  C   UNL     1      42.602 -12.164  -0.995  1.00  0.00     0.036 A 
HETATM   31  C   UNL     1      42.852 -10.880  -1.504  1.00  0.00    -0.060 A 
HETATM   32  C   UNL     1      43.385  -9.800  -0.608  1.00  0.00     0.048 C 
HETATM   33  C   UNL     1      42.681 -10.642  -2.871  1.00  0.00     0.007 A 
HETATM   34  C   UNL     1      42.261 -11.670  -3.714  1.00  0.00     0.003 A 
HETATM   35  C   UNL     1      42.026 -12.948  -3.200  1.00  0.00     0.029 A 
ENDBRANCH  26  29
ENDBRANCH  24  25
ENDBRANCH   1  24
TORSDOF 4
ENDMDL
