MODEL 1
REMARK VINA RESULT:      -8.0      0.000      0.000
REMARK  4 active torsions:
REMARK  status: ('A' for Active; 'I' for Inactive)
REMARK    1  A    between atoms: C_2  and  C_3 
REMARK    2  A    between atoms: C_3  and  N_4 
REMARK    3  A    between atoms: C_3  and  C_17 
REMARK       I    between atoms: N_4  and  C_5 
REMARK    4  A    between atoms: C_5  and  C_6 
ROOT
HETATM    1  N   UNL     1      43.727 -15.465   5.765  1.00  0.00    -0.345 N 
HETATM    2  C   UNL     1      43.589 -16.596   6.550  1.00  0.00     0.252 C 
HETATM    3  O   UNL     1      43.268 -16.530   7.732  1.00  0.00    -0.268 OA
HETATM    4  H   UNL     1      43.761 -15.616   4.763  1.00  0.00     0.163 HD
ENDROOT
BRANCH   1   5
HETATM    5  C   UNL     1      43.236 -14.167   6.236  1.00  0.00     0.152 C 
BRANCH   5   6
HETATM    6  C   UNL     1      42.760 -13.292   5.070  1.00  0.00     0.028 C 
HETATM    7  C   UNL     1      43.348 -13.714   3.730  1.00  0.00     0.007 C 
ENDBRANCH   5   6
BRANCH   5   8
HETATM    8  C   UNL     1      44.284 -13.482   7.124  1.00  0.00     0.104 A 
HETATM    9  N   UNL     1      44.096 -12.769   8.249  1.00  0.00    -0.347 N 
HETATM   10  H   UNL     1      43.186 -12.576   8.659  1.00  0.00     0.167 HD
HETATM   11  C   UNL     1      45.305 -12.329   8.781  1.00  0.00     0.022 A 
HETATM   12  C   UNL     1      45.404 -11.536  10.017  1.00  0.00     0.069 C 
HETATM   13  C   UNL     1      46.266 -12.791   7.916  1.00  0.00     0.114 A 
HETATM   14  N   UNL     1      45.612 -13.477   6.931  1.00  0.00    -0.352 N 
HETATM   15  H   UNL     1      46.021 -13.910   6.089  1.00  0.00     0.166 HD
ENDBRANCH   5   8
ENDBRANCH   1   5
BRANCH   2  16
HETATM   16  C   UNL     1      43.806 -17.905   5.876  1.00  0.00     0.033 A 
HETATM   17  C   UNL     1      43.596 -17.967   4.485  1.00  0.00     0.031 A 
HETATM   18  C   UNL     1      43.859 -19.177   3.817  1.00  0.00     0.001 A 
HETATM   19  C   UNL     1      44.291 -20.266   4.562  1.00  0.00     0.086 A 
HETATM   20  C   UNL     1      43.808 -19.626   2.471  1.00  0.00     0.046 A 
HETATM   21  O   UNL     1      44.511 -21.336   3.752  1.00  0.00    -0.315 OA
HETATM   22  C   UNL     1      44.474 -20.251   5.942  1.00  0.00     0.039 A 
HETATM   23  C   UNL     1      44.223 -20.942   2.480  1.00  0.00     0.050 A 
HETATM   24  C   UNL     1      44.414 -21.950   1.417  1.00  0.00     0.077 C 
HETATM   25  C   UNL     1      44.219 -19.038   6.594  1.00  0.00     0.020 A 
ENDBRANCH   2  16
TORSDOF 4
ENDMDL
MODEL 2
REMARK VINA RESULT:      -7.8      4.613      6.923
REMARK  4 active torsions:
REMARK  status: ('A' for Active; 'I' for Inactive)
REMARK    1  A    between atoms: C_2  and  C_3 
REMARK    2  A    between atoms: C_3  and  N_4 
REMARK    3  A    between atoms: C_3  and  C_17 
REMARK       I    between atoms: N_4  and  C_5 
REMARK    4  A    between atoms: C_5  and  C_6 
ROOT
HETATM    1  N   UNL     1      42.115 -15.762   1.078  1.00  0.00    -0.345 N 
HETATM    2  C   UNL     1      42.921 -15.673   2.199  1.00  0.00     0.252 C 
HETATM    3  O   UNL     1      43.289 -14.593   2.649  1.00  0.00    -0.268 OA
HETATM    4  H   UNL     1      41.671 -16.658   0.916  1.00  0.00     0.163 HD
ENDROOT
BRANCH   1   5
HETATM    5  C   UNL     1      41.449 -14.571   0.543  1.00  0.00     0.152 C 
BRANCH   5   6
HETATM    6  C   UNL     1      40.181 -14.235   1.338  1.00  0.00     0.028 C 
HETATM    7  C   UNL     1      39.487 -15.468   1.901  1.00  0.00     0.007 C 
ENDBRANCH   5   6
BRANCH   5   8
HETATM    8  C   UNL     1      41.203 -14.720  -0.965  1.00  0.00     0.104 A 
HETATM    9  N   UNL     1      40.240 -15.416  -1.595  1.00  0.00    -0.347 N 
HETATM   10  H   UNL     1      39.531 -15.969  -1.121  1.00  0.00     0.167 HD
HETATM   11  C   UNL     1      40.338 -15.284  -2.977  1.00  0.00     0.022 A 
HETATM   12  C   UNL     1      39.408 -15.928  -3.918  1.00  0.00     0.069 C 
HETATM   13  C   UNL     1      41.430 -14.478  -3.183  1.00  0.00     0.114 A 
HETATM   14  N   UNL     1      41.925 -14.162  -1.949  1.00  0.00    -0.352 N 
HETATM   15  H   UNL     1      42.773 -13.617  -1.733  1.00  0.00     0.166 HD
ENDBRANCH   5   8
ENDBRANCH   1   5
BRANCH   2  16
HETATM   16  C   UNL     1      43.284 -16.956   2.862  1.00  0.00     0.033 A 
HETATM   17  C   UNL     1      43.367 -18.107   2.057  1.00  0.00     0.031 A 
HETATM   18  C   UNL     1      43.772 -19.317   2.649  1.00  0.00     0.001 A 
HETATM   19  C   UNL     1      44.052 -19.328   4.010  1.00  0.00     0.086 A 
HETATM   20  C   UNL     1      44.004 -20.642   2.197  1.00  0.00     0.046 A 
HETATM   21  O   UNL     1      44.443 -20.570   4.402  1.00  0.00    -0.315 OA
HETATM   22  C   UNL     1      43.945 -18.218   4.843  1.00  0.00     0.039 A 
HETATM   23  C   UNL     1      44.421 -21.366   3.296  1.00  0.00     0.050 A 
HETATM   24  C   UNL     1      44.836 -22.771   3.485  1.00  0.00     0.077 C 
HETATM   25  C   UNL     1      43.550 -17.018   4.239  1.00  0.00     0.020 A 
ENDBRANCH   2  16
TORSDOF 4
ENDMDL
MODEL 3
REMARK VINA RESULT:      -7.7      5.590      7.533
REMARK  4 active torsions:
REMARK  status: ('A' for Active; 'I' for Inactive)
REMARK    1  A    between atoms: C_2  and  C_3 
REMARK    2  A    between atoms: C_3  and  N_4 
REMARK    3  A    between atoms: C_3  and  C_17 
REMARK       I    between atoms: N_4  and  C_5 
REMARK    4  A    between atoms: C_5  and  C_6 
ROOT
HETATM    1  N   UNL     1      41.459 -15.699  -0.836  1.00  0.00    -0.345 N 
HETATM    2  C   UNL     1      41.020 -15.486   0.458  1.00  0.00     0.252 C 
HETATM    3  O   UNL     1      40.233 -14.586   0.737  1.00  0.00    -0.268 OA
HETATM    4  H   UNL     1      41.910 -16.589  -1.016  1.00  0.00     0.163 HD
ENDROOT
BRANCH   1   5
HETATM    5  C   UNL     1      40.800 -15.035  -1.965  1.00  0.00     0.152 C 
BRANCH   5   6
HETATM    6  C   UNL     1      40.637 -15.987  -3.156  1.00  0.00     0.028 C 
HETATM    7  C   UNL     1      39.283 -15.859  -3.840  1.00  0.00     0.007 C 
ENDBRANCH   5   6
BRANCH   5   8
HETATM    8  C   UNL     1      41.524 -13.729  -2.321  1.00  0.00     0.104 A 
HETATM    9  N   UNL     1      41.990 -12.775  -1.497  1.00  0.00    -0.347 N 
HETATM   10  H   UNL     1      41.900 -12.799  -0.484  1.00  0.00     0.167 HD
HETATM   11  C   UNL     1      42.610 -11.748  -2.204  1.00  0.00     0.022 A 
HETATM   12  C   UNL     1      43.224 -10.577  -1.559  1.00  0.00     0.069 C 
HETATM   13  C   UNL     1      42.493 -12.103  -3.525  1.00  0.00     0.114 A 
HETATM   14  N   UNL     1      41.830 -13.299  -3.555  1.00  0.00    -0.352 N 
HETATM   15  H   UNL     1      41.524 -13.827  -4.385  1.00  0.00     0.166 HD
ENDBRANCH   5   8
ENDBRANCH   1   5
BRANCH   2  16
HETATM   16  C   UNL     1      41.514 -16.434   1.494  1.00  0.00     0.033 A 
HETATM   17  C   UNL     1      42.547 -17.319   1.131  1.00  0.00     0.031 A 
HETATM   18  C   UNL     1      43.075 -18.178   2.112  1.00  0.00     0.001 A 
HETATM   19  C   UNL     1      42.539 -18.133   3.392  1.00  0.00     0.086 A 
HETATM   20  C   UNL     1      44.102 -19.157   2.158  1.00  0.00     0.046 A 
HETATM   21  O   UNL     1      43.180 -19.013   4.205  1.00  0.00    -0.315 OA
HETATM   22  C   UNL     1      41.493 -17.297   3.777  1.00  0.00     0.039 A 
HETATM   23  C   UNL     1      44.136 -19.630   3.455  1.00  0.00     0.050 A 
HETATM   24  C   UNL     1      44.981 -20.624   4.147  1.00  0.00     0.077 C 
HETATM   25  C   UNL     1      40.983 -16.440   2.794  1.00  0.00     0.020 A 
ENDBRANCH   2  16
TORSDOF 4
ENDMDL
MODEL 4
REMARK VINA RESULT:      -7.6      3.860      5.809
REMARK  4 active torsions:
REMARK  status: ('A' for Active; 'I' for Inactive)
REMARK    1  A    between atoms: C_2  and  C_3 
REMARK    2  A    between atoms: C_3  and  N_4 
REMARK    3  A    between atoms: C_3  and  C_17 
REMARK       I    between atoms: N_4  and  C_5 
REMARK    4  A    between atoms: C_5  and  C_6 
ROOT
HETATM    1  N   UNL     1      41.138 -15.871   3.313  1.00  0.00    -0.345 N 
HETATM    2  C   UNL     1      42.464 -15.972   2.933  1.00  0.00     0.252 C 
HETATM    3  O   UNL     1      43.128 -14.987   2.625  1.00  0.00    -0.268 OA
HETATM    4  H   UNL     1      40.740 -16.683   3.771  1.00  0.00     0.163 HD
ENDROOT
BRANCH   1   5
HETATM    5  C   UNL     1      40.549 -14.565   3.622  1.00  0.00     0.152 C 
BRANCH   5   6
HETATM    6  C   UNL     1      40.059 -14.502   5.074  1.00  0.00     0.028 C 
HETATM    7  C   UNL     1      40.664 -15.588   5.954  1.00  0.00     0.007 C 
ENDBRANCH   5   6
BRANCH   5   8
HETATM    8  C   UNL     1      39.466 -14.204   2.596  1.00  0.00     0.104 A 
HETATM    9  N   UNL     1      38.951 -12.995   2.307  1.00  0.00    -0.347 N 
HETATM   10  H   UNL     1      39.223 -12.132   2.770  1.00  0.00     0.167 HD
HETATM   11  C   UNL     1      37.999 -13.076   1.294  1.00  0.00     0.022 A 
HETATM   12  C   UNL     1      37.281 -11.906   0.766  1.00  0.00     0.069 C 
HETATM   13  C   UNL     1      37.931 -14.408   0.973  1.00  0.00     0.114 A 
HETATM   14  N   UNL     1      38.826 -15.055   1.779  1.00  0.00    -0.352 N 
HETATM   15  H   UNL     1      38.995 -16.070   1.843  1.00  0.00     0.166 HD
ENDBRANCH   5   8
ENDBRANCH   1   5
BRANCH   2  16
HETATM   16  C   UNL     1      43.063 -17.335   2.961  1.00  0.00     0.033 A 
HETATM   17  C   UNL     1      43.478 -17.841   4.207  1.00  0.00     0.031 A 
HETATM   18  C   UNL     1      43.986 -19.152   4.267  1.00  0.00     0.001 A 
HETATM   19  C   UNL     1      44.078 -19.882   3.090  1.00  0.00     0.086 A 
HETATM   20  C   UNL     1      44.462 -20.011   5.292  1.00  0.00     0.046 A 
HETATM   21  O   UNL     1      44.570 -21.125   3.341  1.00  0.00    -0.315 OA
HETATM   22  C   UNL     1      43.712 -19.401   1.835  1.00  0.00     0.039 A 
HETATM   23  C   UNL     1      44.795 -21.203   4.682  1.00  0.00     0.050 A 
HETATM   24  C   UNL     1      45.317 -22.488   5.190  1.00  0.00     0.077 C 
HETATM   25  C   UNL     1      43.199 -18.099   1.791  1.00  0.00     0.020 A 
ENDBRANCH   2  16
TORSDOF 4
ENDMDL
MODEL 5
REMARK VINA RESULT:      -7.5      4.422      6.114
REMARK  4 active torsions:
REMARK  status: ('A' for Active; 'I' for Inactive)
REMARK    1  A    between atoms: C_2  and  C_3 
REMARK    2  A    between atoms: C_3  and  N_4 
REMARK    3  A    between atoms: C_3  and  C_17 
REMARK       I    between atoms: N_4  and  C_5 
REMARK    4  A    between atoms: C_5  and  C_6 
ROOT
HETATM    1  N   UNL     1      42.190 -15.550   1.191  1.00  0.00    -0.345 N 
HETATM    2  C   UNL     1      42.736 -15.884   2.418  1.00  0.00     0.252 C 
HETATM    3  O   UNL     1      42.771 -15.087   3.351  1.00  0.00    -0.268 OA
HETATM    4  H   UNL     1      41.988 -16.322   0.566  1.00  0.00     0.163 HD
ENDROOT
BRANCH   1   5
HETATM    5  C   UNL     1      41.394 -14.329   1.037  1.00  0.00     0.152 C 
BRANCH   5   6
HETATM    6  C   UNL     1      39.895 -14.645   0.970  1.00  0.00     0.028 C 
HETATM    7  C   UNL     1      39.054 -13.733   1.854  1.00  0.00     0.007 C 
ENDBRANCH   5   6
BRANCH   5   8
HETATM    8  C   UNL     1      41.898 -13.501  -0.152  1.00  0.00     0.104 A 
HETATM    9  N   UNL     1      42.272 -12.210  -0.179  1.00  0.00    -0.347 N 
HETATM   10  H   UNL     1      42.250 -11.591   0.627  1.00  0.00     0.167 HD
HETATM   11  C   UNL     1      42.694 -11.827  -1.450  1.00  0.00     0.022 A 
HETATM   12  C   UNL     1      43.171 -10.473  -1.770  1.00  0.00     0.069 C 
HETATM   13  C   UNL     1      42.547 -12.949  -2.228  1.00  0.00     0.114 A 
HETATM   14  N   UNL     1      42.063 -13.934  -1.412  1.00  0.00    -0.352 N 
HETATM   15  H   UNL     1      41.785 -14.890  -1.678  1.00  0.00     0.166 HD
ENDBRANCH   5   8
ENDBRANCH   1   5
BRANCH   2  16
HETATM   16  C   UNL     1      43.237 -17.277   2.568  1.00  0.00     0.033 A 
HETATM   17  C   UNL     1      43.664 -17.685   3.845  1.00  0.00     0.031 A 
HETATM   18  C   UNL     1      44.080 -19.017   4.024  1.00  0.00     0.001 A 
HETATM   19  C   UNL     1      44.073 -19.867   2.927  1.00  0.00     0.086 A 
HETATM   20  C   UNL     1      44.534 -19.802   5.117  1.00  0.00     0.046 A 
HETATM   21  O   UNL     1      44.486 -21.111   3.289  1.00  0.00    -0.315 OA
HETATM   22  C   UNL     1      43.693 -19.489   1.642  1.00  0.00     0.039 A 
HETATM   23  C   UNL     1      44.758 -21.071   4.624  1.00  0.00     0.050 A 
HETATM   24  C   UNL     1      45.207 -22.334   5.245  1.00  0.00     0.077 C 
HETATM   25  C   UNL     1      43.272 -18.163   1.479  1.00  0.00     0.020 A 
ENDBRANCH   2  16
TORSDOF 4
ENDMDL
MODEL 6
REMARK VINA RESULT:      -7.4      2.459      4.102
REMARK  4 active torsions:
REMARK  status: ('A' for Active; 'I' for Inactive)
REMARK    1  A    between atoms: C_2  and  C_3 
REMARK    2  A    between atoms: C_3  and  N_4 
REMARK    3  A    between atoms: C_3  and  C_17 
REMARK       I    between atoms: N_4  and  C_5 
REMARK    4  A    between atoms: C_5  and  C_6 
ROOT
HETATM    1  N   UNL     1      43.011 -15.082   5.071  1.00  0.00    -0.345 N 
HETATM    2  C   UNL     1      43.209 -15.478   3.760  1.00  0.00     0.252 C 
HETATM    3  O   UNL     1      43.104 -14.694   2.822  1.00  0.00    -0.268 OA
HETATM    4  H   UNL     1      43.343 -15.719   5.786  1.00  0.00     0.163 HD
ENDROOT
BRANCH   1   5
HETATM    5  C   UNL     1      42.933 -13.660   5.416  1.00  0.00     0.152 C 
BRANCH   5   6
HETATM    6  C   UNL     1      43.698 -13.356   6.710  1.00  0.00     0.028 C 
HETATM    7  C   UNL     1      45.035 -14.080   6.796  1.00  0.00     0.007 C 
ENDBRANCH   5   6
BRANCH   5   8
HETATM    8  C   UNL     1      41.473 -13.190   5.444  1.00  0.00     0.104 A 
HETATM    9  N   UNL     1      40.861 -12.298   4.644  1.00  0.00    -0.347 N 
HETATM   10  H   UNL     1      41.323 -11.790   3.894  1.00  0.00     0.167 HD
HETATM   11  C   UNL     1      39.516 -12.157   4.974  1.00  0.00     0.022 A 
HETATM   12  C   UNL     1      38.598 -11.257   4.257  1.00  0.00     0.069 C 
HETATM   13  C   UNL     1      39.318 -12.999   6.039  1.00  0.00     0.114 A 
HETATM   14  N   UNL     1      40.519 -13.600   6.295  1.00  0.00    -0.352 N 
HETATM   15  H   UNL     1      40.746 -14.251   7.061  1.00  0.00     0.166 HD
ENDBRANCH   5   8
ENDBRANCH   1   5
BRANCH   2  16
HETATM   16  C   UNL     1      43.603 -16.898   3.545  1.00  0.00     0.033 A 
HETATM   17  C   UNL     1      43.888 -17.677   4.683  1.00  0.00     0.031 A 
HETATM   18  C   UNL     1      44.198 -19.038   4.508  1.00  0.00     0.001 A 
HETATM   19  C   UNL     1      44.231 -19.550   3.218  1.00  0.00     0.086 A 
HETATM   20  C   UNL     1      44.502 -20.129   5.364  1.00  0.00     0.046 A 
HETATM   21  O   UNL     1      44.528 -20.877   3.243  1.00  0.00    -0.315 OA
HETATM   22  C   UNL     1      43.990 -18.802   2.068  1.00  0.00     0.039 A 
HETATM   23  C   UNL     1      44.684 -21.228   4.550  1.00  0.00     0.050 A 
HETATM   24  C   UNL     1      44.993 -22.647   4.820  1.00  0.00     0.077 C 
HETATM   25  C   UNL     1      43.674 -17.451   2.257  1.00  0.00     0.020 A 
ENDBRANCH   2  16
TORSDOF 4
ENDMDL
MODEL 7
REMARK VINA RESULT:      -7.4      3.295      9.019
REMARK  4 active torsions:
REMARK  status: ('A' for Active; 'I' for Inactive)
REMARK    1  A    between atoms: C_2  and  C_3 
REMARK    2  A    between atoms: C_3  and  N_4 
REMARK    3  A    between atoms: C_3  and  C_17 
REMARK       I    between atoms: N_4  and  C_5 
REMARK    4  A    between atoms: C_5  and  C_6 
ROOT
HETATM    1  N   UNL     1      44.012 -13.580   7.889  1.00  0.00    -0.345 N 
HETATM    2  C   UNL     1      44.899 -12.761   8.564  1.00  0.00     0.252 C 
HETATM    3  O   UNL     1      46.114 -12.863   8.421  1.00  0.00    -0.268 OA
HETATM    4  H   UNL     1      43.044 -13.281   7.880  1.00  0.00     0.163 HD
ENDROOT
BRANCH   1   5
HETATM    5  C   UNL     1      44.470 -14.419   6.778  1.00  0.00     0.152 C 
BRANCH   5   6
HETATM    6  C   UNL     1      43.954 -13.895   5.432  1.00  0.00     0.028 C 
HETATM    7  C   UNL     1      42.555 -13.302   5.521  1.00  0.00     0.007 C 
ENDBRANCH   5   6
BRANCH   5   8
HETATM    8  C   UNL     1      44.123 -15.892   7.033  1.00  0.00     0.104 A 
HETATM    9  N   UNL     1      44.453 -16.972   6.302  1.00  0.00    -0.347 N 
HETATM   10  H   UNL     1      44.987 -16.937   5.438  1.00  0.00     0.167 HD
HETATM   11  C   UNL     1      43.968 -18.144   6.878  1.00  0.00     0.022 A 
HETATM   12  C   UNL     1      44.189 -19.479   6.301  1.00  0.00     0.069 C 
HETATM   13  C   UNL     1      43.300 -17.738   8.006  1.00  0.00     0.114 A 
HETATM   14  N   UNL     1      43.413 -16.377   8.063  1.00  0.00    -0.352 N 
HETATM   15  H   UNL     1      42.983 -15.739   8.749  1.00  0.00     0.166 HD
ENDBRANCH   5   8
ENDBRANCH   1   5
BRANCH   2  16
HETATM   16  C   UNL     1      44.305 -11.715   9.440  1.00  0.00     0.033 A 
HETATM   17  C   UNL     1      43.150 -11.055   8.980  1.00  0.00     0.031 A 
HETATM   18  C   UNL     1      42.533 -10.110   9.820  1.00  0.00     0.001 A 
HETATM   19  C   UNL     1      43.104  -9.851  11.059  1.00  0.00     0.086 A 
HETATM   20  C   UNL     1      41.381  -9.283   9.745  1.00  0.00     0.046 A 
HETATM   21  O   UNL     1      42.367  -8.930  11.736  1.00  0.00    -0.315 OA
HETATM   22  C   UNL     1      44.265 -10.457  11.531  1.00  0.00     0.039 A 
HETATM   23  C   UNL     1      41.315  -8.592  10.938  1.00  0.00     0.050 A 
HETATM   24  C   UNL     1      40.359  -7.610  11.487  1.00  0.00     0.077 C 
HETATM   25  C   UNL     1      44.863 -11.403  10.690  1.00  0.00     0.020 A 
ENDBRANCH   2  16
TORSDOF 4
ENDMDL
MODEL 8
REMARK VINA RESULT:      -7.0      3.027      4.364
REMARK  4 active torsions:
REMARK  status: ('A' for Active; 'I' for Inactive)
REMARK    1  A    between atoms: C_2  and  C_3 
REMARK    2  A    between atoms: C_3  and  N_4 
REMARK    3  A    between atoms: C_3  and  C_17 
REMARK       I    between atoms: N_4  and  C_5 
REMARK    4  A    between atoms: C_5  and  C_6 
ROOT
HETATM    1  N   UNL     1      42.340 -14.936   3.767  1.00  0.00    -0.345 N 
HETATM    2  C   UNL     1      43.040 -15.545   4.793  1.00  0.00     0.252 C 
HETATM    3  O   UNL     1      43.276 -14.968   5.850  1.00  0.00    -0.268 OA
HETATM    4  H   UNL     1      41.989 -15.547   3.039  1.00  0.00     0.163 HD
ENDROOT
BRANCH   1   5
HETATM    5  C   UNL     1      41.622 -13.679   3.998  1.00  0.00     0.152 C 
BRANCH   5   6
HETATM    6  C   UNL     1      40.209 -13.934   4.536  1.00  0.00     0.028 C 
HETATM    7  C   UNL     1      40.021 -13.455   5.970  1.00  0.00     0.007 C 
ENDBRANCH   5   6
BRANCH   5   8
HETATM    8  C   UNL     1      41.647 -12.802   2.739  1.00  0.00     0.104 A 
HETATM    9  N   UNL     1      41.296 -11.510   2.608  1.00  0.00    -0.347 N 
HETATM   10  H   UNL     1      40.939 -10.934   3.366  1.00  0.00     0.167 HD
HETATM   11  C   UNL     1      41.484 -11.061   1.303  1.00  0.00     0.022 A 
HETATM   12  C   UNL     1      41.194  -9.685   0.873  1.00  0.00     0.069 C 
HETATM   13  C   UNL     1      41.957 -12.151   0.615  1.00  0.00     0.114 A 
HETATM   14  N   UNL     1      42.038 -13.179   1.512  1.00  0.00    -0.352 N 
HETATM   15  H   UNL     1      42.303 -14.157   1.325  1.00  0.00     0.166 HD
ENDBRANCH   5   8
ENDBRANCH   1   5
BRANCH   2  16
HETATM   16  C   UNL     1      43.455 -16.957   4.570  1.00  0.00     0.033 A 
HETATM   17  C   UNL     1      43.128 -17.547   3.335  1.00  0.00     0.031 A 
HETATM   18  C   UNL     1      43.567 -18.858   3.076  1.00  0.00     0.001 A 
HETATM   19  C   UNL     1      44.286 -19.523   4.061  1.00  0.00     0.086 A 
HETATM   20  C   UNL     1      43.479 -19.763   1.986  1.00  0.00     0.046 A 
HETATM   21  O   UNL     1      44.641 -20.764   3.631  1.00  0.00    -0.315 OA
HETATM   22  C   UNL     1      44.596 -18.984   5.307  1.00  0.00     0.039 A 
HETATM   23  C   UNL     1      44.156 -20.904   2.366  1.00  0.00     0.050 A 
HETATM   24  C   UNL     1      44.445 -22.183   1.686  1.00  0.00     0.077 C 
HETATM   25  C   UNL     1      44.161 -17.675   5.548  1.00  0.00     0.020 A 
ENDBRANCH   2  16
TORSDOF 4
ENDMDL
MODEL 9
REMARK VINA RESULT:      -6.8      5.037      8.431
REMARK  4 active torsions:
REMARK  status: ('A' for Active; 'I' for Inactive)
REMARK    1  A    between atoms: C_2  and  C_3 
REMARK    2  A    between atoms: C_3  and  N_4 
REMARK    3  A    between atoms: C_3  and  C_17 
REMARK       I    between atoms: N_4  and  C_5 
REMARK    4  A    between atoms: C_5  and  C_6 
ROOT
HETATM    1  N   UNL     1      42.602 -16.571   1.878  1.00  0.00    -0.345 N 
HETATM    2  C   UNL     1      41.410 -16.376   1.204  1.00  0.00     0.252 C 
HETATM    3  O   UNL     1      40.370 -16.926   1.552  1.00  0.00    -0.268 OA
HETATM    4  H   UNL     1      43.344 -15.910   1.677  1.00  0.00     0.163 HD
ENDROOT
BRANCH   1   5
HETATM    5  C   UNL     1      42.619 -17.226   3.189  1.00  0.00     0.152 C 
BRANCH   5   6
HETATM    6  C   UNL     1      43.206 -16.307   4.266  1.00  0.00     0.028 C 
HETATM    7  C   UNL     1      42.371 -15.056   4.502  1.00  0.00     0.007 C 
ENDBRANCH   5   6
BRANCH   5   8
HETATM    8  C   UNL     1      43.316 -18.591   3.102  1.00  0.00     0.104 A 
HETATM    9  N   UNL     1      43.147 -19.565   2.191  1.00  0.00    -0.347 N 
HETATM   10  H   UNL     1      42.490 -19.517   1.417  1.00  0.00     0.167 HD
HETATM   11  C   UNL     1      43.985 -20.648   2.441  1.00  0.00     0.022 A 
HETATM   12  C   UNL     1      44.023 -21.853   1.598  1.00  0.00     0.069 C 
HETATM   13  C   UNL     1      44.681 -20.307   3.575  1.00  0.00     0.114 A 
HETATM   14  N   UNL     1      44.248 -19.064   3.944  1.00  0.00    -0.352 N 
HETATM   15  H   UNL     1      44.520 -18.527   4.781  1.00  0.00     0.166 HD
ENDBRANCH   5   8
ENDBRANCH   1   5
BRANCH   2  16
HETATM   16  C   UNL     1      41.440 -15.425   0.059  1.00  0.00     0.033 A 
HETATM   17  C   UNL     1      41.899 -14.118   0.307  1.00  0.00     0.031 A 
HETATM   18  C   UNL     1      41.998 -13.222  -0.773  1.00  0.00     0.001 A 
HETATM   19  C   UNL     1      41.617 -13.659  -2.035  1.00  0.00     0.086 A 
HETATM   20  C   UNL     1      42.428 -11.879  -0.944  1.00  0.00     0.046 A 
HETATM   21  O   UNL     1      41.797 -12.671  -2.953  1.00  0.00    -0.315 OA
HETATM   22  C   UNL     1      41.124 -14.932  -2.310  1.00  0.00     0.039 A 
HETATM   23  C   UNL     1      42.298 -11.592  -2.288  1.00  0.00     0.050 A 
HETATM   24  C   UNL     1      42.594 -10.395  -3.100  1.00  0.00     0.077 C 
HETATM   25  C   UNL     1      41.040 -15.817  -1.228  1.00  0.00     0.020 A 
ENDBRANCH   2  16
TORSDOF 4
ENDMDL
MODEL 10
REMARK VINA RESULT:      -6.7      3.800      6.499
REMARK  4 active torsions:
REMARK  status: ('A' for Active; 'I' for Inactive)
REMARK    1  A    between atoms: C_2  and  C_3 
REMARK    2  A    between atoms: C_3  and  N_4 
REMARK    3  A    between atoms: C_3  and  C_17 
REMARK       I    between atoms: N_4  and  C_5 
REMARK    4  A    between atoms: C_5  and  C_6 
ROOT
HETATM    1  N   UNL     1      42.680 -17.085   5.155  1.00  0.00    -0.345 N 
HETATM    2  C   UNL     1      41.422 -16.521   5.042  1.00  0.00     0.252 C 
HETATM    3  O   UNL     1      40.634 -16.497   5.982  1.00  0.00    -0.268 OA
HETATM    4  H   UNL     1      43.341 -16.857   4.422  1.00  0.00     0.163 HD
ENDROOT
BRANCH   1   5
HETATM    5  C   UNL     1      43.223 -17.437   6.470  1.00  0.00     0.152 C 
BRANCH   5   6
HETATM    6  C   UNL     1      44.406 -16.536   6.845  1.00  0.00     0.028 C 
HETATM    7  C   UNL     1      44.115 -15.055   6.640  1.00  0.00     0.007 C 
ENDBRANCH   5   6
BRANCH   5   8
HETATM    8  C   UNL     1      43.551 -18.935   6.537  1.00  0.00     0.104 A 
HETATM    9  N   UNL     1      44.050 -19.730   5.574  1.00  0.00    -0.347 N 
HETATM   10  H   UNL     1      44.268 -19.419   4.631  1.00  0.00     0.167 HD
HETATM   11  C   UNL     1      44.231 -21.032   6.032  1.00  0.00     0.022 A 
HETATM   12  C   UNL     1      44.775 -22.114   5.196  1.00  0.00     0.069 C 
HETATM   13  C   UNL     1      43.801 -21.016   7.335  1.00  0.00     0.114 A 
HETATM   14  N   UNL     1      43.396 -19.737   7.601  1.00  0.00    -0.352 N 
HETATM   15  H   UNL     1      42.966 -19.382   8.467  1.00  0.00     0.166 HD
ENDBRANCH   5   8
ENDBRANCH   1   5
BRANCH   2  16
HETATM   16  C   UNL     1      41.086 -15.898   3.732  1.00  0.00     0.033 A 
HETATM   17  C   UNL     1      41.664 -16.456   2.576  1.00  0.00     0.031 A 
HETATM   18  C   UNL     1      41.310 -15.926   1.322  1.00  0.00     0.001 A 
HETATM   19  C   UNL     1      40.421 -14.860   1.279  1.00  0.00     0.086 A 
HETATM   20  C   UNL     1      41.631 -16.215  -0.031  1.00  0.00     0.046 A 
HETATM   21  O   UNL     1      40.182 -14.494  -0.009  1.00  0.00    -0.315 OA
HETATM   22  C   UNL     1      39.859 -14.260   2.403  1.00  0.00     0.039 A 
HETATM   23  C   UNL     1      40.913 -15.325  -0.804  1.00  0.00     0.050 A 
HETATM   24  C   UNL     1      40.789 -15.122  -2.262  1.00  0.00     0.077 C 
HETATM   25  C   UNL     1      40.213 -14.803   3.644  1.00  0.00     0.020 A 
ENDBRANCH   2  16
TORSDOF 4
ENDMDL
