MODEL 1
REMARK VINA RESULT:      -9.6      0.000      0.000
REMARK  6 active torsions:
REMARK  status: ('A' for Active; 'I' for Inactive)
REMARK    1  A    between atoms: C_4  and  C_5 
REMARK    2  A    between atoms: C_5  and  N_6 
REMARK    3  A    between atoms: C_10  and  C_11 
REMARK    4  A    between atoms: C_11  and  C_12 
REMARK    5  A    between atoms: N_21  and  C_22 
REMARK    6  A    between atoms: C_22  and  C_23 
ROOT
HETATM    1  C   UNL     1      40.257 -14.483   2.403  1.00  0.00     0.164 C 
HETATM    2  N   UNL     1      39.837 -15.148   3.633  1.00  0.00    -0.319 N 
HETATM    3  C   UNL     1      40.364 -14.558   4.757  1.00  0.00     0.326 C 
HETATM    4  O   UNL     1      40.001 -14.795   5.895  1.00  0.00    -0.247 OA
HETATM    5  N   UNL     1      41.339 -13.698   4.371  1.00  0.00    -0.265 N 
HETATM    6  C   UNL     1      41.352 -13.585   3.011  1.00  0.00     0.263 C 
HETATM    7  O   UNL     1      42.141 -12.910   2.359  1.00  0.00    -0.270 OA
HETATM    8  H   UNL     1      38.939 -15.617   3.707  1.00  0.00     0.166 HD
ENDROOT
BRANCH   1   9
HETATM    9  C   UNL     1      40.782 -15.553   1.378  1.00  0.00     0.033 C 
HETATM   10  C   UNL     1      40.441 -17.017   1.703  1.00  0.00     0.036 C 
HETATM   11  C   UNL     1      41.315 -17.658   2.769  1.00  0.00     0.235 C 
HETATM   12  N   UNL     1      42.788 -17.446   2.522  1.00  0.00    -0.067 N 
HETATM   13  H   UNL     1      43.046 -18.113   1.786  1.00  0.00     0.280 HD
HETATM   14  C   UNL     1      43.215 -16.075   2.055  1.00  0.00     0.235 C 
HETATM   15  C   UNL     1      42.275 -15.497   1.014  1.00  0.00     0.036 C 
BRANCH  12  16
HETATM   16  C   UNL     1      43.624 -17.824   3.749  1.00  0.00     0.274 C 
BRANCH  16  17
HETATM   17  C   UNL     1      43.995 -19.284   3.833  1.00  0.00    -0.026 A 
HETATM   18  C   UNL     1      43.953 -20.053   2.649  1.00  0.00     0.016 A 
HETATM   19  C   UNL     1      44.340 -21.396   2.634  1.00  0.00    -0.061 A 
HETATM   20  C   UNL     1      44.306 -22.203   1.369  1.00  0.00     0.048 C 
HETATM   21  C   UNL     1      44.748 -21.988   3.828  1.00  0.00     0.007 A 
HETATM   22  C   UNL     1      44.772 -21.251   5.014  1.00  0.00     0.008 A 
HETATM   23  C   UNL     1      44.409 -19.895   5.033  1.00  0.00    -0.054 A 
HETATM   24  C   UNL     1      44.400 -19.174   6.353  1.00  0.00     0.049 C 
ENDBRANCH  16  17
ENDBRANCH  12  16
ENDBRANCH   1   9
BRANCH   1  25
HETATM   25  C   UNL     1      39.059 -13.705   1.857  1.00  0.00     0.072 A 
HETATM   26  N   UNL     1      39.005 -12.397   2.236  1.00  0.00    -0.262 NA
HETATM   27  C   UNL     1      37.999 -11.634   1.752  1.00  0.00     0.117 A 
HETATM   28  C   UNL     1      37.016 -12.110   0.908  1.00  0.00     0.019 A 
HETATM   29  C   UNL     1      37.070 -13.446   0.531  1.00  0.00     0.003 A 
HETATM   30  C   UNL     1      38.102 -14.256   1.005  1.00  0.00     0.030 A 
ENDBRANCH   1  25
BRANCH   5  31
HETATM   31  C   UNL     1      42.162 -12.914   5.275  1.00  0.00     0.168 C 
BRANCH  31  32
HETATM   32  C   UNL     1      43.506 -13.587   5.577  1.00  0.00     0.140 C 
HETATM   33  O   UNL     1      43.366 -15.024   5.525  1.00  0.00    -0.384 OA
HETATM   34  C   UNL     1      43.832 -15.576   6.762  1.00  0.00     0.168 C 
HETATM   35  C   UNL     1      44.711 -14.520   7.388  1.00  0.00     0.029 C 
HETATM   36  C   UNL     1      44.010 -13.250   6.975  1.00  0.00     0.036 C 
ENDBRANCH  31  32
ENDBRANCH   5  31
TORSDOF 6
ENDMDL
MODEL 2
REMARK VINA RESULT:      -9.4      2.076      2.736
REMARK  6 active torsions:
REMARK  status: ('A' for Active; 'I' for Inactive)
REMARK    1  A    between atoms: C_4  and  C_5 
REMARK    2  A    between atoms: C_5  and  N_6 
REMARK    3  A    between atoms: C_10  and  C_11 
REMARK    4  A    between atoms: C_11  and  C_12 
REMARK    5  A    between atoms: N_21  and  C_22 
REMARK    6  A    between atoms: C_22  and  C_23 
ROOT
HETATM    1  C   UNL     1      40.906 -13.915   0.976  1.00  0.00     0.164 C 
HETATM    2  N   UNL     1      39.694 -13.215   1.393  1.00  0.00    -0.319 N 
HETATM    3  C   UNL     1      39.892 -12.441   2.512  1.00  0.00     0.326 C 
HETATM    4  O   UNL     1      39.102 -11.611   2.924  1.00  0.00    -0.247 OA
HETATM    5  N   UNL     1      41.089 -12.773   3.055  1.00  0.00    -0.265 N 
HETATM    6  C   UNL     1      41.758 -13.629   2.228  1.00  0.00     0.263 C 
HETATM    7  O   UNL     1      42.851 -14.134   2.457  1.00  0.00    -0.270 OA
HETATM    8  H   UNL     1      38.985 -12.929   0.725  1.00  0.00     0.166 HD
ENDROOT
BRANCH   1   9
HETATM    9  C   UNL     1      40.581 -15.435   0.737  1.00  0.00     0.033 C 
HETATM   10  C   UNL     1      40.117 -16.223   1.973  1.00  0.00     0.036 C 
HETATM   11  C   UNL     1      41.228 -16.643   2.921  1.00  0.00     0.235 C 
HETATM   12  N   UNL     1      42.383 -17.303   2.212  1.00  0.00    -0.067 N 
HETATM   13  H   UNL     1      42.076 -18.262   2.010  1.00  0.00     0.280 HD
HETATM   14  C   UNL     1      42.828 -16.691   0.906  1.00  0.00     0.235 C 
HETATM   15  C   UNL     1      41.660 -16.275   0.032  1.00  0.00     0.036 C 
BRANCH  12  16
HETATM   16  C   UNL     1      43.605 -17.435   3.128  1.00  0.00     0.274 C 
BRANCH  16  17
HETATM   17  C   UNL     1      43.999 -18.855   3.452  1.00  0.00    -0.026 A 
HETATM   18  C   UNL     1      43.937 -19.817   2.419  1.00  0.00     0.016 A 
HETATM   19  C   UNL     1      44.343 -21.138   2.625  1.00  0.00    -0.061 A 
HETATM   20  C   UNL     1      44.287 -22.152   1.520  1.00  0.00     0.048 C 
HETATM   21  C   UNL     1      44.792 -21.511   3.892  1.00  0.00     0.007 A 
HETATM   22  C   UNL     1      44.837 -20.580   4.931  1.00  0.00     0.008 A 
HETATM   23  C   UNL     1      44.454 -19.245   4.727  1.00  0.00    -0.054 A 
HETATM   24  C   UNL     1      44.470 -18.307   5.902  1.00  0.00     0.049 C 
ENDBRANCH  16  17
ENDBRANCH  12  16
ENDBRANCH   1   9
BRANCH   1  25
HETATM   25  C   UNL     1      41.428 -13.234  -0.290  1.00  0.00     0.072 A 
HETATM   26  N   UNL     1      42.391 -12.293  -0.079  1.00  0.00    -0.262 NA
HETATM   27  C   UNL     1      42.934 -11.683  -1.156  1.00  0.00     0.117 A 
HETATM   28  C   UNL     1      42.559 -11.952  -2.457  1.00  0.00     0.019 A 
HETATM   29  C   UNL     1      41.571 -12.906  -2.667  1.00  0.00     0.003 A 
HETATM   30  C   UNL     1      40.999 -13.559  -1.577  1.00  0.00     0.030 A 
ENDBRANCH   1  25
BRANCH   5  31
HETATM   31  C   UNL     1      41.635 -12.203   4.274  1.00  0.00     0.168 C 
BRANCH  31  32
HETATM   32  C   UNL     1      41.338 -13.063   5.507  1.00  0.00     0.140 C 
HETATM   33  O   UNL     1      42.497 -13.851   5.857  1.00  0.00    -0.384 OA
HETATM   34  C   UNL     1      42.113 -15.231   5.914  1.00  0.00     0.168 C 
HETATM   35  C   UNL     1      40.612 -15.243   6.078  1.00  0.00     0.029 C 
HETATM   36  C   UNL     1      40.202 -14.048   5.254  1.00  0.00     0.036 C 
ENDBRANCH  31  32
ENDBRANCH   5  31
TORSDOF 6
ENDMDL
MODEL 3
REMARK VINA RESULT:      -9.4      2.464      4.814
REMARK  6 active torsions:
REMARK  status: ('A' for Active; 'I' for Inactive)
REMARK    1  A    between atoms: C_4  and  C_5 
REMARK    2  A    between atoms: C_5  and  N_6 
REMARK    3  A    between atoms: C_10  and  C_11 
REMARK    4  A    between atoms: C_11  and  C_12 
REMARK    5  A    between atoms: N_21  and  C_22 
REMARK    6  A    between atoms: C_22  and  C_23 
ROOT
HETATM    1  C   UNL     1      40.113 -13.240   2.513  1.00  0.00     0.164 C 
HETATM    2  N   UNL     1      41.474 -13.334   1.993  1.00  0.00    -0.319 N 
HETATM    3  C   UNL     1      41.594 -12.797   0.733  1.00  0.00     0.326 C 
HETATM    4  O   UNL     1      42.654 -12.570   0.179  1.00  0.00    -0.247 OA
HETATM    5  N   UNL     1      40.349 -12.586   0.239  1.00  0.00    -0.265 N 
HETATM    6  C   UNL     1      39.415 -12.815   1.207  1.00  0.00     0.263 C 
HETATM    7  O   UNL     1      38.200 -12.741   1.059  1.00  0.00    -0.270 OA
HETATM    8  H   UNL     1      42.283 -13.318   2.607  1.00  0.00     0.166 HD
ENDROOT
BRANCH   1   9
HETATM    9  C   UNL     1      39.664 -14.640   3.071  1.00  0.00     0.033 C 
HETATM   10  C   UNL     1      40.282 -15.055   4.417  1.00  0.00     0.036 C 
HETATM   11  C   UNL     1      41.706 -15.581   4.335  1.00  0.00     0.235 C 
HETATM   12  N   UNL     1      41.880 -16.632   3.268  1.00  0.00    -0.067 N 
HETATM   13  H   UNL     1      41.492 -17.497   3.662  1.00  0.00     0.280 HD
HETATM   14  C   UNL     1      41.189 -16.391   1.948  1.00  0.00     0.235 C 
HETATM   15  C   UNL     1      39.786 -15.842   2.118  1.00  0.00     0.036 C 
BRANCH  12  16
HETATM   16  C   UNL     1      43.361 -16.919   2.997  1.00  0.00     0.274 C 
BRANCH  16  17
HETATM   17  C   UNL     1      43.810 -18.313   3.361  1.00  0.00    -0.026 A 
HETATM   18  C   UNL     1      43.713 -19.323   2.379  1.00  0.00     0.016 A 
HETATM   19  C   UNL     1      44.164 -20.623   2.621  1.00  0.00    -0.061 A 
HETATM   20  C   UNL     1      44.071 -21.689   1.568  1.00  0.00     0.048 C 
HETATM   21  C   UNL     1      44.695 -20.926   3.875  1.00  0.00     0.007 A 
HETATM   22  C   UNL     1      44.775 -19.946   4.866  1.00  0.00     0.008 A 
HETATM   23  C   UNL     1      44.347 -18.631   4.624  1.00  0.00    -0.054 A 
HETATM   24  C   UNL     1      44.405 -17.639   5.753  1.00  0.00     0.049 C 
ENDBRANCH  16  17
ENDBRANCH  12  16
ENDBRANCH   1   9
BRANCH   1  25
HETATM   25  C   UNL     1      40.099 -12.160   3.597  1.00  0.00     0.072 A 
HETATM   26  N   UNL     1      41.330 -11.747   4.010  1.00  0.00    -0.262 NA
HETATM   27  C   UNL     1      41.395 -10.760   4.932  1.00  0.00     0.117 A 
HETATM   28  C   UNL     1      40.284 -10.157   5.487  1.00  0.00     0.019 A 
HETATM   29  C   UNL     1      39.031 -10.587   5.068  1.00  0.00     0.003 A 
HETATM   30  C   UNL     1      38.931 -11.597   4.111  1.00  0.00     0.030 A 
ENDBRANCH   1  25
BRANCH   5  31
HETATM   31  C   UNL     1      40.058 -12.066  -1.086  1.00  0.00     0.168 C 
BRANCH  31  32
HETATM   32  C   UNL     1      39.986 -13.172  -2.145  1.00  0.00     0.140 C 
HETATM   33  O   UNL     1      39.835 -14.461  -1.511  1.00  0.00    -0.384 OA
HETATM   34  C   UNL     1      40.879 -15.326  -1.973  1.00  0.00     0.168 C 
HETATM   35  C   UNL     1      41.386 -14.722  -3.261  1.00  0.00     0.029 C 
HETATM   36  C   UNL     1      41.260 -13.245  -2.979  1.00  0.00     0.036 C 
ENDBRANCH  31  32
ENDBRANCH   5  31
TORSDOF 6
ENDMDL
MODEL 4
REMARK VINA RESULT:      -9.2      2.104      4.798
REMARK  6 active torsions:
REMARK  status: ('A' for Active; 'I' for Inactive)
REMARK    1  A    between atoms: C_4  and  C_5 
REMARK    2  A    between atoms: C_5  and  N_6 
REMARK    3  A    between atoms: C_10  and  C_11 
REMARK    4  A    between atoms: C_11  and  C_12 
REMARK    5  A    between atoms: N_21  and  C_22 
REMARK    6  A    between atoms: C_22  and  C_23 
ROOT
HETATM    1  C   UNL     1      41.112 -15.507   3.458  1.00  0.00     0.164 C 
HETATM    2  N   UNL     1      39.783 -15.584   2.858  1.00  0.00    -0.319 N 
HETATM    3  C   UNL     1      39.454 -14.448   2.159  1.00  0.00     0.326 C 
HETATM    4  O   UNL     1      38.502 -14.353   1.406  1.00  0.00    -0.247 OA
HETATM    5  N   UNL     1      40.357 -13.483   2.464  1.00  0.00    -0.265 N 
HETATM    6  C   UNL     1      41.366 -14.006   3.219  1.00  0.00     0.263 C 
HETATM    7  O   UNL     1      42.312 -13.378   3.679  1.00  0.00    -0.270 OA
HETATM    8  H   UNL     1      39.381 -16.469   2.563  1.00  0.00     0.166 HD
ENDROOT
BRANCH   1   9
HETATM    9  C   UNL     1      41.032 -15.925   4.972  1.00  0.00     0.033 C 
HETATM   10  C   UNL     1      42.132 -15.355   5.883  1.00  0.00     0.036 C 
HETATM   11  C   UNL     1      43.473 -16.063   5.792  1.00  0.00     0.235 C 
HETATM   12  N   UNL     1      43.351 -17.563   5.899  1.00  0.00    -0.067 N 
HETATM   13  H   UNL     1      43.217 -17.762   6.897  1.00  0.00     0.280 HD
HETATM   14  C   UNL     1      42.210 -18.213   5.155  1.00  0.00     0.235 C 
HETATM   15  C   UNL     1      40.917 -17.429   5.274  1.00  0.00     0.036 C 
BRANCH  12  16
HETATM   16  C   UNL     1      44.654 -18.264   5.499  1.00  0.00     0.274 C 
BRANCH  16  17
HETATM   17  C   UNL     1      44.505 -19.726   5.160  1.00  0.00    -0.026 A 
HETATM   18  C   UNL     1      44.643 -20.115   3.809  1.00  0.00     0.016 A 
HETATM   19  C   UNL     1      44.578 -21.457   3.424  1.00  0.00    -0.061 A 
HETATM   20  C   UNL     1      44.741 -21.865   1.989  1.00  0.00     0.048 C 
HETATM   21  C   UNL     1      44.342 -22.423   4.402  1.00  0.00     0.007 A 
HETATM   22  C   UNL     1      44.178 -22.055   5.738  1.00  0.00     0.008 A 
HETATM   23  C   UNL     1      44.266 -20.712   6.138  1.00  0.00    -0.054 A 
HETATM   24  C   UNL     1      44.020 -20.376   7.583  1.00  0.00     0.049 C 
ENDBRANCH  16  17
ENDBRANCH  12  16
ENDBRANCH   1   9
BRANCH   1  25
HETATM   25  C   UNL     1      42.042 -16.422   2.659  1.00  0.00     0.072 A 
HETATM   26  N   UNL     1      41.425 -17.474   2.051  1.00  0.00    -0.262 NA
HETATM   27  C   UNL     1      42.177 -18.300   1.287  1.00  0.00     0.117 A 
HETATM   28  C   UNL     1      43.536 -18.142   1.100  1.00  0.00     0.019 A 
HETATM   29  C   UNL     1      44.161 -17.072   1.728  1.00  0.00     0.003 A 
HETATM   30  C   UNL     1      43.411 -16.198   2.515  1.00  0.00     0.030 A 
ENDBRANCH   1  25
BRANCH   5  31
HETATM   31  C   UNL     1      40.323 -12.123   1.956  1.00  0.00     0.168 C 
BRANCH  31  32
HETATM   32  C   UNL     1      40.944 -12.003   0.559  1.00  0.00     0.140 C 
HETATM   33  O   UNL     1      42.333 -11.621   0.663  1.00  0.00    -0.384 OA
HETATM   34  C   UNL     1      42.545 -10.442  -0.123  1.00  0.00     0.168 C 
HETATM   35  C   UNL     1      41.397 -10.378  -1.102  1.00  0.00     0.029 C 
HETATM   36  C   UNL     1      40.260 -10.929  -0.279  1.00  0.00     0.036 C 
ENDBRANCH  31  32
ENDBRANCH   5  31
TORSDOF 6
ENDMDL
MODEL 5
REMARK VINA RESULT:      -9.2      1.806      2.604
REMARK  6 active torsions:
REMARK  status: ('A' for Active; 'I' for Inactive)
REMARK    1  A    between atoms: C_4  and  C_5 
REMARK    2  A    between atoms: C_5  and  N_6 
REMARK    3  A    between atoms: C_10  and  C_11 
REMARK    4  A    between atoms: C_11  and  C_12 
REMARK    5  A    between atoms: N_21  and  C_22 
REMARK    6  A    between atoms: C_22  and  C_23 
ROOT
HETATM    1  C   UNL     1      40.818 -14.588   1.652  1.00  0.00     0.164 C 
HETATM    2  N   UNL     1      39.863 -14.021   2.600  1.00  0.00    -0.319 N 
HETATM    3  C   UNL     1      40.477 -13.333   3.618  1.00  0.00     0.326 C 
HETATM    4  O   UNL     1      39.899 -12.604   4.404  1.00  0.00    -0.247 OA
HETATM    5  N   UNL     1      41.803 -13.618   3.587  1.00  0.00    -0.265 N 
HETATM    6  C   UNL     1      42.100 -14.346   2.472  1.00  0.00     0.263 C 
HETATM    7  O   UNL     1      43.207 -14.784   2.180  1.00  0.00    -0.270 OA
HETATM    8  H   UNL     1      38.931 -13.735   2.313  1.00  0.00     0.166 HD
ENDROOT
BRANCH   1   9
HETATM    9  C   UNL     1      40.476 -16.103   1.402  1.00  0.00     0.033 C 
HETATM   10  C   UNL     1      40.353 -16.979   2.659  1.00  0.00     0.036 C 
HETATM   11  C   UNL     1      41.675 -17.412   3.272  1.00  0.00     0.235 C 
HETATM   12  N   UNL     1      42.630 -17.986   2.256  1.00  0.00    -0.067 N 
HETATM   13  H   UNL     1      42.303 -18.942   2.074  1.00  0.00     0.280 HD
HETATM   14  C   UNL     1      42.720 -17.282   0.924  1.00  0.00     0.235 C 
HETATM   15  C   UNL     1      41.362 -16.860   0.397  1.00  0.00     0.036 C 
BRANCH  12  16
HETATM   16  C   UNL     1      44.045 -18.126   2.829  1.00  0.00     0.274 C 
BRANCH  16  17
HETATM   17  C   UNL     1      44.191 -19.184   3.895  1.00  0.00    -0.026 A 
HETATM   18  C   UNL     1      44.017 -18.801   5.243  1.00  0.00     0.016 A 
HETATM   19  C   UNL     1      44.077 -19.734   6.281  1.00  0.00    -0.061 A 
HETATM   20  C   UNL     1      43.876 -19.324   7.711  1.00  0.00     0.048 C 
HETATM   21  C   UNL     1      44.344 -21.067   5.970  1.00  0.00     0.007 A 
HETATM   22  C   UNL     1      44.544 -21.459   4.645  1.00  0.00     0.008 A 
HETATM   23  C   UNL     1      44.462 -20.533   3.593  1.00  0.00    -0.054 A 
HETATM   24  C   UNL     1      44.746 -21.009   2.195  1.00  0.00     0.049 C 
ENDBRANCH  16  17
ENDBRANCH  12  16
ENDBRANCH   1   9
BRANCH   1  25
HETATM   25  C   UNL     1      40.747 -13.765   0.365  1.00  0.00     0.072 A 
HETATM   26  N   UNL     1      41.867 -13.040   0.088  1.00  0.00    -0.262 NA
HETATM   27  C   UNL     1      41.896 -12.324  -1.059  1.00  0.00     0.117 A 
HETATM   28  C   UNL     1      40.848 -12.277  -1.958  1.00  0.00     0.019 A 
HETATM   29  C   UNL     1      39.706 -13.011  -1.666  1.00  0.00     0.003 A 
HETATM   30  C   UNL     1      39.650 -13.767  -0.496  1.00  0.00     0.030 A 
ENDBRANCH   1  25
BRANCH   5  31
HETATM   31  C   UNL     1      42.783 -13.113   4.532  1.00  0.00     0.168 C 
BRANCH  31  32
HETATM   32  C   UNL     1      42.819 -13.928   5.830  1.00  0.00     0.140 C 
HETATM   33  O   UNL     1      43.573 -13.222   6.841  1.00  0.00    -0.384 OA
HETATM   34  C   UNL     1      44.609 -14.085   7.327  1.00  0.00     0.168 C 
HETATM   35  C   UNL     1      44.189 -15.490   6.965  1.00  0.00     0.029 C 
HETATM   36  C   UNL     1      43.505 -15.275   5.638  1.00  0.00     0.036 C 
ENDBRANCH  31  32
ENDBRANCH   5  31
TORSDOF 6
ENDMDL
MODEL 6
REMARK VINA RESULT:      -9.0      2.795      7.302
REMARK  6 active torsions:
REMARK  status: ('A' for Active; 'I' for Inactive)
REMARK    1  A    between atoms: C_4  and  C_5 
REMARK    2  A    between atoms: C_5  and  N_6 
REMARK    3  A    between atoms: C_10  and  C_11 
REMARK    4  A    between atoms: C_11  and  C_12 
REMARK    5  A    between atoms: N_21  and  C_22 
REMARK    6  A    between atoms: C_22  and  C_23 
ROOT
HETATM    1  C   UNL     1      42.525 -16.842   3.081  1.00  0.00     0.164 C 
HETATM    2  N   UNL     1      43.363 -15.735   2.629  1.00  0.00    -0.319 N 
HETATM    3  C   UNL     1      43.378 -14.688   3.519  1.00  0.00     0.326 C 
HETATM    4  O   UNL     1      44.156 -13.752   3.468  1.00  0.00    -0.247 OA
HETATM    5  N   UNL     1      42.390 -14.885   4.426  1.00  0.00    -0.265 N 
HETATM    6  C   UNL     1      41.834 -16.118   4.253  1.00  0.00     0.263 C 
HETATM    7  O   UNL     1      40.895 -16.574   4.897  1.00  0.00    -0.270 OA
HETATM    8  H   UNL     1      44.180 -15.888   2.045  1.00  0.00     0.166 HD
ENDROOT
BRANCH   1   9
HETATM    9  C   UNL     1      41.560 -17.281   1.921  1.00  0.00     0.033 C 
HETATM   10  C   UNL     1      41.995 -16.884   0.500  1.00  0.00     0.036 C 
HETATM   11  C   UNL     1      41.729 -15.435   0.129  1.00  0.00     0.235 C 
HETATM   12  N   UNL     1      40.321 -14.999   0.447  1.00  0.00    -0.067 N 
HETATM   13  H   UNL     1      39.733 -15.388  -0.299  1.00  0.00     0.280 HD
HETATM   14  C   UNL     1      39.740 -15.460   1.762  1.00  0.00     0.235 C 
HETATM   15  C   UNL     1      40.075 -16.907   2.070  1.00  0.00     0.036 C 
BRANCH  12  16
HETATM   16  C   UNL     1      40.168 -13.477   0.355  1.00  0.00     0.274 C 
BRANCH  16  17
HETATM   17  C   UNL     1      40.843 -12.847  -0.839  1.00  0.00    -0.026 A 
HETATM   18  C   UNL     1      41.877 -11.914  -0.606  1.00  0.00     0.016 A 
HETATM   19  C   UNL     1      42.589 -11.334  -1.659  1.00  0.00    -0.061 A 
HETATM   20  C   UNL     1      43.697 -10.354  -1.404  1.00  0.00     0.048 C 
HETATM   21  C   UNL     1      42.244 -11.671  -2.967  1.00  0.00     0.007 A 
HETATM   22  C   UNL     1      41.207 -12.572  -3.217  1.00  0.00     0.008 A 
HETATM   23  C   UNL     1      40.502 -13.178  -2.166  1.00  0.00    -0.054 A 
HETATM   24  C   UNL     1      39.358 -14.094  -2.503  1.00  0.00     0.049 C 
ENDBRANCH  16  17
ENDBRANCH  12  16
ENDBRANCH   1   9
BRANCH   1  25
HETATM   25  C   UNL     1      43.448 -17.980   3.522  1.00  0.00     0.072 A 
HETATM   26  N   UNL     1      43.923 -17.871   4.794  1.00  0.00    -0.262 NA
HETATM   27  C   UNL     1      44.707 -18.866   5.269  1.00  0.00     0.117 A 
HETATM   28  C   UNL     1      45.062 -19.978   4.531  1.00  0.00     0.019 A 
HETATM   29  C   UNL     1      44.582 -20.080   3.232  1.00  0.00     0.003 A 
HETATM   30  C   UNL     1      43.763 -19.075   2.717  1.00  0.00     0.030 A 
ENDBRANCH   1  25
BRANCH   5  31
HETATM   31  C   UNL     1      42.060 -13.971   5.506  1.00  0.00     0.168 C 
BRANCH  31  32
HETATM   32  C   UNL     1      41.249 -12.762   5.023  1.00  0.00     0.140 C 
HETATM   33  O   UNL     1      41.208 -11.747   6.050  1.00  0.00    -0.384 OA
HETATM   34  C   UNL     1      39.839 -11.423   6.321  1.00  0.00     0.168 C 
HETATM   35  C   UNL     1      39.052 -11.885   5.118  1.00  0.00     0.029 C 
HETATM   36  C   UNL     1      39.802 -13.132   4.719  1.00  0.00     0.036 C 
ENDBRANCH  31  32
ENDBRANCH   5  31
TORSDOF 6
ENDMDL
MODEL 7
REMARK VINA RESULT:      -9.0      1.778      7.518
REMARK  6 active torsions:
REMARK  status: ('A' for Active; 'I' for Inactive)
REMARK    1  A    between atoms: C_4  and  C_5 
REMARK    2  A    between atoms: C_5  and  N_6 
REMARK    3  A    between atoms: C_10  and  C_11 
REMARK    4  A    between atoms: C_11  and  C_12 
REMARK    5  A    between atoms: N_21  and  C_22 
REMARK    6  A    between atoms: C_22  and  C_23 
ROOT
HETATM    1  C   UNL     1      42.424 -17.009   3.059  1.00  0.00     0.164 C 
HETATM    2  N   UNL     1      43.239 -15.905   2.562  1.00  0.00    -0.319 N 
HETATM    3  C   UNL     1      43.381 -14.897   3.487  1.00  0.00     0.326 C 
HETATM    4  O   UNL     1      44.175 -13.979   3.388  1.00  0.00    -0.247 OA
HETATM    5  N   UNL     1      42.493 -15.110   4.489  1.00  0.00    -0.265 N 
HETATM    6  C   UNL     1      41.886 -16.321   4.329  1.00  0.00     0.263 C 
HETATM    7  O   UNL     1      41.011 -16.781   5.053  1.00  0.00    -0.270 OA
HETATM    8  H   UNL     1      43.982 -16.051   1.886  1.00  0.00     0.166 HD
ENDROOT
BRANCH   1   9
HETATM    9  C   UNL     1      41.325 -17.374   1.996  1.00  0.00     0.033 C 
HETATM   10  C   UNL     1      41.710 -17.140   0.526  1.00  0.00     0.036 C 
HETATM   11  C   UNL     1      41.631 -15.694   0.064  1.00  0.00     0.235 C 
HETATM   12  N   UNL     1      40.326 -15.034   0.434  1.00  0.00    -0.067 N 
HETATM   13  H   UNL     1      39.636 -15.378  -0.244  1.00  0.00     0.280 HD
HETATM   14  C   UNL     1      39.780 -15.316   1.813  1.00  0.00     0.235 C 
HETATM   15  C   UNL     1      39.924 -16.774   2.207  1.00  0.00     0.036 C 
BRANCH  12  16
HETATM   16  C   UNL     1      40.389 -13.515   0.238  1.00  0.00     0.274 C 
BRANCH  16  17
HETATM   17  C   UNL     1      39.105 -12.786   0.550  1.00  0.00    -0.026 A 
HETATM   18  C   UNL     1      39.066 -11.965   1.699  1.00  0.00     0.016 A 
HETATM   19  C   UNL     1      37.935 -11.211   2.021  1.00  0.00    -0.061 A 
HETATM   20  C   UNL     1      37.906 -10.330   3.236  1.00  0.00     0.048 C 
HETATM   21  C   UNL     1      36.813 -11.301   1.198  1.00  0.00     0.007 A 
HETATM   22  C   UNL     1      36.825 -12.127   0.072  1.00  0.00     0.008 A 
HETATM   23  C   UNL     1      37.965 -12.869  -0.273  1.00  0.00    -0.054 A 
HETATM   24  C   UNL     1      37.892 -13.784  -1.464  1.00  0.00     0.049 C 
ENDBRANCH  16  17
ENDBRANCH  12  16
ENDBRANCH   1   9
BRANCH   1  25
HETATM   25  C   UNL     1      43.355 -18.187   3.348  1.00  0.00     0.072 A 
HETATM   26  N   UNL     1      43.897 -18.195   4.599  1.00  0.00    -0.262 NA
HETATM   27  C   UNL     1      44.694 -19.232   4.942  1.00  0.00     0.117 A 
HETATM   28  C   UNL     1      44.999 -20.276   4.091  1.00  0.00     0.019 A 
HETATM   29  C   UNL     1      44.451 -20.259   2.815  1.00  0.00     0.003 A 
HETATM   30  C   UNL     1      43.618 -19.208   2.435  1.00  0.00     0.030 A 
ENDBRANCH   1  25
BRANCH   5  31
HETATM   31  C   UNL     1      42.309 -14.236   5.635  1.00  0.00     0.168 C 
BRANCH  31  32
HETATM   32  C   UNL     1      41.355 -13.073   5.338  1.00  0.00     0.140 C 
HETATM   33  O   UNL     1      41.547 -12.013   6.299  1.00  0.00    -0.384 OA
HETATM   34  C   UNL     1      40.286 -11.712   6.910  1.00  0.00     0.168 C 
HETATM   35  C   UNL     1      39.229 -12.251   5.977  1.00  0.00     0.029 C 
HETATM   36  C   UNL     1      39.894 -13.495   5.443  1.00  0.00     0.036 C 
ENDBRANCH  31  32
ENDBRANCH   5  31
TORSDOF 6
ENDMDL
MODEL 8
REMARK VINA RESULT:      -9.0      2.595      7.423
REMARK  6 active torsions:
REMARK  status: ('A' for Active; 'I' for Inactive)
REMARK    1  A    between atoms: C_4  and  C_5 
REMARK    2  A    between atoms: C_5  and  N_6 
REMARK    3  A    between atoms: C_10  and  C_11 
REMARK    4  A    between atoms: C_11  and  C_12 
REMARK    5  A    between atoms: N_21  and  C_22 
REMARK    6  A    between atoms: C_22  and  C_23 
ROOT
HETATM    1  C   UNL     1      42.427 -16.994   3.016  1.00  0.00     0.164 C 
HETATM    2  N   UNL     1      43.234 -15.879   2.526  1.00  0.00    -0.319 N 
HETATM    3  C   UNL     1      43.344 -14.865   3.447  1.00  0.00     0.326 C 
HETATM    4  O   UNL     1      44.125 -13.935   3.357  1.00  0.00    -0.247 OA
HETATM    5  N   UNL     1      42.443 -15.085   4.435  1.00  0.00    -0.265 N 
HETATM    6  C   UNL     1      41.857 -16.307   4.272  1.00  0.00     0.263 C 
HETATM    7  O   UNL     1      40.977 -16.777   4.984  1.00  0.00    -0.270 OA
HETATM    8  H   UNL     1      43.990 -16.019   1.863  1.00  0.00     0.166 HD
ENDROOT
BRANCH   1   9
HETATM    9  C   UNL     1      41.353 -17.382   1.936  1.00  0.00     0.033 C 
HETATM   10  C   UNL     1      41.726 -17.071   0.477  1.00  0.00     0.036 C 
HETATM   11  C   UNL     1      41.562 -15.616   0.069  1.00  0.00     0.235 C 
HETATM   12  N   UNL     1      40.221 -15.047   0.459  1.00  0.00    -0.067 N 
HETATM   13  H   UNL     1      39.553 -15.406  -0.233  1.00  0.00     0.280 HD
HETATM   14  C   UNL     1      39.691 -15.412   1.825  1.00  0.00     0.235 C 
HETATM   15  C   UNL     1      39.919 -16.873   2.165  1.00  0.00     0.036 C 
BRANCH  12  16
HETATM   16  C   UNL     1      40.195 -13.521   0.319  1.00  0.00     0.274 C 
BRANCH  16  17
HETATM   17  C   UNL     1      40.027 -13.020  -1.094  1.00  0.00    -0.026 A 
HETATM   18  C   UNL     1      38.792 -13.248  -1.740  1.00  0.00     0.016 A 
HETATM   19  C   UNL     1      38.539 -12.763  -3.026  1.00  0.00    -0.061 A 
HETATM   20  C   UNL     1      37.220 -12.997  -3.701  1.00  0.00     0.048 C 
HETATM   21  C   UNL     1      39.547 -12.062  -3.688  1.00  0.00     0.007 A 
HETATM   22  C   UNL     1      40.783 -11.849  -3.074  1.00  0.00     0.008 A 
HETATM   23  C   UNL     1      41.038 -12.312  -1.774  1.00  0.00    -0.054 A 
HETATM   24  C   UNL     1      42.409 -12.101  -1.193  1.00  0.00     0.049 C 
ENDBRANCH  16  17
ENDBRANCH  12  16
ENDBRANCH   1   9
BRANCH   1  25
HETATM   25  C   UNL     1      43.372 -18.155   3.328  1.00  0.00     0.072 A 
HETATM   26  N   UNL     1      43.895 -18.146   4.586  1.00  0.00    -0.262 NA
HETATM   27  C   UNL     1      44.702 -19.168   4.950  1.00  0.00     0.117 A 
HETATM   28  C   UNL     1      45.036 -20.214   4.112  1.00  0.00     0.019 A 
HETATM   29  C   UNL     1      44.507 -20.215   2.828  1.00  0.00     0.003 A 
HETATM   30  C   UNL     1      43.664 -19.179   2.427  1.00  0.00     0.030 A 
ENDBRANCH   1  25
BRANCH   5  31
HETATM   31  C   UNL     1      42.226 -14.207   5.572  1.00  0.00     0.168 C 
BRANCH  31  32
HETATM   32  C   UNL     1      41.345 -13.003   5.222  1.00  0.00     0.140 C 
HETATM   33  O   UNL     1      41.369 -12.039   6.298  1.00  0.00    -0.384 OA
HETATM   34  C   UNL     1      40.021 -11.769   6.704  1.00  0.00     0.168 C 
HETATM   35  C   UNL     1      39.143 -12.197   5.553  1.00  0.00     0.029 C 
HETATM   36  C   UNL     1      39.886 -13.401   5.029  1.00  0.00     0.036 C 
ENDBRANCH  31  32
ENDBRANCH   5  31
TORSDOF 6
ENDMDL
MODEL 9
REMARK VINA RESULT:      -9.0      2.372      5.149
REMARK  6 active torsions:
REMARK  status: ('A' for Active; 'I' for Inactive)
REMARK    1  A    between atoms: C_4  and  C_5 
REMARK    2  A    between atoms: C_5  and  N_6 
REMARK    3  A    between atoms: C_10  and  C_11 
REMARK    4  A    between atoms: C_11  and  C_12 
REMARK    5  A    between atoms: N_21  and  C_22 
REMARK    6  A    between atoms: C_22  and  C_23 
ROOT
HETATM    1  C   UNL     1      40.868 -13.389   2.284  1.00  0.00     0.164 C 
HETATM    2  N   UNL     1      39.436 -13.132   2.160  1.00  0.00    -0.319 N 
HETATM    3  C   UNL     1      39.129 -12.384   1.049  1.00  0.00     0.326 C 
HETATM    4  O   UNL     1      38.002 -12.217   0.620  1.00  0.00    -0.247 OA
HETATM    5  N   UNL     1      40.281 -11.876   0.545  1.00  0.00    -0.265 N 
HETATM    6  C   UNL     1      41.354 -12.407   1.200  1.00  0.00     0.263 C 
HETATM    7  O   UNL     1      42.528 -12.120   0.996  1.00  0.00    -0.270 OA
HETATM    8  H   UNL     1      38.744 -13.787   2.511  1.00  0.00     0.166 HD
ENDROOT
BRANCH   1   9
HETATM    9  C   UNL     1      41.342 -13.043   3.742  1.00  0.00     0.033 C 
HETATM   10  C   UNL     1      42.686 -13.655   4.173  1.00  0.00     0.036 C 
HETATM   11  C   UNL     1      42.625 -15.120   4.575  1.00  0.00     0.235 C 
HETATM   12  N   UNL     1      41.514 -15.412   5.553  1.00  0.00    -0.067 N 
HETATM   13  H   UNL     1      41.853 -15.086   6.465  1.00  0.00     0.280 HD
HETATM   14  C   UNL     1      40.185 -14.741   5.302  1.00  0.00     0.235 C 
HETATM   15  C   UNL     1      40.337 -13.292   4.879  1.00  0.00     0.036 C 
BRANCH  12  16
HETATM   16  C   UNL     1      41.278 -16.919   5.702  1.00  0.00     0.274 C 
BRANCH  16  17
HETATM   17  C   UNL     1      42.522 -17.765   5.596  1.00  0.00    -0.026 A 
HETATM   18  C   UNL     1      42.779 -18.424   4.374  1.00  0.00     0.016 A 
HETATM   19  C   UNL     1      43.940 -19.177   4.179  1.00  0.00    -0.061 A 
HETATM   20  C   UNL     1      44.214 -19.863   2.873  1.00  0.00     0.048 C 
HETATM   21  C   UNL     1      44.846 -19.296   5.233  1.00  0.00     0.007 A 
HETATM   22  C   UNL     1      44.596 -18.672   6.457  1.00  0.00     0.008 A 
HETATM   23  C   UNL     1      43.444 -17.894   6.654  1.00  0.00    -0.054 A 
HETATM   24  C   UNL     1      43.205 -17.299   8.014  1.00  0.00     0.049 C 
ENDBRANCH  16  17
ENDBRANCH  12  16
ENDBRANCH   1   9
BRANCH   1  25
HETATM   25  C   UNL     1      41.113 -14.858   1.934  1.00  0.00     0.072 A 
HETATM   26  N   UNL     1      40.131 -15.713   2.335  1.00  0.00    -0.262 NA
HETATM   27  C   UNL     1      40.256 -17.022   2.019  1.00  0.00     0.117 A 
HETATM   28  C   UNL     1      41.330 -17.541   1.324  1.00  0.00     0.019 A 
HETATM   29  C   UNL     1      42.332 -16.667   0.924  1.00  0.00     0.003 A 
HETATM   30  C   UNL     1      42.227 -15.310   1.227  1.00  0.00     0.030 A 
ENDBRANCH   1  25
BRANCH   5  31
HETATM   31  C   UNL     1      40.367 -10.995  -0.607  1.00  0.00     0.168 C 
BRANCH  31  32
HETATM   32  C   UNL     1      40.594 -11.763  -1.915  1.00  0.00     0.140 C 
HETATM   33  O   UNL     1      40.308 -13.166  -1.725  1.00  0.00    -0.384 OA
HETATM   34  C   UNL     1      41.453 -13.927  -2.127  1.00  0.00     0.168 C 
HETATM   35  C   UNL     1      42.266 -13.022  -3.022  1.00  0.00     0.029 C 
HETATM   36  C   UNL     1      42.043 -11.675  -2.382  1.00  0.00     0.036 C 
ENDBRANCH  31  32
ENDBRANCH   5  31
TORSDOF 6
ENDMDL
MODEL 10
REMARK VINA RESULT:      -8.8      2.058      4.708
REMARK  6 active torsions:
REMARK  status: ('A' for Active; 'I' for Inactive)
REMARK    1  A    between atoms: C_4  and  C_5 
REMARK    2  A    between atoms: C_5  and  N_6 
REMARK    3  A    between atoms: C_10  and  C_11 
REMARK    4  A    between atoms: C_11  and  C_12 
REMARK    5  A    between atoms: N_21  and  C_22 
REMARK    6  A    between atoms: C_22  and  C_23 
ROOT
HETATM    1  C   UNL     1      41.490 -12.739   4.176  1.00  0.00     0.164 C 
HETATM    2  N   UNL     1      41.514 -11.698   3.153  1.00  0.00    -0.319 N 
HETATM    3  C   UNL     1      40.567 -11.896   2.177  1.00  0.00     0.326 C 
HETATM    4  O   UNL     1      40.254 -11.067   1.342  1.00  0.00    -0.247 OA
HETATM    5  N   UNL     1      40.072 -13.151   2.312  1.00  0.00    -0.265 N 
HETATM    6  C   UNL     1      40.551 -13.724   3.453  1.00  0.00     0.263 C 
HETATM    7  O   UNL     1      40.314 -14.866   3.833  1.00  0.00    -0.270 OA
HETATM    8  H   UNL     1      41.801 -10.747   3.365  1.00  0.00     0.166 HD
ENDROOT
BRANCH   1   9
HETATM    9  C   UNL     1      42.948 -13.278   4.415  1.00  0.00     0.033 C 
HETATM   10  C   UNL     1      43.562 -14.084   3.259  1.00  0.00     0.036 C 
HETATM   11  C   UNL     1      43.083 -15.523   3.153  1.00  0.00     0.235 C 
HETATM   12  N   UNL     1      43.144 -16.257   4.469  1.00  0.00    -0.067 N 
HETATM   13  H   UNL     1      44.130 -16.505   4.606  1.00  0.00     0.280 HD
HETATM   14  C   UNL     1      42.698 -15.501   5.698  1.00  0.00     0.235 C 
HETATM   15  C   UNL     1      43.194 -14.068   5.711  1.00  0.00     0.036 C 
BRANCH  12  16
HETATM   16  C   UNL     1      42.379 -17.583   4.410  1.00  0.00     0.274 C 
BRANCH  16  17
HETATM   17  C   UNL     1      43.250 -18.808   4.287  1.00  0.00    -0.026 A 
HETATM   18  C   UNL     1      43.285 -19.482   3.046  1.00  0.00     0.016 A 
HETATM   19  C   UNL     1      44.114 -20.587   2.836  1.00  0.00    -0.061 A 
HETATM   20  C   UNL     1      44.156 -21.289   1.511  1.00  0.00     0.048 C 
HETATM   21  C   UNL     1      44.900 -21.045   3.893  1.00  0.00     0.007 A 
HETATM   22  C   UNL     1      44.859 -20.407   5.135  1.00  0.00     0.008 A 
HETATM   23  C   UNL     1      44.049 -19.281   5.347  1.00  0.00    -0.054 A 
HETATM   24  C   UNL     1      44.006 -18.678   6.724  1.00  0.00     0.049 C 
ENDBRANCH  16  17
ENDBRANCH  12  16
ENDBRANCH   1   9
BRANCH   1  25
HETATM   25  C   UNL     1      40.887 -12.136   5.445  1.00  0.00     0.072 A 
HETATM   26  N   UNL     1      41.412 -10.933   5.813  1.00  0.00    -0.262 NA
HETATM   27  C   UNL     1      40.894 -10.316   6.900  1.00  0.00     0.117 A 
HETATM   28  C   UNL     1      39.872 -10.844   7.664  1.00  0.00     0.019 A 
HETATM   29  C   UNL     1      39.346 -12.074   7.290  1.00  0.00     0.003 A 
HETATM   30  C   UNL     1      39.852 -12.730   6.168  1.00  0.00     0.030 A 
ENDBRANCH   1  25
BRANCH   5  31
HETATM   31  C   UNL     1      39.078 -13.750   1.438  1.00  0.00     0.168 C 
BRANCH  31  32
HETATM   32  C   UNL     1      39.699 -14.371   0.182  1.00  0.00     0.140 C 
HETATM   33  O   UNL     1      41.124 -14.534   0.360  1.00  0.00    -0.384 OA
HETATM   34  C   UNL     1      41.799 -13.879  -0.721  1.00  0.00     0.168 C 
HETATM   35  C   UNL     1      40.780 -13.731  -1.825  1.00  0.00     0.029 C 
HETATM   36  C   UNL     1      39.513 -13.485  -1.044  1.00  0.00     0.036 C 
ENDBRANCH  31  32
ENDBRANCH   5  31
TORSDOF 6
ENDMDL
