MODEL 1
REMARK VINA RESULT:      -9.0      0.000      0.000
REMARK  8 active torsions:
REMARK  status: ('A' for Active; 'I' for Inactive)
REMARK    1  A    between atoms: C_4  and  C_5 
REMARK    2  A    between atoms: C_7  and  C_8 
REMARK    3  A    between atoms: C_9  and  C_10 
REMARK       I    between atoms: C_10  and  N_11 
REMARK    4  A    between atoms: N_11  and  C_12 
REMARK    5  A    between atoms: C_12  and  N_13 
REMARK    6  A    between atoms: N_13  and  C_14 
REMARK    7  A    between atoms: C_17  and  N_18 
REMARK       I    between atoms: N_21  and  C_22 
REMARK    8  A    between atoms: C_22  and  C_23 
ROOT
HETATM    1  N   UNL     1      39.274 -11.791  -0.983  1.00  0.00    -0.333 N 
HETATM    2  H   UNL     1      39.241 -10.795  -1.170  1.00  0.00     0.168 HD
ENDROOT
BRANCH   1   3
HETATM    3  C   UNL     1      38.986 -12.580  -2.070  1.00  0.00     0.179 C 
HETATM    4  S   UNL     1      37.467 -13.065  -2.582  1.00  0.00    -0.040 SA
BRANCH   3   5
HETATM    5  N   UNL     1      40.081 -13.116  -2.732  1.00  0.00    -0.300 N 
HETATM    6  C   UNL     1      40.759 -14.322  -2.697  1.00  0.00     0.247 C 
HETATM    7  O   UNL     1      41.504 -14.641  -3.620  1.00  0.00    -0.268 OA
HETATM    8  H   UNL     1      40.481 -12.484  -3.414  1.00  0.00     0.171 HD
BRANCH   6   9
HETATM    9  C   UNL     1      40.618 -15.153  -1.480  1.00  0.00     0.077 C 
HETATM   10  C   UNL     1      41.707 -15.669  -0.892  1.00  0.00     0.042 C 
BRANCH  10  11
HETATM   11  C   UNL     1      41.576 -16.401   0.318  1.00  0.00     0.076 A 
HETATM   12  O   UNL     1      42.531 -17.278   0.782  1.00  0.00    -0.310 OA
HETATM   13  C   UNL     1      42.106 -17.823   1.958  1.00  0.00     0.086 A 
HETATM   14  C   UNL     1      40.863 -17.315   2.266  1.00  0.00     0.041 A 
HETATM   15  C   UNL     1      40.534 -16.402   1.233  1.00  0.00     0.040 A 
BRANCH  13  16
HETATM   16  C   UNL     1      43.016 -18.772   2.592  1.00  0.00    -0.002 A 
HETATM   17  C   UNL     1      43.469 -18.563   3.903  1.00  0.00     0.014 A 
HETATM   18  C   UNL     1      44.358 -19.459   4.506  1.00  0.00     0.001 A 
HETATM   19  C   UNL     1      44.811 -20.574   3.805  1.00  0.00     0.000 A 
HETATM   20  C   UNL     1      44.371 -20.797   2.503  1.00  0.00     0.001 A 
HETATM   21  C   UNL     1      43.476 -19.906   1.904  1.00  0.00     0.014 A 
ENDBRANCH  13  16
ENDBRANCH  10  11
ENDBRANCH   6   9
ENDBRANCH   3   5
ENDBRANCH   1   3
BRANCH   1  22
HETATM   22  C   UNL     1      39.899 -12.163   0.226  1.00  0.00     0.034 A 
HETATM   23  C   UNL     1      39.111 -12.707   1.241  1.00  0.00     0.031 A 
HETATM   24  C   UNL     1      39.693 -13.123   2.448  1.00  0.00     0.026 A 
HETATM   25  C   UNL     1      41.075 -13.048   2.650  1.00  0.00     0.010 A 
HETATM   26  C   UNL     1      41.854 -12.538   1.602  1.00  0.00     0.026 A 
HETATM   27  C   UNL     1      41.278 -12.093   0.406  1.00  0.00     0.031 A 
BRANCH  25  28
HETATM   28  N   UNL     1      41.717 -13.445   3.829  1.00  0.00    -0.280 NA
HETATM   29  C   UNL     1      42.271 -12.310   4.602  1.00  0.00     0.115 C 
HETATM   30  C   UNL     1      42.660 -12.768   6.020  1.00  0.00     0.141 C 
HETATM   31  N   UNL     1      43.525 -13.961   6.016  1.00  0.00    -0.344 N 
HETATM   32  C   UNL     1      44.292 -14.331   7.131  1.00  0.00     0.277 C 
HETATM   33  C   UNL     1      43.023 -15.055   5.172  1.00  0.00     0.141 C 
HETATM   34  O   UNL     1      44.479 -15.522   7.393  1.00  0.00    -0.265 OA
HETATM   35  C   UNL     1      42.654 -14.584   3.754  1.00  0.00     0.115 C 
BRANCH  32  36
HETATM   36  C   UNL     1      44.882 -13.290   7.958  1.00  0.00     0.142 A 
HETATM   37  O   UNL     1      46.095 -12.739   7.636  1.00  0.00    -0.317 OA
HETATM   38  C   UNL     1      46.411 -11.855   8.618  1.00  0.00     0.143 A 
HETATM   39  C   UNL     1      45.434 -11.834   9.583  1.00  0.00     0.027 A 
HETATM   40  C   UNL     1      44.458 -12.770   9.169  1.00  0.00     0.045 A 
ENDBRANCH  32  36
ENDBRANCH  25  28
ENDBRANCH   1  22
TORSDOF 8
ENDMDL
MODEL 2
REMARK VINA RESULT:      -8.5      2.593      8.448
REMARK  8 active torsions:
REMARK  status: ('A' for Active; 'I' for Inactive)
REMARK    1  A    between atoms: C_4  and  C_5 
REMARK    2  A    between atoms: C_7  and  C_8 
REMARK    3  A    between atoms: C_9  and  C_10 
REMARK       I    between atoms: C_10  and  N_11 
REMARK    4  A    between atoms: N_11  and  C_12 
REMARK    5  A    between atoms: C_12  and  N_13 
REMARK    6  A    between atoms: N_13  and  C_14 
REMARK    7  A    between atoms: C_17  and  N_18 
REMARK       I    between atoms: N_21  and  C_22 
REMARK    8  A    between atoms: C_22  and  C_23 
ROOT
HETATM    1  N   UNL     1      41.433 -13.214   6.302  1.00  0.00    -0.333 N 
HETATM    2  H   UNL     1      41.321 -14.073   6.828  1.00  0.00     0.168 HD
ENDROOT
BRANCH   1   3
HETATM    3  C   UNL     1      42.107 -12.222   6.974  1.00  0.00     0.179 C 
HETATM    4  S   UNL     1      41.788 -10.580   6.919  1.00  0.00    -0.040 SA
BRANCH   3   5
HETATM    5  N   UNL     1      43.234 -12.628   7.673  1.00  0.00    -0.300 N 
HETATM    6  C   UNL     1      44.358 -13.380   7.379  1.00  0.00     0.247 C 
HETATM    7  O   UNL     1      45.352 -13.316   8.097  1.00  0.00    -0.268 OA
HETATM    8  H   UNL     1      43.254 -12.287   8.627  1.00  0.00     0.171 HD
BRANCH   6   9
HETATM    9  C   UNL     1      44.276 -14.314   6.233  1.00  0.00     0.077 C 
HETATM   10  C   UNL     1      43.899 -15.585   6.432  1.00  0.00     0.042 C 
BRANCH  10  11
HETATM   11  C   UNL     1      43.747 -16.459   5.322  1.00  0.00     0.076 A 
HETATM   12  O   UNL     1      44.101 -17.788   5.347  1.00  0.00    -0.310 OA
HETATM   13  C   UNL     1      43.839 -18.346   4.131  1.00  0.00     0.086 A 
HETATM   14  C   UNL     1      43.322 -17.381   3.295  1.00  0.00     0.041 A 
HETATM   15  C   UNL     1      43.249 -16.187   4.056  1.00  0.00     0.040 A 
BRANCH  13  16
HETATM   16  C   UNL     1      44.150 -19.766   3.995  1.00  0.00    -0.002 A 
HETATM   17  C   UNL     1      44.547 -20.522   5.109  1.00  0.00     0.014 A 
HETATM   18  C   UNL     1      44.866 -21.878   4.980  1.00  0.00     0.001 A 
HETATM   19  C   UNL     1      44.797 -22.496   3.733  1.00  0.00     0.000 A 
HETATM   20  C   UNL     1      44.405 -21.762   2.618  1.00  0.00     0.001 A 
HETATM   21  C   UNL     1      44.078 -20.409   2.750  1.00  0.00     0.014 A 
ENDBRANCH  13  16
ENDBRANCH  10  11
ENDBRANCH   6   9
ENDBRANCH   3   5
ENDBRANCH   1   3
BRANCH   1  22
HETATM   22  C   UNL     1      41.171 -13.309   4.919  1.00  0.00     0.034 A 
HETATM   23  C   UNL     1      42.080 -12.732   4.029  1.00  0.00     0.031 A 
HETATM   24  C   UNL     1      41.879 -12.831   2.644  1.00  0.00     0.026 A 
HETATM   25  C   UNL     1      40.797 -13.543   2.118  1.00  0.00     0.010 A 
HETATM   26  C   UNL     1      39.919 -14.150   3.026  1.00  0.00     0.026 A 
HETATM   27  C   UNL     1      40.096 -14.032   4.410  1.00  0.00     0.031 A 
BRANCH  25  28
HETATM   28  N   UNL     1      40.540 -13.678   0.748  1.00  0.00    -0.280 NA
HETATM   29  C   UNL     1      39.186 -13.222   0.360  1.00  0.00     0.115 C 
HETATM   30  C   UNL     1      39.085 -13.085  -1.170  1.00  0.00     0.141 C 
HETATM   31  N   UNL     1      39.530 -14.296  -1.881  1.00  0.00    -0.344 N 
HETATM   32  C   UNL     1      39.189 -14.543  -3.220  1.00  0.00     0.277 C 
HETATM   33  C   UNL     1      40.833 -14.804  -1.431  1.00  0.00     0.141 C 
HETATM   34  O   UNL     1      39.982 -15.116  -3.970  1.00  0.00    -0.265 OA
HETATM   35  C   UNL     1      40.911 -14.951   0.099  1.00  0.00     0.115 C 
BRANCH  32  36
HETATM   36  C   UNL     1      37.879 -14.133  -3.702  1.00  0.00     0.142 A 
HETATM   37  O   UNL     1      36.970 -15.060  -4.143  1.00  0.00    -0.317 OA
HETATM   38  C   UNL     1      35.881 -14.380  -4.586  1.00  0.00     0.143 A 
HETATM   39  C   UNL     1      36.072 -13.025  -4.459  1.00  0.00     0.027 A 
HETATM   40  C   UNL     1      37.364 -12.864  -3.907  1.00  0.00     0.045 A 
ENDBRANCH  32  36
ENDBRANCH  25  28
ENDBRANCH   1  22
TORSDOF 8
ENDMDL
MODEL 3
REMARK VINA RESULT:      -8.5      3.084      3.763
REMARK  8 active torsions:
REMARK  status: ('A' for Active; 'I' for Inactive)
REMARK    1  A    between atoms: C_4  and  C_5 
REMARK    2  A    between atoms: C_7  and  C_8 
REMARK    3  A    between atoms: C_9  and  C_10 
REMARK       I    between atoms: C_10  and  N_11 
REMARK    4  A    between atoms: N_11  and  C_12 
REMARK    5  A    between atoms: C_12  and  N_13 
REMARK    6  A    between atoms: N_13  and  C_14 
REMARK    7  A    between atoms: C_17  and  N_18 
REMARK       I    between atoms: N_21  and  C_22 
REMARK    8  A    between atoms: C_22  and  C_23 
ROOT
HETATM    1  N   UNL     1      40.495 -11.694   0.654  1.00  0.00    -0.333 N 
HETATM    2  H   UNL     1      40.891 -10.949   0.092  1.00  0.00     0.168 HD
ENDROOT
BRANCH   1   3
HETATM    3  C   UNL     1      40.337 -12.884  -0.015  1.00  0.00     0.179 C 
HETATM    4  S   UNL     1      41.443 -13.613  -1.039  1.00  0.00    -0.040 SA
BRANCH   3   5
HETATM    5  N   UNL     1      39.084 -13.470   0.088  1.00  0.00    -0.300 N 
HETATM    6  C   UNL     1      38.434 -14.248   1.031  1.00  0.00     0.247 C 
HETATM    7  O   UNL     1      37.211 -14.365   1.003  1.00  0.00    -0.268 OA
HETATM    8  H   UNL     1      38.490 -13.279  -0.710  1.00  0.00     0.171 HD
BRANCH   6   9
HETATM    9  C   UNL     1      39.271 -14.990   2.001  1.00  0.00     0.077 C 
HETATM   10  C   UNL     1      40.148 -15.906   1.565  1.00  0.00     0.042 C 
BRANCH  10  11
HETATM   11  C   UNL     1      41.004 -16.561   2.490  1.00  0.00     0.076 A 
HETATM   12  O   UNL     1      41.710 -17.705   2.193  1.00  0.00    -0.310 OA
HETATM   13  C   UNL     1      42.427 -18.086   3.288  1.00  0.00     0.086 A 
HETATM   14  C   UNL     1      42.186 -17.201   4.315  1.00  0.00     0.041 A 
HETATM   15  C   UNL     1      41.294 -16.224   3.804  1.00  0.00     0.040 A 
BRANCH  13  16
HETATM   16  C   UNL     1      43.247 -19.284   3.134  1.00  0.00    -0.002 A 
HETATM   17  C   UNL     1      43.129 -20.089   1.991  1.00  0.00     0.014 A 
HETATM   18  C   UNL     1      43.898 -21.250   1.848  1.00  0.00     0.001 A 
HETATM   19  C   UNL     1      44.790 -21.624   2.850  1.00  0.00     0.000 A 
HETATM   20  C   UNL     1      44.920 -20.837   3.990  1.00  0.00     0.001 A 
HETATM   21  C   UNL     1      44.159 -19.673   4.127  1.00  0.00     0.014 A 
ENDBRANCH  13  16
ENDBRANCH  10  11
ENDBRANCH   6   9
ENDBRANCH   3   5
ENDBRANCH   1   3
BRANCH   1  22
HETATM   22  C   UNL     1      40.485 -11.466   2.046  1.00  0.00     0.034 A 
HETATM   23  C   UNL     1      39.486 -10.649   2.578  1.00  0.00     0.031 A 
HETATM   24  C   UNL     1      39.415 -10.420   3.960  1.00  0.00     0.026 A 
HETATM   25  C   UNL     1      40.308 -11.036   4.844  1.00  0.00     0.010 A 
HETATM   26  C   UNL     1      41.278 -11.886   4.294  1.00  0.00     0.026 A 
HETATM   27  C   UNL     1      41.373 -12.096   2.913  1.00  0.00     0.031 A 
BRANCH  25  28
HETATM   28  N   UNL     1      40.291 -10.849   6.231  1.00  0.00    -0.280 NA
HETATM   29  C   UNL     1      41.625 -10.534   6.793  1.00  0.00     0.115 C 
HETATM   30  C   UNL     1      41.488 -10.021   8.239  1.00  0.00     0.141 C 
HETATM   31  N   UNL     1      40.682 -10.916   9.087  1.00  0.00    -0.344 N 
HETATM   32  C   UNL     1      40.727 -10.857  10.489  1.00  0.00     0.277 C 
HETATM   33  C   UNL     1      39.398 -11.305   8.488  1.00  0.00     0.141 C 
HETATM   34  O   UNL     1      39.714 -11.078  11.156  1.00  0.00    -0.265 OA
HETATM   35  C   UNL     1      39.553 -11.831   7.050  1.00  0.00     0.115 C 
BRANCH  32  36
HETATM   36  C   UNL     1      41.992 -10.556  11.141  1.00  0.00     0.142 A 
HETATM   37  O   UNL     1      43.116 -11.294  10.875  1.00  0.00    -0.317 OA
HETATM   38  C   UNL     1      44.108 -10.824  11.673  1.00  0.00     0.143 A 
HETATM   39  C   UNL     1      43.646  -9.804  12.470  1.00  0.00     0.027 A 
HETATM   40  C   UNL     1      42.280  -9.642  12.141  1.00  0.00     0.045 A 
ENDBRANCH  32  36
ENDBRANCH  25  28
ENDBRANCH   1  22
TORSDOF 8
ENDMDL
MODEL 4
REMARK VINA RESULT:      -8.5      3.938      9.385
REMARK  8 active torsions:
REMARK  status: ('A' for Active; 'I' for Inactive)
REMARK    1  A    between atoms: C_4  and  C_5 
REMARK    2  A    between atoms: C_7  and  C_8 
REMARK    3  A    between atoms: C_9  and  C_10 
REMARK       I    between atoms: C_10  and  N_11 
REMARK    4  A    between atoms: N_11  and  C_12 
REMARK    5  A    between atoms: C_12  and  N_13 
REMARK    6  A    between atoms: N_13  and  C_14 
REMARK    7  A    between atoms: C_17  and  N_18 
REMARK       I    between atoms: N_21  and  C_22 
REMARK    8  A    between atoms: C_22  and  C_23 
ROOT
HETATM    1  N   UNL     1      40.270 -10.202  10.714  1.00  0.00    -0.333 N 
HETATM    2  H   UNL     1      39.930 -10.867  11.399  1.00  0.00     0.168 HD
ENDROOT
BRANCH   1   3
HETATM    3  C   UNL     1      40.896  -9.104  11.254  1.00  0.00     0.179 C 
HETATM    4  S   UNL     1      40.828  -7.531  10.684  1.00  0.00    -0.040 SA
BRANCH   3   5
HETATM    5  N   UNL     1      41.761  -9.362  12.307  1.00  0.00    -0.300 N 
HETATM    6  C   UNL     1      43.114  -9.627  12.429  1.00  0.00     0.247 C 
HETATM    7  O   UNL     1      43.675  -9.504  13.515  1.00  0.00    -0.268 OA
HETATM    8  H   UNL     1      41.303  -9.343  13.211  1.00  0.00     0.171 HD
BRANCH   6   9
HETATM    9  C   UNL     1      43.821 -10.140  11.235  1.00  0.00     0.077 C 
HETATM   10  C   UNL     1      44.036 -11.457  11.099  1.00  0.00     0.042 C 
BRANCH  10  11
HETATM   11  C   UNL     1      44.645 -11.956   9.916  1.00  0.00     0.076 A 
HETATM   12  O   UNL     1      44.078 -12.923   9.119  1.00  0.00    -0.310 OA
HETATM   13  C   UNL     1      44.910 -13.188   8.072  1.00  0.00     0.086 A 
HETATM   14  C   UNL     1      46.037 -12.402   8.183  1.00  0.00     0.041 A 
HETATM   15  C   UNL     1      45.861 -11.610   9.346  1.00  0.00     0.040 A 
BRANCH  13  16
HETATM   16  C   UNL     1      44.445 -14.191   7.119  1.00  0.00    -0.002 A 
HETATM   17  C   UNL     1      44.392 -13.905   5.747  1.00  0.00     0.014 A 
HETATM   18  C   UNL     1      43.927 -14.856   4.833  1.00  0.00     0.001 A 
HETATM   19  C   UNL     1      43.503 -16.106   5.279  1.00  0.00     0.000 A 
HETATM   20  C   UNL     1      43.550 -16.407   6.637  1.00  0.00     0.001 A 
HETATM   21  C   UNL     1      44.023 -15.459   7.548  1.00  0.00     0.014 A 
ENDBRANCH  13  16
ENDBRANCH  10  11
ENDBRANCH   6   9
ENDBRANCH   3   5
ENDBRANCH   1   3
BRANCH   1  22
HETATM   22  C   UNL     1      40.320 -10.670   9.385  1.00  0.00     0.034 A 
HETATM   23  C   UNL     1      41.492 -10.470   8.653  1.00  0.00     0.031 A 
HETATM   24  C   UNL     1      41.601 -10.948   7.338  1.00  0.00     0.026 A 
HETATM   25  C   UNL     1      40.564 -11.674   6.743  1.00  0.00     0.010 A 
HETATM   26  C   UNL     1      39.412 -11.901   7.509  1.00  0.00     0.026 A 
HETATM   27  C   UNL     1      39.284 -11.402   8.810  1.00  0.00     0.031 A 
BRANCH  25  28
HETATM   28  N   UNL     1      40.609 -12.177   5.437  1.00  0.00    -0.280 NA
HETATM   29  C   UNL     1      40.747 -13.650   5.385  1.00  0.00     0.115 C 
HETATM   30  C   UNL     1      40.460 -14.164   3.961  1.00  0.00     0.141 C 
HETATM   31  N   UNL     1      41.243 -13.458   2.932  1.00  0.00    -0.344 N 
HETATM   32  C   UNL     1      41.428 -13.983   1.645  1.00  0.00     0.277 C 
HETATM   33  C   UNL     1      41.182 -11.994   3.042  1.00  0.00     0.141 C 
HETATM   34  O   UNL     1      41.486 -13.233   0.667  1.00  0.00    -0.265 OA
HETATM   35  C   UNL     1      41.488 -11.495   4.466  1.00  0.00     0.115 C 
BRANCH  32  36
HETATM   36  C   UNL     1      41.575 -15.421   1.484  1.00  0.00     0.142 A 
HETATM   37  O   UNL     1      40.482 -16.221   1.272  1.00  0.00    -0.317 OA
HETATM   38  C   UNL     1      40.922 -17.505   1.228  1.00  0.00     0.143 A 
HETATM   39  C   UNL     1      42.281 -17.558   1.426  1.00  0.00     0.027 A 
HETATM   40  C   UNL     1      42.700 -16.219   1.608  1.00  0.00     0.045 A 
ENDBRANCH  32  36
ENDBRANCH  25  28
ENDBRANCH   1  22
TORSDOF 8
ENDMDL
MODEL 5
REMARK VINA RESULT:      -8.4      3.489      8.523
REMARK  8 active torsions:
REMARK  status: ('A' for Active; 'I' for Inactive)
REMARK    1  A    between atoms: C_4  and  C_5 
REMARK    2  A    between atoms: C_7  and  C_8 
REMARK    3  A    between atoms: C_9  and  C_10 
REMARK       I    between atoms: C_10  and  N_11 
REMARK    4  A    between atoms: N_11  and  C_12 
REMARK    5  A    between atoms: C_12  and  N_13 
REMARK    6  A    between atoms: N_13  and  C_14 
REMARK    7  A    between atoms: C_17  and  N_18 
REMARK       I    between atoms: N_21  and  C_22 
REMARK    8  A    between atoms: C_22  and  C_23 
ROOT
HETATM    1  N   UNL     1      44.510 -19.466   2.582  1.00  0.00    -0.333 N 
HETATM    2  H   UNL     1      45.254 -19.056   3.135  1.00  0.00     0.168 HD
ENDROOT
BRANCH   1   3
HETATM    3  C   UNL     1      44.473 -20.839   2.614  1.00  0.00     0.179 C 
HETATM    4  S   UNL     1      43.771 -21.848   1.477  1.00  0.00    -0.040 SA
BRANCH   3   5
HETATM    5  N   UNL     1      44.967 -21.428   3.768  1.00  0.00    -0.300 N 
HETATM    6  C   UNL     1      44.728 -21.291   5.124  1.00  0.00     0.247 C 
HETATM    7  O   UNL     1      45.084 -22.167   5.908  1.00  0.00    -0.268 OA
HETATM    8  H   UNL     1      45.665 -22.139   3.583  1.00  0.00     0.171 HD
BRANCH   6   9
HETATM    9  C   UNL     1      44.116 -20.025   5.587  1.00  0.00     0.077 C 
HETATM   10  C   UNL     1      44.891 -18.962   5.847  1.00  0.00     0.042 C 
BRANCH  10  11
HETATM   11  C   UNL     1      44.295 -17.726   6.216  1.00  0.00     0.076 A 
HETATM   12  O   UNL     1      43.895 -16.774   5.306  1.00  0.00    -0.310 OA
HETATM   13  C   UNL     1      43.373 -15.707   5.974  1.00  0.00     0.086 A 
HETATM   14  C   UNL     1      43.439 -15.947   7.329  1.00  0.00     0.041 A 
HETATM   15  C   UNL     1      44.010 -17.236   7.482  1.00  0.00     0.040 A 
BRANCH  13  16
HETATM   16  C   UNL     1      42.888 -14.607   5.147  1.00  0.00    -0.002 A 
HETATM   17  C   UNL     1      43.258 -14.509   3.797  1.00  0.00     0.014 A 
HETATM   18  C   UNL     1      42.811 -13.445   3.005  1.00  0.00     0.001 A 
HETATM   19  C   UNL     1      41.993 -12.460   3.555  1.00  0.00     0.000 A 
HETATM   20  C   UNL     1      41.616 -12.542   4.892  1.00  0.00     0.001 A 
HETATM   21  C   UNL     1      42.055 -13.610   5.679  1.00  0.00     0.014 A 
ENDBRANCH  13  16
ENDBRANCH  10  11
ENDBRANCH   6   9
ENDBRANCH   3   5
ENDBRANCH   1   3
BRANCH   1  22
HETATM   22  C   UNL     1      43.501 -18.573   2.163  1.00  0.00     0.034 A 
HETATM   23  C   UNL     1      42.392 -18.390   2.991  1.00  0.00     0.031 A 
HETATM   24  C   UNL     1      41.379 -17.487   2.634  1.00  0.00     0.026 A 
HETATM   25  C   UNL     1      41.472 -16.717   1.469  1.00  0.00     0.010 A 
HETATM   26  C   UNL     1      42.614 -16.885   0.673  1.00  0.00     0.026 A 
HETATM   27  C   UNL     1      43.614 -17.805   1.008  1.00  0.00     0.031 A 
BRANCH  25  28
HETATM   28  N   UNL     1      40.497 -15.801   1.056  1.00  0.00    -0.280 NA
HETATM   29  C   UNL     1      41.012 -14.793   0.101  1.00  0.00     0.115 C 
HETATM   30  C   UNL     1      39.844 -14.037  -0.559  1.00  0.00     0.141 C 
HETATM   31  N   UNL     1      38.890 -13.492   0.422  1.00  0.00    -0.344 N 
HETATM   32  C   UNL     1      37.978 -12.478   0.093  1.00  0.00     0.277 C 
HETATM   33  C   UNL     1      38.451 -14.468   1.428  1.00  0.00     0.141 C 
HETATM   34  O   UNL     1      36.855 -12.459   0.601  1.00  0.00    -0.265 OA
HETATM   35  C   UNL     1      39.631 -15.203   2.091  1.00  0.00     0.115 C 
BRANCH  32  36
HETATM   36  C   UNL     1      38.386 -11.437  -0.838  1.00  0.00     0.142 A 
HETATM   37  O   UNL     1      39.360 -10.533  -0.501  1.00  0.00    -0.317 OA
HETATM   38  C   UNL     1      39.473  -9.657  -1.532  1.00  0.00     0.143 A 
HETATM   39  C   UNL     1      38.577  -9.963  -2.528  1.00  0.00     0.027 A 
HETATM   40  C   UNL     1      37.865 -11.098  -2.076  1.00  0.00     0.045 A 
ENDBRANCH  32  36
ENDBRANCH  25  28
ENDBRANCH   1  22
TORSDOF 8
ENDMDL
MODEL 6
REMARK VINA RESULT:      -8.3      2.952      3.651
REMARK  8 active torsions:
REMARK  status: ('A' for Active; 'I' for Inactive)
REMARK    1  A    between atoms: C_4  and  C_5 
REMARK    2  A    between atoms: C_7  and  C_8 
REMARK    3  A    between atoms: C_9  and  C_10 
REMARK       I    between atoms: C_10  and  N_11 
REMARK    4  A    between atoms: N_11  and  C_12 
REMARK    5  A    between atoms: C_12  and  N_13 
REMARK    6  A    between atoms: N_13  and  C_14 
REMARK    7  A    between atoms: C_17  and  N_18 
REMARK       I    between atoms: N_21  and  C_22 
REMARK    8  A    between atoms: C_22  and  C_23 
ROOT
HETATM    1  N   UNL     1      40.357 -12.733   0.910  1.00  0.00    -0.333 N 
HETATM    2  H   UNL     1      41.253 -12.599   0.456  1.00  0.00     0.168 HD
ENDROOT
BRANCH   1   3
HETATM    3  C   UNL     1      39.481 -13.528   0.210  1.00  0.00     0.179 C 
HETATM    4  S   UNL     1      37.922 -13.939   0.660  1.00  0.00    -0.040 SA
BRANCH   3   5
HETATM    5  N   UNL     1      39.997 -14.138  -0.924  1.00  0.00    -0.300 N 
HETATM    6  C   UNL     1      40.832 -15.213  -1.171  1.00  0.00     0.247 C 
HETATM    7  O   UNL     1      40.870 -15.727  -2.286  1.00  0.00    -0.268 OA
HETATM    8  H   UNL     1      39.684 -13.705  -1.785  1.00  0.00     0.171 HD
BRANCH   6   9
HETATM    9  C   UNL     1      41.726 -15.652  -0.075  1.00  0.00     0.077 C 
HETATM   10  C   UNL     1      41.379 -16.694   0.694  1.00  0.00     0.042 C 
BRANCH  10  11
HETATM   11  C   UNL     1      42.273 -17.162   1.695  1.00  0.00     0.076 A 
HETATM   12  O   UNL     1      42.632 -18.484   1.835  1.00  0.00    -0.310 OA
HETATM   13  C   UNL     1      43.491 -18.606   2.886  1.00  0.00     0.086 A 
HETATM   14  C   UNL     1      43.693 -17.366   3.450  1.00  0.00     0.041 A 
HETATM   15  C   UNL     1      42.931 -16.447   2.684  1.00  0.00     0.040 A 
BRANCH  13  16
HETATM   16  C   UNL     1      43.979 -19.954   3.162  1.00  0.00    -0.002 A 
HETATM   17  C   UNL     1      43.959 -20.941   2.166  1.00  0.00     0.014 A 
HETATM   18  C   UNL     1      44.406 -22.240   2.432  1.00  0.00     0.001 A 
HETATM   19  C   UNL     1      44.874 -22.571   3.702  1.00  0.00     0.000 A 
HETATM   20  C   UNL     1      44.901 -21.604   4.703  1.00  0.00     0.001 A 
HETATM   21  C   UNL     1      44.463 -20.305   4.433  1.00  0.00     0.014 A 
ENDBRANCH  13  16
ENDBRANCH  10  11
ENDBRANCH   6   9
ENDBRANCH   3   5
ENDBRANCH   1   3
BRANCH   1  22
HETATM   22  C   UNL     1      40.302 -12.358   2.268  1.00  0.00     0.034 A 
HETATM   23  C   UNL     1      40.920 -13.181   3.211  1.00  0.00     0.031 A 
HETATM   24  C   UNL     1      40.920 -12.832   4.570  1.00  0.00     0.026 A 
HETATM   25  C   UNL     1      40.346 -11.635   5.011  1.00  0.00     0.010 A 
HETATM   26  C   UNL     1      39.767 -10.801   4.043  1.00  0.00     0.026 A 
HETATM   27  C   UNL     1      39.737 -11.157   2.690  1.00  0.00     0.031 A 
BRANCH  25  28
HETATM   28  N   UNL     1      40.313 -11.229   6.350  1.00  0.00    -0.280 NA
HETATM   29  C   UNL     1      41.660 -11.038   6.935  1.00  0.00     0.115 C 
HETATM   30  C   UNL     1      41.559 -10.286   8.275  1.00  0.00     0.141 C 
HETATM   31  N   UNL     1      40.591 -10.899   9.201  1.00  0.00    -0.344 N 
HETATM   32  C   UNL     1      40.599 -10.625  10.577  1.00  0.00     0.277 C 
HETATM   33  C   UNL     1      39.282 -11.176   8.594  1.00  0.00     0.141 C 
HETATM   34  O   UNL     1      39.542 -10.578  11.210  1.00  0.00    -0.265 OA
HETATM   35  C   UNL     1      39.399 -11.943   7.264  1.00  0.00     0.115 C 
BRANCH  32  36
HETATM   36  C   UNL     1      41.873 -10.421  11.249  1.00  0.00     0.142 A 
HETATM   37  O   UNL     1      42.725 -11.471  11.478  1.00  0.00    -0.317 OA
HETATM   38  C   UNL     1      43.786 -10.987  12.172  1.00  0.00     0.143 A 
HETATM   39  C   UNL     1      43.633  -9.644  12.417  1.00  0.00     0.027 A 
HETATM   40  C   UNL     1      42.394  -9.282  11.839  1.00  0.00     0.045 A 
ENDBRANCH  32  36
ENDBRANCH  25  28
ENDBRANCH   1  22
TORSDOF 8
ENDMDL
MODEL 7
REMARK VINA RESULT:      -8.3      3.782      4.859
REMARK  8 active torsions:
REMARK  status: ('A' for Active; 'I' for Inactive)
REMARK    1  A    between atoms: C_4  and  C_5 
REMARK    2  A    between atoms: C_7  and  C_8 
REMARK    3  A    between atoms: C_9  and  C_10 
REMARK       I    between atoms: C_10  and  N_11 
REMARK    4  A    between atoms: N_11  and  C_12 
REMARK    5  A    between atoms: C_12  and  N_13 
REMARK    6  A    between atoms: N_13  and  C_14 
REMARK    7  A    between atoms: C_17  and  N_18 
REMARK       I    between atoms: N_21  and  C_22 
REMARK    8  A    between atoms: C_22  and  C_23 
ROOT
HETATM    1  N   UNL     1      38.157 -11.406   3.307  1.00  0.00    -0.333 N 
HETATM    2  H   UNL     1      37.312 -10.846   3.285  1.00  0.00     0.168 HD
ENDROOT
BRANCH   1   3
HETATM    3  C   UNL     1      38.579 -11.842   2.073  1.00  0.00     0.179 C 
HETATM    4  S   UNL     1      37.780 -12.911   1.062  1.00  0.00    -0.040 SA
BRANCH   3   5
HETATM    5  N   UNL     1      39.850 -11.437   1.694  1.00  0.00    -0.300 N 
HETATM    6  C   UNL     1      41.106 -12.017   1.682  1.00  0.00     0.247 C 
HETATM    7  O   UNL     1      42.005 -11.537   0.996  1.00  0.00    -0.268 OA
HETATM    8  H   UNL     1      39.872 -10.493   1.325  1.00  0.00     0.171 HD
BRANCH   6   9
HETATM    9  C   UNL     1      41.338 -13.167   2.584  1.00  0.00     0.077 C 
HETATM   10  C   UNL     1      41.342 -14.414   2.091  1.00  0.00     0.042 C 
BRANCH  10  11
HETATM   11  C   UNL     1      41.641 -15.511   2.943  1.00  0.00     0.076 A 
HETATM   12  O   UNL     1      42.323 -16.632   2.528  1.00  0.00    -0.310 OA
HETATM   13  C   UNL     1      42.441 -17.499   3.574  1.00  0.00     0.086 A 
HETATM   14  C   UNL     1      41.824 -16.956   4.680  1.00  0.00     0.041 A 
HETATM   15  C   UNL     1      41.330 -15.688   4.283  1.00  0.00     0.040 A 
BRANCH  13  16
HETATM   16  C   UNL     1      43.156 -18.742   3.300  1.00  0.00    -0.002 A 
HETATM   17  C   UNL     1      44.067 -19.263   4.231  1.00  0.00     0.014 A 
HETATM   18  C   UNL     1      44.771 -20.443   3.963  1.00  0.00     0.001 A 
HETATM   19  C   UNL     1      44.576 -21.114   2.758  1.00  0.00     0.000 A 
HETATM   20  C   UNL     1      43.676 -20.611   1.824  1.00  0.00     0.001 A 
HETATM   21  C   UNL     1      42.967 -19.438   2.096  1.00  0.00     0.014 A 
ENDBRANCH  13  16
ENDBRANCH  10  11
ENDBRANCH   6   9
ENDBRANCH   3   5
ENDBRANCH   1   3
BRANCH   1  22
HETATM   22  C   UNL     1      38.887 -11.359   4.513  1.00  0.00     0.034 A 
HETATM   23  C   UNL     1      39.272 -10.113   5.009  1.00  0.00     0.031 A 
HETATM   24  C   UNL     1      39.969 -10.014   6.223  1.00  0.00     0.026 A 
HETATM   25  C   UNL     1      40.257 -11.150   6.988  1.00  0.00     0.010 A 
HETATM   26  C   UNL     1      39.825 -12.388   6.493  1.00  0.00     0.026 A 
HETATM   27  C   UNL     1      39.154 -12.497   5.269  1.00  0.00     0.031 A 
BRANCH  25  28
HETATM   28  N   UNL     1      40.948 -11.120   8.205  1.00  0.00    -0.280 NA
HETATM   29  C   UNL     1      40.138 -10.584   9.322  1.00  0.00     0.115 C 
HETATM   30  C   UNL     1      40.823 -10.881  10.669  1.00  0.00     0.141 C 
HETATM   31  N   UNL     1      42.232 -10.454  10.699  1.00  0.00    -0.344 N 
HETATM   32  C   UNL     1      42.935 -10.282  11.902  1.00  0.00     0.277 C 
HETATM   33  C   UNL     1      43.014 -10.907   9.541  1.00  0.00     0.141 C 
HETATM   34  O   UNL     1      44.136 -10.551  11.966  1.00  0.00    -0.265 OA
HETATM   35  C   UNL     1      42.325 -10.587   8.202  1.00  0.00     0.115 C 
BRANCH  32  36
HETATM   36  C   UNL     1      42.230  -9.759  13.062  1.00  0.00     0.142 A 
HETATM   37  O   UNL     1      41.644  -8.520  13.031  1.00  0.00    -0.317 OA
HETATM   38  C   UNL     1      41.128  -8.285  14.265  1.00  0.00     0.143 A 
HETATM   39  C   UNL     1      41.384  -9.341  15.106  1.00  0.00     0.027 A 
HETATM   40  C   UNL     1      42.108 -10.283  14.338  1.00  0.00     0.045 A 
ENDBRANCH  32  36
ENDBRANCH  25  28
ENDBRANCH   1  22
TORSDOF 8
ENDMDL
MODEL 8
REMARK VINA RESULT:      -8.3      3.700      4.773
REMARK  8 active torsions:
REMARK  status: ('A' for Active; 'I' for Inactive)
REMARK    1  A    between atoms: C_4  and  C_5 
REMARK    2  A    between atoms: C_7  and  C_8 
REMARK    3  A    between atoms: C_9  and  C_10 
REMARK       I    between atoms: C_10  and  N_11 
REMARK    4  A    between atoms: N_11  and  C_12 
REMARK    5  A    between atoms: C_12  and  N_13 
REMARK    6  A    between atoms: N_13  and  C_14 
REMARK    7  A    between atoms: C_17  and  N_18 
REMARK       I    between atoms: N_21  and  C_22 
REMARK    8  A    between atoms: C_22  and  C_23 
ROOT
HETATM    1  N   UNL     1      38.882 -13.259   2.496  1.00  0.00    -0.333 N 
HETATM    2  H   UNL     1      38.080 -13.873   2.576  1.00  0.00     0.168 HD
ENDROOT
BRANCH   1   3
HETATM    3  C   UNL     1      39.311 -13.054   1.206  1.00  0.00     0.179 C 
HETATM    4  S   UNL     1      38.576 -13.605  -0.193  1.00  0.00    -0.040 SA
BRANCH   3   5
HETATM    5  N   UNL     1      40.540 -12.425   1.074  1.00  0.00    -0.300 N 
HETATM    6  C   UNL     1      41.864 -12.828   1.122  1.00  0.00     0.247 C 
HETATM    7  O   UNL     1      42.747 -12.113   0.655  1.00  0.00    -0.268 OA
HETATM    8  H   UNL     1      40.460 -11.433   0.885  1.00  0.00     0.171 HD
BRANCH   6   9
HETATM    9  C   UNL     1      42.169 -14.093   1.826  1.00  0.00     0.077 C 
HETATM   10  C   UNL     1      42.967 -14.083   2.904  1.00  0.00     0.042 C 
BRANCH  10  11
HETATM   11  C   UNL     1      43.196 -15.286   3.625  1.00  0.00     0.076 A 
HETATM   12  O   UNL     1      43.388 -16.508   3.022  1.00  0.00    -0.310 OA
HETATM   13  C   UNL     1      43.572 -17.458   3.982  1.00  0.00     0.086 A 
HETATM   14  C   UNL     1      43.491 -16.866   5.223  1.00  0.00     0.041 A 
HETATM   15  C   UNL     1      43.267 -15.485   4.996  1.00  0.00     0.040 A 
BRANCH  13  16
HETATM   16  C   UNL     1      43.803 -18.818   3.504  1.00  0.00    -0.002 A 
HETATM   17  C   UNL     1      44.573 -19.720   4.253  1.00  0.00     0.014 A 
HETATM   18  C   UNL     1      44.814 -21.017   3.788  1.00  0.00     0.001 A 
HETATM   19  C   UNL     1      44.292 -21.429   2.564  1.00  0.00     0.000 A 
HETATM   20  C   UNL     1      43.525 -20.547   1.808  1.00  0.00     0.001 A 
HETATM   21  C   UNL     1      43.278 -19.255   2.277  1.00  0.00     0.014 A 
ENDBRANCH  13  16
ENDBRANCH  10  11
ENDBRANCH   6   9
ENDBRANCH   3   5
ENDBRANCH   1   3
BRANCH   1  22
HETATM   22  C   UNL     1      39.191 -12.508   3.649  1.00  0.00     0.034 A 
HETATM   23  C   UNL     1      40.034 -13.076   4.606  1.00  0.00     0.031 A 
HETATM   24  C   UNL     1      40.397 -12.354   5.753  1.00  0.00     0.026 A 
HETATM   25  C   UNL     1      39.964 -11.038   5.948  1.00  0.00     0.010 A 
HETATM   26  C   UNL     1      39.153 -10.471   4.956  1.00  0.00     0.026 A 
HETATM   27  C   UNL     1      38.763 -11.195   3.823  1.00  0.00     0.031 A 
BRANCH  25  28
HETATM   28  N   UNL     1      40.290 -10.265   7.069  1.00  0.00    -0.280 NA
HETATM   29  C   UNL     1      41.154 -10.978   8.038  1.00  0.00     0.115 C 
HETATM   30  C   UNL     1      41.739  -9.987   9.062  1.00  0.00     0.141 C 
HETATM   31  N   UNL     1      40.708  -9.145   9.693  1.00  0.00    -0.344 N 
HETATM   32  C   UNL     1      40.942  -8.451  10.890  1.00  0.00     0.277 C 
HETATM   33  C   UNL     1      39.791  -8.512   8.736  1.00  0.00     0.141 C 
HETATM   34  O   UNL     1      40.428  -7.347  11.082  1.00  0.00    -0.265 OA
HETATM   35  C   UNL     1      39.202  -9.518   7.730  1.00  0.00     0.115 C 
BRANCH  32  36
HETATM   36  C   UNL     1      41.778  -9.065  11.910  1.00  0.00     0.142 A 
HETATM   37  O   UNL     1      41.415 -10.248  12.501  1.00  0.00    -0.317 OA
HETATM   38  C   UNL     1      42.347 -10.531  13.446  1.00  0.00     0.143 A 
HETATM   39  C   UNL     1      43.302  -9.545  13.496  1.00  0.00     0.027 A 
HETATM   40  C   UNL     1      42.928  -8.592  12.520  1.00  0.00     0.045 A 
ENDBRANCH  32  36
ENDBRANCH  25  28
ENDBRANCH   1  22
TORSDOF 8
ENDMDL
MODEL 9
REMARK VINA RESULT:      -8.2      3.851      5.043
REMARK  8 active torsions:
REMARK  status: ('A' for Active; 'I' for Inactive)
REMARK    1  A    between atoms: C_4  and  C_5 
REMARK    2  A    between atoms: C_7  and  C_8 
REMARK    3  A    between atoms: C_9  and  C_10 
REMARK       I    between atoms: C_10  and  N_11 
REMARK    4  A    between atoms: N_11  and  C_12 
REMARK    5  A    between atoms: C_12  and  N_13 
REMARK    6  A    between atoms: N_13  and  C_14 
REMARK    7  A    between atoms: C_17  and  N_18 
REMARK       I    between atoms: N_21  and  C_22 
REMARK    8  A    between atoms: C_22  and  C_23 
ROOT
HETATM    1  N   UNL     1      42.170 -12.741   2.507  1.00  0.00    -0.333 N 
HETATM    2  H   UNL     1      42.916 -13.427   2.497  1.00  0.00     0.168 HD
ENDROOT
BRANCH   1   3
HETATM    3  C   UNL     1      41.430 -12.693   1.349  1.00  0.00     0.179 C 
HETATM    4  S   UNL     1      41.664 -11.659   0.053  1.00  0.00    -0.040 SA
BRANCH   3   5
HETATM    5  N   UNL     1      40.310 -13.510   1.317  1.00  0.00    -0.300 N 
HETATM    6  C   UNL     1      39.963 -14.730   1.872  1.00  0.00     0.247 C 
HETATM    7  O   UNL     1      38.785 -15.071   1.933  1.00  0.00    -0.268 OA
HETATM    8  H   UNL     1      39.553 -13.124   0.766  1.00  0.00     0.171 HD
BRANCH   6   9
HETATM    9  C   UNL     1      41.062 -15.625   2.298  1.00  0.00     0.077 C 
HETATM   10  C   UNL     1      41.225 -15.913   3.598  1.00  0.00     0.042 C 
BRANCH  10  11
HETATM   11  C   UNL     1      42.231 -16.833   3.997  1.00  0.00     0.076 A 
HETATM   12  O   UNL     1      42.465 -18.028   3.357  1.00  0.00    -0.310 OA
HETATM   13  C   UNL     1      43.485 -18.681   3.984  1.00  0.00     0.086 A 
HETATM   14  C   UNL     1      43.918 -17.923   5.049  1.00  0.00     0.041 A 
HETATM   15  C   UNL     1      43.132 -16.742   5.048  1.00  0.00     0.040 A 
BRANCH  13  16
HETATM   16  C   UNL     1      43.867 -19.970   3.415  1.00  0.00    -0.002 A 
HETATM   17  C   UNL     1      43.521 -20.302   2.097  1.00  0.00     0.014 A 
HETATM   18  C   UNL     1      43.868 -21.544   1.554  1.00  0.00     0.001 A 
HETATM   19  C   UNL     1      44.561 -22.474   2.326  1.00  0.00     0.000 A 
HETATM   20  C   UNL     1      44.913 -22.162   3.636  1.00  0.00     0.001 A 
HETATM   21  C   UNL     1      44.574 -20.917   4.173  1.00  0.00     0.014 A 
ENDBRANCH  13  16
ENDBRANCH  10  11
ENDBRANCH   6   9
ENDBRANCH   3   5
ENDBRANCH   1   3
BRANCH   1  22
HETATM   22  C   UNL     1      41.844 -12.214   3.774  1.00  0.00     0.034 A 
HETATM   23  C   UNL     1      40.986 -11.115   3.837  1.00  0.00     0.031 A 
HETATM   24  C   UNL     1      40.607 -10.578   5.076  1.00  0.00     0.026 A 
HETATM   25  C   UNL     1      41.037 -11.152   6.277  1.00  0.00     0.010 A 
HETATM   26  C   UNL     1      41.864 -12.281   6.194  1.00  0.00     0.026 A 
HETATM   27  C   UNL     1      42.271 -12.805   4.961  1.00  0.00     0.031 A 
BRANCH  25  28
HETATM   28  N   UNL     1      40.696 -10.665   7.544  1.00  0.00    -0.280 NA
HETATM   29  C   UNL     1      41.852 -10.575   8.465  1.00  0.00     0.115 C 
HETATM   30  C   UNL     1      41.485  -9.737   9.704  1.00  0.00     0.141 C 
HETATM   31  N   UNL     1      40.243 -10.193  10.353  1.00  0.00    -0.344 N 
HETATM   32  C   UNL     1      39.916  -9.839  11.670  1.00  0.00     0.277 C 
HETATM   33  C   UNL     1      39.120 -10.373   9.423  1.00  0.00     0.141 C 
HETATM   34  O   UNL     1      38.741  -9.648  11.992  1.00  0.00    -0.265 OA
HETATM   35  C   UNL     1      39.498 -11.226   8.199  1.00  0.00     0.115 C 
BRANCH  32  36
HETATM   36  C   UNL     1      40.980  -9.724  12.655  1.00  0.00     0.142 A 
HETATM   37  O   UNL     1      41.774  -8.608  12.707  1.00  0.00    -0.317 OA
HETATM   38  C   UNL     1      42.707  -8.818  13.672  1.00  0.00     0.143 A 
HETATM   39  C   UNL     1      42.546 -10.060  14.237  1.00  0.00     0.027 A 
HETATM   40  C   UNL     1      41.447 -10.651  13.572  1.00  0.00     0.045 A 
ENDBRANCH  32  36
ENDBRANCH  25  28
ENDBRANCH   1  22
TORSDOF 8
ENDMDL
MODEL 10
REMARK VINA RESULT:      -8.2      3.562      4.532
REMARK  8 active torsions:
REMARK  status: ('A' for Active; 'I' for Inactive)
REMARK    1  A    between atoms: C_4  and  C_5 
REMARK    2  A    between atoms: C_7  and  C_8 
REMARK    3  A    between atoms: C_9  and  C_10 
REMARK       I    between atoms: C_10  and  N_11 
REMARK    4  A    between atoms: N_11  and  C_12 
REMARK    5  A    between atoms: C_12  and  N_13 
REMARK    6  A    between atoms: N_13  and  C_14 
REMARK    7  A    between atoms: C_17  and  N_18 
REMARK       I    between atoms: N_21  and  C_22 
REMARK    8  A    between atoms: C_22  and  C_23 
ROOT
HETATM    1  N   UNL     1      40.993 -13.688   2.025  1.00  0.00    -0.333 N 
HETATM    2  H   UNL     1      41.850 -14.220   1.926  1.00  0.00     0.168 HD
ENDROOT
BRANCH   1   3
HETATM    3  C   UNL     1      40.058 -13.934   1.048  1.00  0.00     0.179 C 
HETATM    4  S   UNL     1      38.395 -13.817   1.201  1.00  0.00    -0.040 SA
BRANCH   3   5
HETATM    5  N   UNL     1      40.553 -14.443  -0.143  1.00  0.00    -0.300 N 
HETATM    6  C   UNL     1      40.993 -15.681  -0.579  1.00  0.00     0.247 C 
HETATM    7  O   UNL     1      41.080 -15.920  -1.781  1.00  0.00    -0.268 OA
HETATM    8  H   UNL     1      40.595 -13.752  -0.883  1.00  0.00     0.171 HD
BRANCH   6   9
HETATM    9  C   UNL     1      41.430 -16.652   0.448  1.00  0.00     0.077 C 
HETATM   10  C   UNL     1      42.731 -16.763   0.754  1.00  0.00     0.042 C 
BRANCH  10  11
HETATM   11  C   UNL     1      43.140 -17.640   1.794  1.00  0.00     0.076 A 
HETATM   12  O   UNL     1      43.097 -17.308   3.129  1.00  0.00    -0.310 OA
HETATM   13  C   UNL     1      43.562 -18.355   3.868  1.00  0.00     0.086 A 
HETATM   14  C   UNL     1      43.925 -19.378   3.020  1.00  0.00     0.041 A 
HETATM   15  C   UNL     1      43.643 -18.929   1.705  1.00  0.00     0.040 A 
BRANCH  13  16
HETATM   16  C   UNL     1      43.570 -18.166   5.316  1.00  0.00    -0.002 A 
HETATM   17  C   UNL     1      42.465 -17.601   5.970  1.00  0.00     0.014 A 
HETATM   18  C   UNL     1      42.477 -17.399   7.354  1.00  0.00     0.001 A 
HETATM   19  C   UNL     1      43.597 -17.755   8.103  1.00  0.00     0.000 A 
HETATM   20  C   UNL     1      44.701 -18.317   7.470  1.00  0.00     0.001 A 
HETATM   21  C   UNL     1      44.685 -18.527   6.088  1.00  0.00     0.014 A 
ENDBRANCH  13  16
ENDBRANCH  10  11
ENDBRANCH   6   9
ENDBRANCH   3   5
ENDBRANCH   1   3
BRANCH   1  22
HETATM   22  C   UNL     1      40.806 -13.064   3.276  1.00  0.00     0.034 A 
HETATM   23  C   UNL     1      40.447 -13.857   4.367  1.00  0.00     0.031 A 
HETATM   24  C   UNL     1      40.283 -13.286   5.638  1.00  0.00     0.026 A 
HETATM   25  C   UNL     1      40.518 -11.925   5.857  1.00  0.00     0.010 A 
HETATM   26  C   UNL     1      40.919 -11.153   4.757  1.00  0.00     0.026 A 
HETATM   27  C   UNL     1      41.056 -11.709   3.480  1.00  0.00     0.031 A 
BRANCH  25  28
HETATM   28  N   UNL     1      40.372 -11.294   7.099  1.00  0.00    -0.280 NA
HETATM   29  C   UNL     1      41.658 -11.090   7.803  1.00  0.00     0.115 C 
HETATM   30  C   UNL     1      41.473 -10.115   8.981  1.00  0.00     0.141 C 
HETATM   31  N   UNL     1      40.364 -10.500   9.871  1.00  0.00    -0.344 N 
HETATM   32  C   UNL     1      40.243  -9.996  11.175  1.00  0.00     0.277 C 
HETATM   33  C   UNL     1      39.111 -10.794   9.163  1.00  0.00     0.141 C 
HETATM   34  O   UNL     1      39.131  -9.776  11.659  1.00  0.00    -0.265 OA
HETATM   35  C   UNL     1      39.309 -11.783   7.999  1.00  0.00     0.115 C 
BRANCH  32  36
HETATM   36  C   UNL     1      41.449  -9.759  11.954  1.00  0.00     0.142 A 
HETATM   37  O   UNL     1      42.213 -10.805  12.404  1.00  0.00    -0.317 OA
HETATM   38  C   UNL     1      43.220 -10.280  13.147  1.00  0.00     0.143 A 
HETATM   39  C   UNL     1      43.116  -8.911  13.206  1.00  0.00     0.027 A 
HETATM   40  C   UNL     1      41.967  -8.576  12.453  1.00  0.00     0.045 A 
ENDBRANCH  32  36
ENDBRANCH  25  28
ENDBRANCH   1  22
TORSDOF 8
ENDMDL
