MODEL 1
REMARK VINA RESULT:      -8.1      0.000      0.000
REMARK  9 active torsions:
REMARK  status: ('A' for Active; 'I' for Inactive)
REMARK    1  A    between atoms: O_2  and  C_3 
REMARK    2  A    between atoms: C_3  and  C_4 
REMARK    3  A    between atoms: C_4  and  O_5 
REMARK    4  A    between atoms: O_5  and  C_6 
REMARK    5  A    between atoms: C_8  and  C_25 
REMARK    6  A    between atoms: C_11  and  C_12 
REMARK       I    between atoms: C_12  and  N_14 
REMARK    7  A    between atoms: N_14  and  C_15 
REMARK    8  A    between atoms: C_15  and  C_17 
REMARK    9  A    between atoms: C_21  and  O_22 
ROOT
HETATM    1  C   UNL     1      43.212 -16.930   3.915  1.00  0.00     0.085 A 
HETATM    2  C   UNL     1      43.514 -18.291   4.044  1.00  0.00     0.050 A 
HETATM    3  C   UNL     1      43.880 -19.053   2.925  1.00  0.00    -0.020 A 
HETATM    4  C   UNL     1      43.933 -18.424   1.673  1.00  0.00     0.013 A 
HETATM    5  C   UNL     1      43.661 -17.057   1.548  1.00  0.00     0.021 A 
HETATM    6  C   UNL     1      43.329 -16.292   2.673  1.00  0.00     0.065 A 
ENDROOT
BRANCH   6   7
HETATM    7  C   UNL     1      43.159 -14.828   2.471  1.00  0.00     0.255 C 
HETATM    8  O   UNL     1      43.836 -14.039   3.121  1.00  0.00    -0.268 OA
HETATM    9  N   UNL     1      42.186 -14.448   1.576  1.00  0.00    -0.349 N 
HETATM   10  H   UNL     1      41.755 -15.165   1.003  1.00  0.00     0.163 HD
BRANCH   9  11
HETATM   11  C   UNL     1      41.926 -13.059   1.243  1.00  0.00     0.114 C 
HETATM   12  C   UNL     1      40.582 -12.622   1.829  1.00  0.00     0.037 C 
BRANCH  11  13
HETATM   13  C   UNL     1      42.025 -12.867  -0.260  1.00  0.00    -0.033 A 
HETATM   14  C   UNL     1      42.553 -11.669  -0.764  1.00  0.00     0.009 A 
HETATM   15  C   UNL     1      42.673 -11.466  -2.138  1.00  0.00     0.003 A 
HETATM   16  C   UNL     1      42.281 -12.467  -3.023  1.00  0.00     0.037 A 
HETATM   17  C   UNL     1      41.779 -13.680  -2.547  1.00  0.00     0.068 A 
HETATM   18  C   UNL     1      41.652 -13.875  -1.169  1.00  0.00     0.046 A 
BRANCH  17  19
HETATM   19  O   UNL     1      41.451 -14.583  -3.521  1.00  0.00    -0.356 OA
HETATM   20  C   UNL     1      40.634 -15.680  -3.128  1.00  0.00     0.210 C 
ENDBRANCH  17  19
ENDBRANCH  11  13
ENDBRANCH   9  11
ENDBRANCH   6   7
BRANCH   1  21
HETATM   21  O   UNL     1      42.860 -16.269   5.065  1.00  0.00    -0.348 OA
BRANCH  21  22
HETATM   22  C   UNL     1      43.892 -16.360   6.070  1.00  0.00     0.201 C 
BRANCH  22  23
HETATM   23  C   UNL     1      43.273 -16.447   7.464  1.00  0.00     0.193 C 
BRANCH  23  24
HETATM   24  O   UNL     1      42.855 -17.791   7.724  1.00  0.00    -0.394 OA
HETATM   25  C   UNL     1      43.954 -18.692   7.707  1.00  0.00     0.201 C 
ENDBRANCH  23  24
ENDBRANCH  22  23
ENDBRANCH  21  22
ENDBRANCH   1  21
BRANCH   3  26
HETATM   26  C   UNL     1      44.222 -20.457   3.075  1.00  0.00     0.010 A 
HETATM   27  C   UNL     1      44.197 -21.521   2.141  1.00  0.00     0.152 A 
HETATM   28  N   UNL     1      44.585 -22.685   2.669  1.00  0.00    -0.187 NA
HETATM   29  N   UNL     1      44.856 -22.375   3.945  1.00  0.00    -0.289 N 
HETATM   30  H   UNL     1      45.171 -23.116   4.563  1.00  0.00     0.188 HD
HETATM   31  C   UNL     1      44.660 -21.056   4.238  1.00  0.00     0.123 A 
ENDBRANCH   3  26
TORSDOF 9
ENDMDL
MODEL 2
REMARK VINA RESULT:      -8.1      0.978      1.312
REMARK  9 active torsions:
REMARK  status: ('A' for Active; 'I' for Inactive)
REMARK    1  A    between atoms: O_2  and  C_3 
REMARK    2  A    between atoms: C_3  and  C_4 
REMARK    3  A    between atoms: C_4  and  O_5 
REMARK    4  A    between atoms: O_5  and  C_6 
REMARK    5  A    between atoms: C_8  and  C_25 
REMARK    6  A    between atoms: C_11  and  C_12 
REMARK       I    between atoms: C_12  and  N_14 
REMARK    7  A    between atoms: N_14  and  C_15 
REMARK    8  A    between atoms: C_15  and  C_17 
REMARK    9  A    between atoms: C_21  and  O_22 
ROOT
HETATM    1  C   UNL     1      43.090 -16.981   3.863  1.00  0.00     0.085 A 
HETATM    2  C   UNL     1      43.417 -18.336   3.998  1.00  0.00     0.050 A 
HETATM    3  C   UNL     1      43.857 -19.080   2.893  1.00  0.00    -0.020 A 
HETATM    4  C   UNL     1      43.958 -18.440   1.650  1.00  0.00     0.013 A 
HETATM    5  C   UNL     1      43.660 -17.079   1.520  1.00  0.00     0.021 A 
HETATM    6  C   UNL     1      43.255 -16.331   2.633  1.00  0.00     0.065 A 
ENDROOT
BRANCH   6   7
HETATM    7  C   UNL     1      43.061 -14.869   2.432  1.00  0.00     0.255 C 
HETATM    8  O   UNL     1      43.765 -14.070   3.039  1.00  0.00    -0.268 OA
HETATM    9  N   UNL     1      42.036 -14.504   1.590  1.00  0.00    -0.349 N 
HETATM   10  H   UNL     1      41.581 -15.227   1.046  1.00  0.00     0.163 HD
BRANCH   9  11
HETATM   11  C   UNL     1      41.746 -13.119   1.264  1.00  0.00     0.114 C 
HETATM   12  C   UNL     1      40.352 -12.743   1.768  1.00  0.00     0.037 C 
BRANCH  11  13
HETATM   13  C   UNL     1      41.935 -12.894  -0.226  1.00  0.00    -0.033 A 
HETATM   14  C   UNL     1      42.564 -11.720  -0.667  1.00  0.00     0.009 A 
HETATM   15  C   UNL     1      42.767 -11.490  -2.027  1.00  0.00     0.003 A 
HETATM   16  C   UNL     1      42.359 -12.440  -2.960  1.00  0.00     0.037 A 
HETATM   17  C   UNL     1      41.757 -13.629  -2.545  1.00  0.00     0.068 A 
HETATM   18  C   UNL     1      41.546 -13.852  -1.182  1.00  0.00     0.046 A 
BRANCH  17  19
HETATM   19  O   UNL     1      41.423 -14.484  -3.560  1.00  0.00    -0.356 OA
HETATM   20  C   UNL     1      40.710 -15.660  -3.199  1.00  0.00     0.210 C 
ENDBRANCH  17  19
ENDBRANCH  11  13
ENDBRANCH   9  11
ENDBRANCH   6   7
BRANCH   1  21
HETATM   21  O   UNL     1      42.665 -16.338   4.998  1.00  0.00    -0.348 OA
BRANCH  21  22
HETATM   22  C   UNL     1      43.712 -16.256   5.989  1.00  0.00     0.201 C 
BRANCH  22  23
HETATM   23  C   UNL     1      43.728 -14.872   6.636  1.00  0.00     0.193 C 
BRANCH  23  24
HETATM   24  O   UNL     1      45.070 -14.519   6.989  1.00  0.00    -0.394 OA
HETATM   25  C   UNL     1      45.108 -13.336   7.774  1.00  0.00     0.201 C 
ENDBRANCH  23  24
ENDBRANCH  22  23
ENDBRANCH  21  22
ENDBRANCH   1  21
BRANCH   3  26
HETATM   26  C   UNL     1      44.225 -20.477   3.051  1.00  0.00     0.010 A 
HETATM   27  C   UNL     1      44.210 -21.548   2.125  1.00  0.00     0.152 A 
HETATM   28  N   UNL     1      44.622 -22.701   2.658  1.00  0.00    -0.187 NA
HETATM   29  N   UNL     1      44.897 -22.377   3.931  1.00  0.00    -0.289 N 
HETATM   30  H   UNL     1      45.230 -23.108   4.552  1.00  0.00     0.188 HD
HETATM   31  C   UNL     1      44.681 -21.059   4.216  1.00  0.00     0.123 A 
ENDBRANCH   3  26
TORSDOF 9
ENDMDL
MODEL 3
REMARK VINA RESULT:      -7.7      2.100      3.867
REMARK  9 active torsions:
REMARK  status: ('A' for Active; 'I' for Inactive)
REMARK    1  A    between atoms: O_2  and  C_3 
REMARK    2  A    between atoms: C_3  and  C_4 
REMARK    3  A    between atoms: C_4  and  O_5 
REMARK    4  A    between atoms: O_5  and  C_6 
REMARK    5  A    between atoms: C_8  and  C_25 
REMARK    6  A    between atoms: C_11  and  C_12 
REMARK       I    between atoms: C_12  and  N_14 
REMARK    7  A    between atoms: N_14  and  C_15 
REMARK    8  A    between atoms: C_15  and  C_17 
REMARK    9  A    between atoms: C_21  and  O_22 
ROOT
HETATM    1  C   UNL     1      43.689 -17.268   3.108  1.00  0.00     0.085 A 
HETATM    2  C   UNL     1      43.998 -18.617   2.893  1.00  0.00     0.050 A 
HETATM    3  C   UNL     1      44.150 -19.497   3.975  1.00  0.00    -0.020 A 
HETATM    4  C   UNL     1      43.991 -18.997   5.275  1.00  0.00     0.013 A 
HETATM    5  C   UNL     1      43.653 -17.656   5.489  1.00  0.00     0.021 A 
HETATM    6  C   UNL     1      43.468 -16.788   4.405  1.00  0.00     0.065 A 
ENDROOT
BRANCH   6   7
HETATM    7  C   UNL     1      43.007 -15.407   4.714  1.00  0.00     0.255 C 
HETATM    8  O   UNL     1      43.747 -14.636   5.312  1.00  0.00    -0.268 OA
HETATM    9  N   UNL     1      41.719 -15.100   4.341  1.00  0.00    -0.349 N 
HETATM   10  H   UNL     1      41.220 -15.758   3.753  1.00  0.00     0.163 HD
BRANCH   9  11
HETATM   11  C   UNL     1      41.138 -13.784   4.539  1.00  0.00     0.114 C 
HETATM   12  C   UNL     1      39.852 -13.898   5.359  1.00  0.00     0.037 C 
BRANCH  11  13
HETATM   13  C   UNL     1      40.945 -13.103   3.196  1.00  0.00    -0.033 A 
HETATM   14  C   UNL     1      39.647 -12.774   2.776  1.00  0.00     0.009 A 
HETATM   15  C   UNL     1      39.436 -12.134   1.555  1.00  0.00     0.003 A 
HETATM   16  C   UNL     1      40.522 -11.800   0.749  1.00  0.00     0.037 A 
HETATM   17  C   UNL     1      41.825 -12.091   1.158  1.00  0.00     0.068 A 
HETATM   18  C   UNL     1      42.032 -12.741   2.378  1.00  0.00     0.046 A 
BRANCH  17  19
HETATM   19  O   UNL     1      42.799 -11.693   0.284  1.00  0.00    -0.356 OA
HETATM   20  C   UNL     1      42.367 -11.234  -0.991  1.00  0.00     0.210 C 
ENDBRANCH  17  19
ENDBRANCH  11  13
ENDBRANCH   9  11
ENDBRANCH   6   7
BRANCH   1  21
HETATM   21  O   UNL     1      43.565 -16.483   1.989  1.00  0.00    -0.348 OA
BRANCH  21  22
HETATM   22  C   UNL     1      42.706 -17.094   1.002  1.00  0.00     0.201 C 
BRANCH  22  23
HETATM   23  C   UNL     1      41.739 -16.062   0.423  1.00  0.00     0.193 C 
BRANCH  23  24
HETATM   24  O   UNL     1      40.660 -15.844   1.339  1.00  0.00    -0.394 OA
HETATM   25  C   UNL     1      40.198 -17.065   1.900  1.00  0.00     0.201 C 
ENDBRANCH  23  24
ENDBRANCH  22  23
ENDBRANCH  21  22
ENDBRANCH   1  21
BRANCH   3  26
HETATM   26  C   UNL     1      44.438 -20.902   3.741  1.00  0.00     0.010 A 
HETATM   27  C   UNL     1      44.418 -21.665   2.548  1.00  0.00     0.152 A 
HETATM   28  N   UNL     1      44.743 -22.945   2.745  1.00  0.00    -0.187 NA
HETATM   29  N   UNL     1      44.968 -23.012   4.066  1.00  0.00    -0.289 N 
HETATM   30  H   UNL     1      45.231 -23.907   4.464  1.00  0.00     0.188 HD
HETATM   31  C   UNL     1      44.804 -21.817   4.707  1.00  0.00     0.123 A 
ENDBRANCH   3  26
TORSDOF 9
ENDMDL
MODEL 4
REMARK VINA RESULT:      -7.7      1.567      2.535
REMARK  9 active torsions:
REMARK  status: ('A' for Active; 'I' for Inactive)
REMARK    1  A    between atoms: O_2  and  C_3 
REMARK    2  A    between atoms: C_3  and  C_4 
REMARK    3  A    between atoms: C_4  and  O_5 
REMARK    4  A    between atoms: O_5  and  C_6 
REMARK    5  A    between atoms: C_8  and  C_25 
REMARK    6  A    between atoms: C_11  and  C_12 
REMARK       I    between atoms: C_12  and  N_14 
REMARK    7  A    between atoms: N_14  and  C_15 
REMARK    8  A    between atoms: C_15  and  C_17 
REMARK    9  A    between atoms: C_21  and  O_22 
ROOT
HETATM    1  C   UNL     1      43.279 -16.979   4.024  1.00  0.00     0.085 A 
HETATM    2  C   UNL     1      43.595 -18.340   4.128  1.00  0.00     0.050 A 
HETATM    3  C   UNL     1      43.885 -19.096   2.983  1.00  0.00    -0.020 A 
HETATM    4  C   UNL     1      43.848 -18.464   1.733  1.00  0.00     0.013 A 
HETATM    5  C   UNL     1      43.562 -17.098   1.631  1.00  0.00     0.021 A 
HETATM    6  C   UNL     1      43.307 -16.338   2.780  1.00  0.00     0.065 A 
ENDROOT
BRANCH   6   7
HETATM    7  C   UNL     1      43.117 -14.873   2.595  1.00  0.00     0.255 C 
HETATM    8  O   UNL     1      43.927 -14.087   3.073  1.00  0.00    -0.268 OA
HETATM    9  N   UNL     1      41.980 -14.489   1.922  1.00  0.00    -0.349 N 
HETATM   10  H   UNL     1      41.428 -15.206   1.466  1.00  0.00     0.163 HD
BRANCH   9  11
HETATM   11  C   UNL     1      41.673 -13.101   1.630  1.00  0.00     0.114 C 
HETATM   12  C   UNL     1      40.227 -12.790   2.017  1.00  0.00     0.037 C 
BRANCH  11  13
HETATM   13  C   UNL     1      41.990 -12.803   0.175  1.00  0.00    -0.033 A 
HETATM   14  C   UNL     1      41.688 -13.764  -0.802  1.00  0.00     0.009 A 
HETATM   15  C   UNL     1      41.952 -13.516  -2.149  1.00  0.00     0.003 A 
HETATM   16  C   UNL     1      42.505 -12.297  -2.535  1.00  0.00     0.037 A 
HETATM   17  C   UNL     1      42.788 -11.314  -1.585  1.00  0.00     0.068 A 
HETATM   18  C   UNL     1      42.531 -11.570  -0.235  1.00  0.00     0.046 A 
BRANCH  17  19
HETATM   19  O   UNL     1      43.309 -10.158  -2.099  1.00  0.00    -0.356 OA
HETATM   20  C   UNL     1      44.047  -9.334  -1.205  1.00  0.00     0.210 C 
ENDBRANCH  17  19
ENDBRANCH  11  13
ENDBRANCH   9  11
ENDBRANCH   6   7
BRANCH   1  21
HETATM   21  O   UNL     1      43.004 -16.324   5.198  1.00  0.00    -0.348 OA
BRANCH  21  22
HETATM   22  C   UNL     1      41.621 -16.472   5.582  1.00  0.00     0.201 C 
BRANCH  22  23
HETATM   23  C   UNL     1      40.938 -15.108   5.659  1.00  0.00     0.193 C 
BRANCH  23  24
HETATM   24  O   UNL     1      41.924 -14.085   5.841  1.00  0.00    -0.394 OA
HETATM   25  C   UNL     1      41.401 -12.798   5.538  1.00  0.00     0.201 C 
ENDBRANCH  23  24
ENDBRANCH  22  23
ENDBRANCH  21  22
ENDBRANCH   1  21
BRANCH   3  26
HETATM   26  C   UNL     1      44.243 -20.500   3.104  1.00  0.00     0.010 A 
HETATM   27  C   UNL     1      44.246 -21.541   2.144  1.00  0.00     0.152 A 
HETATM   28  N   UNL     1      44.640 -22.712   2.649  1.00  0.00    -0.187 NA
HETATM   29  N   UNL     1      44.888 -22.431   3.937  1.00  0.00    -0.289 N 
HETATM   30  H   UNL     1      45.203 -23.183   4.542  1.00  0.00     0.188 HD
HETATM   31  C   UNL     1      44.670 -21.122   4.259  1.00  0.00     0.123 A 
ENDBRANCH   3  26
TORSDOF 9
ENDMDL
MODEL 5
REMARK VINA RESULT:      -7.5      2.080      3.500
REMARK  9 active torsions:
REMARK  status: ('A' for Active; 'I' for Inactive)
REMARK    1  A    between atoms: O_2  and  C_3 
REMARK    2  A    between atoms: C_3  and  C_4 
REMARK    3  A    between atoms: C_4  and  O_5 
REMARK    4  A    between atoms: O_5  and  C_6 
REMARK    5  A    between atoms: C_8  and  C_25 
REMARK    6  A    between atoms: C_11  and  C_12 
REMARK       I    between atoms: C_12  and  N_14 
REMARK    7  A    between atoms: N_14  and  C_15 
REMARK    8  A    between atoms: C_15  and  C_17 
REMARK    9  A    between atoms: C_21  and  O_22 
ROOT
HETATM    1  C   UNL     1      42.554 -15.594   2.126  1.00  0.00     0.085 A 
HETATM    2  C   UNL     1      43.316 -16.448   2.933  1.00  0.00     0.050 A 
HETATM    3  C   UNL     1      43.150 -17.838   2.860  1.00  0.00    -0.020 A 
HETATM    4  C   UNL     1      42.202 -18.356   1.967  1.00  0.00     0.013 A 
HETATM    5  C   UNL     1      41.461 -17.506   1.140  1.00  0.00     0.021 A 
HETATM    6  C   UNL     1      41.654 -16.119   1.190  1.00  0.00     0.065 A 
ENDROOT
BRANCH   6   7
HETATM    7  C   UNL     1      40.904 -15.295   0.203  1.00  0.00     0.255 C 
HETATM    8  O   UNL     1      39.867 -14.734   0.539  1.00  0.00    -0.268 OA
HETATM    9  N   UNL     1      41.417 -15.260  -1.073  1.00  0.00    -0.349 N 
HETATM   10  H   UNL     1      42.335 -15.658  -1.232  1.00  0.00     0.163 HD
BRANCH   9  11
HETATM   11  C   UNL     1      40.821 -14.471  -2.136  1.00  0.00     0.114 C 
HETATM   12  C   UNL     1      40.740 -15.298  -3.420  1.00  0.00     0.037 C 
BRANCH  11  13
HETATM   13  C   UNL     1      41.587 -13.170  -2.298  1.00  0.00    -0.033 A 
HETATM   14  C   UNL     1      41.645 -12.562  -3.561  1.00  0.00     0.009 A 
HETATM   15  C   UNL     1      42.326 -11.359  -3.741  1.00  0.00     0.003 A 
HETATM   16  C   UNL     1      42.943 -10.742  -2.655  1.00  0.00     0.037 A 
HETATM   17  C   UNL     1      42.876 -11.312  -1.383  1.00  0.00     0.068 A 
HETATM   18  C   UNL     1      42.199 -12.523  -1.208  1.00  0.00     0.046 A 
BRANCH  17  19
HETATM   19  O   UNL     1      43.506 -10.595  -0.403  1.00  0.00    -0.356 OA
HETATM   20  C   UNL     1      43.454  -9.178  -0.512  1.00  0.00     0.210 C 
ENDBRANCH  17  19
ENDBRANCH  11  13
ENDBRANCH   9  11
ENDBRANCH   6   7
BRANCH   1  21
HETATM   21  O   UNL     1      42.783 -14.249   2.270  1.00  0.00    -0.348 OA
BRANCH  21  22
HETATM   22  C   UNL     1      43.503 -13.958   3.487  1.00  0.00     0.201 C 
BRANCH  22  23
HETATM   23  C   UNL     1      42.658 -13.084   4.412  1.00  0.00     0.193 C 
BRANCH  23  24
HETATM   24  O   UNL     1      42.606 -13.670   5.717  1.00  0.00    -0.394 OA
HETATM   25  C   UNL     1      43.816 -14.345   6.034  1.00  0.00     0.201 C 
ENDBRANCH  23  24
ENDBRANCH  22  23
ENDBRANCH  21  22
ENDBRANCH   1  21
BRANCH   3  26
HETATM   26  C   UNL     1      43.970 -18.717   3.678  1.00  0.00     0.010 A 
HETATM   27  C   UNL     1      44.538 -19.982   3.395  1.00  0.00     0.152 A 
HETATM   28  N   UNL     1      45.232 -20.482   4.420  1.00  0.00    -0.187 NA
HETATM   29  N   UNL     1      45.108 -19.543   5.370  1.00  0.00    -0.289 N 
HETATM   30  H   UNL     1      45.555 -19.703   6.267  1.00  0.00     0.188 HD
HETATM   31  C   UNL     1      44.366 -18.466   4.976  1.00  0.00     0.123 A 
ENDBRANCH   3  26
TORSDOF 9
ENDMDL
MODEL 6
REMARK VINA RESULT:      -7.4      1.662      2.240
REMARK  9 active torsions:
REMARK  status: ('A' for Active; 'I' for Inactive)
REMARK    1  A    between atoms: O_2  and  C_3 
REMARK    2  A    between atoms: C_3  and  C_4 
REMARK    3  A    between atoms: C_4  and  O_5 
REMARK    4  A    between atoms: O_5  and  C_6 
REMARK    5  A    between atoms: C_8  and  C_25 
REMARK    6  A    between atoms: C_11  and  C_12 
REMARK       I    between atoms: C_12  and  N_14 
REMARK    7  A    between atoms: N_14  and  C_15 
REMARK    8  A    between atoms: C_15  and  C_17 
REMARK    9  A    between atoms: C_21  and  O_22 
ROOT
HETATM    1  C   UNL     1      43.514 -17.205   4.181  1.00  0.00     0.085 A 
HETATM    2  C   UNL     1      43.895 -18.542   4.349  1.00  0.00     0.050 A 
HETATM    3  C   UNL     1      43.907 -19.425   3.259  1.00  0.00    -0.020 A 
HETATM    4  C   UNL     1      43.526 -18.942   1.999  1.00  0.00     0.013 A 
HETATM    5  C   UNL     1      43.174 -17.599   1.825  1.00  0.00     0.021 A 
HETATM    6  C   UNL     1      43.197 -16.712   2.909  1.00  0.00     0.065 A 
ENDROOT
BRANCH   6   7
HETATM    7  C   UNL     1      42.912 -15.280   2.619  1.00  0.00     0.255 C 
HETATM    8  O   UNL     1      43.813 -14.451   2.693  1.00  0.00    -0.268 OA
HETATM    9  N   UNL     1      41.605 -14.968   2.330  1.00  0.00    -0.349 N 
HETATM   10  H   UNL     1      40.952 -15.729   2.180  1.00  0.00     0.163 HD
BRANCH   9  11
HETATM   11  C   UNL     1      41.177 -13.623   1.989  1.00  0.00     0.114 C 
HETATM   12  C   UNL     1      40.858 -12.836   3.260  1.00  0.00     0.037 C 
BRANCH  11  13
HETATM   13  C   UNL     1      40.019 -13.689   1.008  1.00  0.00    -0.033 A 
HETATM   14  C   UNL     1      38.732 -13.979   1.487  1.00  0.00     0.009 A 
HETATM   15  C   UNL     1      37.645 -14.031   0.616  1.00  0.00     0.003 A 
HETATM   16  C   UNL     1      37.829 -13.777  -0.741  1.00  0.00     0.037 A 
HETATM   17  C   UNL     1      39.095 -13.457  -1.237  1.00  0.00     0.068 A 
HETATM   18  C   UNL     1      40.184 -13.415  -0.363  1.00  0.00     0.046 A 
BRANCH  17  19
HETATM   19  O   UNL     1      39.134 -13.211  -2.583  1.00  0.00    -0.356 OA
HETATM   20  C   UNL     1      37.901 -12.882  -3.210  1.00  0.00     0.210 C 
ENDBRANCH  17  19
ENDBRANCH  11  13
ENDBRANCH   9  11
ENDBRANCH   6   7
BRANCH   1  21
HETATM   21  O   UNL     1      43.529 -16.419   5.306  1.00  0.00    -0.348 OA
BRANCH  21  22
HETATM   22  C   UNL     1      44.043 -17.134   6.450  1.00  0.00     0.201 C 
BRANCH  22  23
HETATM   23  C   UNL     1      43.432 -16.588   7.739  1.00  0.00     0.193 C 
BRANCH  23  24
HETATM   24  O   UNL     1      43.567 -17.556   8.786  1.00  0.00    -0.394 OA
HETATM   25  C   UNL     1      44.194 -18.743   8.319  1.00  0.00     0.201 C 
ENDBRANCH  23  24
ENDBRANCH  22  23
ENDBRANCH  21  22
ENDBRANCH   1  21
BRANCH   3  26
HETATM   26  C   UNL     1      44.335 -20.802   3.437  1.00  0.00     0.010 A 
HETATM   27  C   UNL     1      44.363 -21.888   2.528  1.00  0.00     0.152 A 
HETATM   28  N   UNL     1      44.826 -23.013   3.077  1.00  0.00    -0.187 NA
HETATM   29  N   UNL     1      45.093 -22.658   4.343  1.00  0.00    -0.289 N 
HETATM   30  H   UNL     1      45.459 -23.364   4.973  1.00  0.00     0.188 HD
HETATM   31  C   UNL     1      44.821 -21.346   4.608  1.00  0.00     0.123 A 
ENDBRANCH   3  26
TORSDOF 9
ENDMDL
MODEL 7
REMARK VINA RESULT:      -7.2      1.858      2.805
REMARK  9 active torsions:
REMARK  status: ('A' for Active; 'I' for Inactive)
REMARK    1  A    between atoms: O_2  and  C_3 
REMARK    2  A    between atoms: C_3  and  C_4 
REMARK    3  A    between atoms: C_4  and  O_5 
REMARK    4  A    between atoms: O_5  and  C_6 
REMARK    5  A    between atoms: C_8  and  C_25 
REMARK    6  A    between atoms: C_11  and  C_12 
REMARK       I    between atoms: C_12  and  N_14 
REMARK    7  A    between atoms: N_14  and  C_15 
REMARK    8  A    between atoms: C_15  and  C_17 
REMARK    9  A    between atoms: C_21  and  O_22 
ROOT
HETATM    1  C   UNL     1      41.969 -17.263   3.347  1.00  0.00     0.085 A 
HETATM    2  C   UNL     1      42.555 -18.473   3.741  1.00  0.00     0.050 A 
HETATM    3  C   UNL     1      43.459 -19.138   2.900  1.00  0.00    -0.020 A 
HETATM    4  C   UNL     1      43.761 -18.568   1.655  1.00  0.00     0.013 A 
HETATM    5  C   UNL     1      43.199 -17.345   1.273  1.00  0.00     0.021 A 
HETATM    6  C   UNL     1      42.323 -16.667   2.130  1.00  0.00     0.065 A 
ENDROOT
BRANCH   6   7
HETATM    7  C   UNL     1      41.854 -15.323   1.695  1.00  0.00     0.255 C 
HETATM    8  O   UNL     1      42.506 -14.326   1.983  1.00  0.00    -0.268 OA
HETATM    9  N   UNL     1      40.655 -15.288   1.022  1.00  0.00    -0.349 N 
HETATM   10  H   UNL     1      40.244 -16.167   0.729  1.00  0.00     0.163 HD
BRANCH   9  11
HETATM   11  C   UNL     1      40.085 -14.059   0.500  1.00  0.00     0.114 C 
HETATM   12  C   UNL     1      38.564 -14.078   0.660  1.00  0.00     0.037 C 
BRANCH  11  13
HETATM   13  C   UNL     1      40.542 -13.851  -0.933  1.00  0.00    -0.033 A 
HETATM   14  C   UNL     1      40.716 -14.967  -1.765  1.00  0.00     0.009 A 
HETATM   15  C   UNL     1      41.120 -14.811  -3.090  1.00  0.00     0.003 A 
HETATM   16  C   UNL     1      41.338 -13.534  -3.603  1.00  0.00     0.037 A 
HETATM   17  C   UNL     1      41.145 -12.406  -2.803  1.00  0.00     0.068 A 
HETATM   18  C   UNL     1      40.749 -12.568  -1.473  1.00  0.00     0.046 A 
BRANCH  17  19
HETATM   19  O   UNL     1      41.374 -11.214  -3.434  1.00  0.00    -0.356 OA
HETATM   20  C   UNL     1      42.288 -11.231  -4.524  1.00  0.00     0.210 C 
ENDBRANCH  17  19
ENDBRANCH  11  13
ENDBRANCH   9  11
ENDBRANCH   6   7
BRANCH   1  21
HETATM   21  O   UNL     1      41.093 -16.690   4.234  1.00  0.00    -0.348 OA
BRANCH  21  22
HETATM   22  C   UNL     1      41.783 -15.948   5.262  1.00  0.00     0.201 C 
BRANCH  22  23
HETATM   23  C   UNL     1      41.096 -14.606   5.504  1.00  0.00     0.193 C 
BRANCH  23  24
HETATM   24  O   UNL     1      39.958 -14.483   4.643  1.00  0.00    -0.394 OA
HETATM   25  C   UNL     1      39.832 -13.163   4.132  1.00  0.00     0.201 C 
ENDBRANCH  23  24
ENDBRANCH  22  23
ENDBRANCH  21  22
ENDBRANCH   1  21
BRANCH   3  26
HETATM   26  C   UNL     1      44.086 -20.376   3.331  1.00  0.00     0.010 A 
HETATM   27  C   UNL     1      44.721 -20.716   4.550  1.00  0.00     0.152 A 
HETATM   28  N   UNL     1      45.184 -21.968   4.563  1.00  0.00    -0.187 NA
HETATM   29  N   UNL     1      44.854 -22.437   3.350  1.00  0.00    -0.289 N 
HETATM   30  H   UNL     1      45.112 -23.390   3.116  1.00  0.00     0.188 HD
HETATM   31  C   UNL     1      44.193 -21.526   2.576  1.00  0.00     0.123 A 
ENDBRANCH   3  26
TORSDOF 9
ENDMDL
MODEL 8
REMARK VINA RESULT:      -7.2      2.754      8.138
REMARK  9 active torsions:
REMARK  status: ('A' for Active; 'I' for Inactive)
REMARK    1  A    between atoms: O_2  and  C_3 
REMARK    2  A    between atoms: C_3  and  C_4 
REMARK    3  A    between atoms: C_4  and  O_5 
REMARK    4  A    between atoms: O_5  and  C_6 
REMARK    5  A    between atoms: C_8  and  C_25 
REMARK    6  A    between atoms: C_11  and  C_12 
REMARK       I    between atoms: C_12  and  N_14 
REMARK    7  A    between atoms: N_14  and  C_15 
REMARK    8  A    between atoms: C_15  and  C_17 
REMARK    9  A    between atoms: C_21  and  O_22 
ROOT
HETATM    1  C   UNL     1      42.104 -13.691   0.919  1.00  0.00     0.085 A 
HETATM    2  C   UNL     1      42.104 -12.877  -0.221  1.00  0.00     0.050 A 
HETATM    3  C   UNL     1      41.620 -13.361  -1.446  1.00  0.00    -0.020 A 
HETATM    4  C   UNL     1      41.141 -14.677  -1.507  1.00  0.00     0.013 A 
HETATM    5  C   UNL     1      41.113 -15.480  -0.362  1.00  0.00     0.021 A 
HETATM    6  C   UNL     1      41.565 -14.983   0.868  1.00  0.00     0.065 A 
ENDROOT
BRANCH   6   7
HETATM    7  C   UNL     1      41.402 -15.864   2.056  1.00  0.00     0.255 C 
HETATM    8  O   UNL     1      40.285 -16.243   2.387  1.00  0.00    -0.268 OA
HETATM    9  N   UNL     1      42.550 -16.159   2.753  1.00  0.00    -0.349 N 
HETATM   10  H   UNL     1      43.440 -15.898   2.345  1.00  0.00     0.163 HD
BRANCH   9  11
HETATM   11  C   UNL     1      42.561 -17.036   3.911  1.00  0.00     0.114 C 
HETATM   12  C   UNL     1      43.252 -16.343   5.086  1.00  0.00     0.037 C 
BRANCH  11  13
HETATM   13  C   UNL     1      43.186 -18.368   3.538  1.00  0.00    -0.033 A 
HETATM   14  C   UNL     1      43.012 -18.866   2.237  1.00  0.00     0.009 A 
HETATM   15  C   UNL     1      43.585 -20.078   1.857  1.00  0.00     0.003 A 
HETATM   16  C   UNL     1      44.354 -20.798   2.768  1.00  0.00     0.037 A 
HETATM   17  C   UNL     1      44.567 -20.310   4.059  1.00  0.00     0.068 A 
HETATM   18  C   UNL     1      43.982 -19.099   4.439  1.00  0.00     0.046 A 
BRANCH  17  19
HETATM   19  O   UNL     1      45.356 -21.104   4.846  1.00  0.00    -0.356 OA
HETATM   20  C   UNL     1      44.990 -22.475   4.945  1.00  0.00     0.210 C 
ENDBRANCH  17  19
ENDBRANCH  11  13
ENDBRANCH   9  11
ENDBRANCH   6   7
BRANCH   1  21
HETATM   21  O   UNL     1      42.601 -13.133   2.069  1.00  0.00    -0.348 OA
BRANCH  21  22
HETATM   22  C   UNL     1      41.581 -12.419   2.800  1.00  0.00     0.201 C 
BRANCH  22  23
HETATM   23  C   UNL     1      41.599 -12.821   4.273  1.00  0.00     0.193 C 
BRANCH  23  24
HETATM   24  O   UNL     1      40.257 -12.946   4.756  1.00  0.00    -0.394 OA
HETATM   25  C   UNL     1      39.982 -14.269   5.196  1.00  0.00     0.201 C 
ENDBRANCH  23  24
ENDBRANCH  22  23
ENDBRANCH  21  22
ENDBRANCH   1  21
BRANCH   3  26
HETATM   26  C   UNL     1      41.594 -12.497  -2.615  1.00  0.00     0.010 A 
HETATM   27  C   UNL     1      42.535 -11.552  -3.088  1.00  0.00     0.152 A 
HETATM   28  N   UNL     1      42.142 -10.945  -4.211  1.00  0.00    -0.187 NA
HETATM   29  N   UNL     1      40.944 -11.495  -4.462  1.00  0.00    -0.289 N 
HETATM   30  H   UNL     1      40.434 -11.182  -5.281  1.00  0.00     0.188 HD
HETATM   31  C   UNL     1      40.572 -12.431  -3.539  1.00  0.00     0.123 A 
ENDBRANCH   3  26
TORSDOF 9
ENDMDL
MODEL 9
REMARK VINA RESULT:      -7.0      2.322      3.905
REMARK  9 active torsions:
REMARK  status: ('A' for Active; 'I' for Inactive)
REMARK    1  A    between atoms: O_2  and  C_3 
REMARK    2  A    between atoms: C_3  and  C_4 
REMARK    3  A    between atoms: C_4  and  O_5 
REMARK    4  A    between atoms: O_5  and  C_6 
REMARK    5  A    between atoms: C_8  and  C_25 
REMARK    6  A    between atoms: C_11  and  C_12 
REMARK       I    between atoms: C_12  and  N_14 
REMARK    7  A    between atoms: N_14  and  C_15 
REMARK    8  A    between atoms: C_15  and  C_17 
REMARK    9  A    between atoms: C_21  and  O_22 
ROOT
HETATM    1  C   UNL     1      42.757 -15.615   2.253  1.00  0.00     0.085 A 
HETATM    2  C   UNL     1      43.420 -16.617   2.971  1.00  0.00     0.050 A 
HETATM    3  C   UNL     1      43.137 -17.971   2.737  1.00  0.00    -0.020 A 
HETATM    4  C   UNL     1      42.174 -18.299   1.773  1.00  0.00     0.013 A 
HETATM    5  C   UNL     1      41.533 -17.299   1.034  1.00  0.00     0.021 A 
HETATM    6  C   UNL     1      41.843 -15.949   1.246  1.00  0.00     0.065 A 
ENDROOT
BRANCH   6   7
HETATM    7  C   UNL     1      41.196 -14.956   0.346  1.00  0.00     0.255 C 
HETATM    8  O   UNL     1      39.999 -14.718   0.460  1.00  0.00    -0.268 OA
HETATM    9  N   UNL     1      42.001 -14.395  -0.617  1.00  0.00    -0.349 N 
HETATM   10  H   UNL     1      42.999 -14.564  -0.566  1.00  0.00     0.163 HD
BRANCH   9  11
HETATM   11  C   UNL     1      41.526 -13.383  -1.544  1.00  0.00     0.114 C 
HETATM   12  C   UNL     1      41.947 -13.741  -2.971  1.00  0.00     0.037 C 
BRANCH  11  13
HETATM   13  C   UNL     1      42.004 -12.014  -1.095  1.00  0.00    -0.033 A 
HETATM   14  C   UNL     1      43.080 -11.410  -1.764  1.00  0.00     0.009 A 
HETATM   15  C   UNL     1      43.533 -10.147  -1.388  1.00  0.00     0.003 A 
HETATM   16  C   UNL     1      42.904  -9.465  -0.348  1.00  0.00     0.037 A 
HETATM   17  C   UNL     1      41.813 -10.032   0.314  1.00  0.00     0.068 A 
HETATM   18  C   UNL     1      41.368 -11.302  -0.060  1.00  0.00     0.046 A 
BRANCH  17  19
HETATM   19  O   UNL     1      41.277  -9.250   1.301  1.00  0.00    -0.356 OA
HETATM   20  C   UNL     1      41.605  -7.866   1.271  1.00  0.00     0.210 C 
ENDBRANCH  17  19
ENDBRANCH  11  13
ENDBRANCH   9  11
ENDBRANCH   6   7
BRANCH   1  21
HETATM   21  O   UNL     1      43.097 -14.320   2.554  1.00  0.00    -0.348 OA
BRANCH  21  22
HETATM   22  C   UNL     1      42.491 -13.883   3.789  1.00  0.00     0.201 C 
BRANCH  22  23
HETATM   23  C   UNL     1      41.266 -13.015   3.506  1.00  0.00     0.193 C 
BRANCH  23  24
HETATM   24  O   UNL     1      40.074 -13.744   3.818  1.00  0.00    -0.394 OA
HETATM   25  C   UNL     1      40.270 -14.613   4.925  1.00  0.00     0.201 C 
ENDBRANCH  23  24
ENDBRANCH  22  23
ENDBRANCH  21  22
ENDBRANCH   1  21
BRANCH   3  26
HETATM   26  C   UNL     1      43.854 -19.006   3.465  1.00  0.00     0.010 A 
HETATM   27  C   UNL     1      44.189 -19.109   4.836  1.00  0.00     0.152 A 
HETATM   28  N   UNL     1      44.867 -20.223   5.122  1.00  0.00    -0.187 NA
HETATM   29  N   UNL     1      44.974 -20.839   3.935  1.00  0.00    -0.289 N 
HETATM   30  H   UNL     1      45.467 -21.725   3.896  1.00  0.00     0.188 HD
HETATM   31  C   UNL     1      44.382 -20.154   2.913  1.00  0.00     0.123 A 
ENDBRANCH   3  26
TORSDOF 9
ENDMDL
MODEL 10
REMARK VINA RESULT:      -6.9      2.110      4.618
REMARK  9 active torsions:
REMARK  status: ('A' for Active; 'I' for Inactive)
REMARK    1  A    between atoms: O_2  and  C_3 
REMARK    2  A    between atoms: C_3  and  C_4 
REMARK    3  A    between atoms: C_4  and  O_5 
REMARK    4  A    between atoms: O_5  and  C_6 
REMARK    5  A    between atoms: C_8  and  C_25 
REMARK    6  A    between atoms: C_11  and  C_12 
REMARK       I    between atoms: C_12  and  N_14 
REMARK    7  A    between atoms: N_14  and  C_15 
REMARK    8  A    between atoms: C_15  and  C_17 
REMARK    9  A    between atoms: C_21  and  O_22 
ROOT
HETATM    1  C   UNL     1      42.502 -16.864   3.021  1.00  0.00     0.085 A 
HETATM    2  C   UNL     1      42.825 -18.168   2.623  1.00  0.00     0.050 A 
HETATM    3  C   UNL     1      43.684 -18.960   3.398  1.00  0.00    -0.020 A 
HETATM    4  C   UNL     1      44.216 -18.420   4.577  1.00  0.00     0.013 A 
HETATM    5  C   UNL     1      43.870 -17.129   4.991  1.00  0.00     0.021 A 
HETATM    6  C   UNL     1      42.984 -16.353   4.232  1.00  0.00     0.065 A 
ENDROOT
BRANCH   6   7
HETATM    7  C   UNL     1      42.586 -15.034   4.796  1.00  0.00     0.255 C 
HETATM    8  O   UNL     1      43.357 -14.425   5.528  1.00  0.00    -0.268 OA
HETATM    9  N   UNL     1      41.318 -14.600   4.487  1.00  0.00    -0.349 N 
HETATM   10  H   UNL     1      40.794 -15.112   3.786  1.00  0.00     0.163 HD
BRANCH   9  11
HETATM   11  C   UNL     1      40.798 -13.319   4.929  1.00  0.00     0.114 C 
HETATM   12  C   UNL     1      39.839 -13.520   6.104  1.00  0.00     0.037 C 
BRANCH  11  13
HETATM   13  C   UNL     1      40.173 -12.587   3.754  1.00  0.00    -0.033 A 
HETATM   14  C   UNL     1      38.999 -11.847   3.955  1.00  0.00     0.009 A 
HETATM   15  C   UNL     1      38.409 -11.150   2.901  1.00  0.00     0.003 A 
HETATM   16  C   UNL     1      38.996 -11.173   1.639  1.00  0.00     0.037 A 
HETATM   17  C   UNL     1      40.181 -11.879   1.420  1.00  0.00     0.068 A 
HETATM   18  C   UNL     1      40.764 -12.583   2.477  1.00  0.00     0.046 A 
BRANCH  17  19
HETATM   19  O   UNL     1      40.662 -11.803   0.142  1.00  0.00    -0.356 OA
HETATM   20  C   UNL     1      42.076 -11.814  -0.013  1.00  0.00     0.210 C 
ENDBRANCH  17  19
ENDBRANCH  11  13
ENDBRANCH   9  11
ENDBRANCH   6   7
BRANCH   1  21
HETATM   21  O   UNL     1      41.658 -16.164   2.196  1.00  0.00    -0.348 OA
BRANCH  21  22
HETATM   22  C   UNL     1      42.191 -16.053   0.859  1.00  0.00     0.201 C 
BRANCH  22  23
HETATM   23  C   UNL     1      41.189 -15.354  -0.058  1.00  0.00     0.193 C 
BRANCH  23  24
HETATM   24  O   UNL     1      41.201 -15.974  -1.349  1.00  0.00    -0.394 OA
HETATM   25  C   UNL     1      40.972 -15.028  -2.384  1.00  0.00     0.201 C 
ENDBRANCH  23  24
ENDBRANCH  22  23
ENDBRANCH  21  22
ENDBRANCH   1  21
BRANCH   3  26
HETATM   26  C   UNL     1      43.987 -20.323   2.994  1.00  0.00     0.010 A 
HETATM   27  C   UNL     1      43.731 -21.007   1.781  1.00  0.00     0.152 A 
HETATM   28  N   UNL     1      44.164 -22.270   1.796  1.00  0.00    -0.187 NA
HETATM   29  N   UNL     1      44.695 -22.405   3.020  1.00  0.00    -0.289 N 
HETATM   30  H   UNL     1      45.094 -23.303   3.275  1.00  0.00     0.188 HD
HETATM   31  C   UNL     1      44.619 -21.269   3.774  1.00  0.00     0.123 A 
ENDBRANCH   3  26
TORSDOF 9
ENDMDL
