MODEL 1
REMARK VINA RESULT:      -7.8      0.000      0.000
REMARK  8 active torsions:
REMARK  status: ('A' for Active; 'I' for Inactive)
REMARK    1  A    between atoms: C_2  and  C_3 
REMARK    2  A    between atoms: C_3  and  O_4 
REMARK    3  A    between atoms: O_4  and  C_5 
REMARK    4  A    between atoms: C_6  and  O_7 
REMARK    5  A    between atoms: C_11  and  C_12 
REMARK    6  A    between atoms: C_12  and  N_13 
REMARK    7  A    between atoms: N_13  and  C_14 
REMARK    8  A    between atoms: C_21  and  C_22 
REMARK       I    between atoms: C_22  and  N_23 
ROOT
HETATM    1  C   UNL     1      40.902 -16.055   1.398  1.00  0.00     0.009 A 
HETATM    2  C   UNL     1      41.208 -15.651   0.087  1.00  0.00     0.039 A 
HETATM    3  C   UNL     1      40.446 -14.647  -0.547  1.00  0.00     0.030 A 
HETATM    4  C   UNL     1      39.377 -14.085   0.137  1.00  0.00     0.063 A 
HETATM    5  N   UNL     1      38.841 -13.166  -0.722  1.00  0.00    -0.277 N 
HETATM    6  H   UNL     1      38.041 -12.566  -0.557  1.00  0.00     0.189 HD
HETATM    7  N   UNL     1      39.463 -13.086  -1.912  1.00  0.00    -0.168 NA
HETATM    8  C   UNL     1      40.456 -13.999  -1.818  1.00  0.00     0.156 A 
HETATM    9  C   UNL     1      39.012 -14.476   1.425  1.00  0.00     0.034 A 
HETATM   10  C   UNL     1      39.785 -15.481   2.025  1.00  0.00     0.026 A 
ENDROOT
BRANCH   1  11
HETATM   11  N   UNL     1      41.563 -17.105   2.047  1.00  0.00    -0.289 NA
HETATM   12  H   UNL     1      41.800 -16.878   3.010  1.00  0.00     0.128 HD
BRANCH  11  13
HETATM   13  C   UNL     1      42.642 -17.802   1.362  1.00  0.00     0.131 C 
BRANCH  13  14
HETATM   14  C   UNL     1      43.331 -18.728   2.338  1.00  0.00    -0.042 A 
HETATM   15  C   UNL     1      43.909 -19.921   1.886  1.00  0.00     0.011 A 
HETATM   16  C   UNL     1      44.561 -20.778   2.776  1.00  0.00     0.040 A 
HETATM   17  C   UNL     1      44.633 -20.464   4.136  1.00  0.00     0.101 A 
HETATM   18  C   UNL     1      44.007 -19.295   4.606  1.00  0.00     0.102 A 
HETATM   19  C   UNL     1      43.376 -18.427   3.707  1.00  0.00     0.048 A 
BRANCH  17  20
HETATM   20  O   UNL     1      45.249 -21.249   5.079  1.00  0.00    -0.353 OA
HETATM   21  C   UNL     1      44.779 -22.582   5.215  1.00  0.00     0.210 C 
ENDBRANCH  17  20
BRANCH  18  22
HETATM   22  O   UNL     1      44.108 -19.037   5.951  1.00  0.00    -0.348 OA
BRANCH  22  23
HETATM   23  C   UNL     1      45.009 -17.990   6.313  1.00  0.00     0.175 C 
BRANCH  23  24
HETATM   24  C   UNL     1      44.178 -16.830   6.855  1.00  0.00     0.022 C 
HETATM   25  C   UNL     1      43.383 -17.228   8.085  1.00  0.00     0.007 C 
ENDBRANCH  23  24
ENDBRANCH  22  23
ENDBRANCH  18  22
ENDBRANCH  13  14
ENDBRANCH  11  13
ENDBRANCH   1  11
BRANCH   8  26
HETATM   26  C   UNL     1      41.385 -14.239  -2.931  1.00  0.00     0.270 C 
HETATM   27  N   UNL     1      42.580 -13.586  -2.814  1.00  0.00    -0.365 N 
HETATM   28  H   UNL     1      42.734 -12.999  -2.002  1.00  0.00     0.159 HD
HETATM   29  H   UNL     1      43.276 -13.679  -3.535  1.00  0.00     0.159 HD
HETATM   30  O   UNL     1      41.142 -14.955  -3.899  1.00  0.00    -0.266 OA
ENDBRANCH   8  26
TORSDOF 8
ENDMDL
MODEL 2
REMARK VINA RESULT:      -7.7      3.291      4.239
REMARK  8 active torsions:
REMARK  status: ('A' for Active; 'I' for Inactive)
REMARK    1  A    between atoms: C_2  and  C_3 
REMARK    2  A    between atoms: C_3  and  O_4 
REMARK    3  A    between atoms: O_4  and  C_5 
REMARK    4  A    between atoms: C_6  and  O_7 
REMARK    5  A    between atoms: C_11  and  C_12 
REMARK    6  A    between atoms: C_12  and  N_13 
REMARK    7  A    between atoms: N_13  and  C_14 
REMARK    8  A    between atoms: C_21  and  C_22 
REMARK       I    between atoms: C_22  and  N_23 
ROOT
HETATM    1  C   UNL     1      40.907 -16.163   3.626  1.00  0.00     0.009 A 
HETATM    2  C   UNL     1      40.361 -14.885   3.415  1.00  0.00     0.039 A 
HETATM    3  C   UNL     1      40.020 -14.064   4.511  1.00  0.00     0.030 A 
HETATM    4  C   UNL     1      40.209 -14.551   5.797  1.00  0.00     0.063 A 
HETATM    5  N   UNL     1      39.789 -13.549   6.627  1.00  0.00    -0.277 N 
HETATM    6  H   UNL     1      39.781 -13.557   7.642  1.00  0.00     0.189 HD
HETATM    7  N   UNL     1      39.333 -12.454   5.995  1.00  0.00    -0.168 NA
HETATM    8  C   UNL     1      39.467 -12.760   4.684  1.00  0.00     0.156 A 
HETATM    9  C   UNL     1      40.715 -15.824   6.058  1.00  0.00     0.034 A 
HETATM   10  C   UNL     1      41.039 -16.617   4.948  1.00  0.00     0.026 A 
ENDROOT
BRANCH   1  11
HETATM   11  N   UNL     1      41.183 -17.057   2.584  1.00  0.00    -0.289 NA
HETATM   12  H   UNL     1      40.802 -17.984   2.758  1.00  0.00     0.128 HD
BRANCH  11  13
HETATM   13  C   UNL     1      42.525 -17.107   2.023  1.00  0.00     0.131 C 
BRANCH  13  14
HETATM   14  C   UNL     1      43.288 -18.243   2.665  1.00  0.00    -0.042 A 
HETATM   15  C   UNL     1      43.345 -19.493   2.037  1.00  0.00     0.011 A 
HETATM   16  C   UNL     1      44.059 -20.548   2.614  1.00  0.00     0.040 A 
HETATM   17  C   UNL     1      44.713 -20.373   3.835  1.00  0.00     0.101 A 
HETATM   18  C   UNL     1      44.615 -19.137   4.499  1.00  0.00     0.102 A 
HETATM   19  C   UNL     1      43.919 -18.076   3.906  1.00  0.00     0.048 A 
BRANCH  17  20
HETATM   20  O   UNL     1      45.433 -21.353   4.475  1.00  0.00    -0.353 OA
HETATM   21  C   UNL     1      44.742 -22.551   4.799  1.00  0.00     0.210 C 
ENDBRANCH  17  20
BRANCH  18  22
HETATM   22  O   UNL     1      45.277 -19.021   5.697  1.00  0.00    -0.348 OA
BRANCH  22  23
HETATM   23  C   UNL     1      44.936 -17.879   6.483  1.00  0.00     0.175 C 
BRANCH  23  24
HETATM   24  C   UNL     1      44.025 -18.350   7.613  1.00  0.00     0.022 C 
HETATM   25  C   UNL     1      43.359 -17.187   8.326  1.00  0.00     0.007 C 
ENDBRANCH  23  24
ENDBRANCH  22  23
ENDBRANCH  18  22
ENDBRANCH  13  14
ENDBRANCH  11  13
ENDBRANCH   1  11
BRANCH   8  26
HETATM   26  C   UNL     1      39.066 -11.817   3.631  1.00  0.00     0.270 C 
HETATM   27  N   UNL     1      38.022 -11.004   3.976  1.00  0.00    -0.365 N 
HETATM   28  H   UNL     1      37.609 -11.109   4.896  1.00  0.00     0.159 HD
HETATM   29  H   UNL     1      37.668 -10.334   3.314  1.00  0.00     0.159 HD
HETATM   30  O   UNL     1      39.597 -11.740   2.527  1.00  0.00    -0.266 OA
ENDBRANCH   8  26
TORSDOF 8
ENDMDL
MODEL 3
REMARK VINA RESULT:      -7.7      2.788      3.961
REMARK  8 active torsions:
REMARK  status: ('A' for Active; 'I' for Inactive)
REMARK    1  A    between atoms: C_2  and  C_3 
REMARK    2  A    between atoms: C_3  and  O_4 
REMARK    3  A    between atoms: O_4  and  C_5 
REMARK    4  A    between atoms: C_6  and  O_7 
REMARK    5  A    between atoms: C_11  and  C_12 
REMARK    6  A    between atoms: C_12  and  N_13 
REMARK    7  A    between atoms: N_13  and  C_14 
REMARK    8  A    between atoms: C_21  and  C_22 
REMARK       I    between atoms: C_22  and  N_23 
ROOT
HETATM    1  C   UNL     1      41.141 -16.263   1.489  1.00  0.00     0.009 A 
HETATM    2  C   UNL     1      40.940 -15.924   2.838  1.00  0.00     0.039 A 
HETATM    3  C   UNL     1      40.351 -14.690   3.185  1.00  0.00     0.030 A 
HETATM    4  C   UNL     1      39.998 -13.808   2.173  1.00  0.00     0.063 A 
HETATM    5  N   UNL     1      39.468 -12.721   2.809  1.00  0.00    -0.277 N 
HETATM    6  H   UNL     1      39.106 -11.876   2.381  1.00  0.00     0.189 HD
HETATM    7  N   UNL     1      39.453 -12.811   4.151  1.00  0.00    -0.168 NA
HETATM    8  C   UNL     1      40.000 -14.024   4.397  1.00  0.00     0.156 A 
HETATM    9  C   UNL     1      40.209 -14.083   0.822  1.00  0.00     0.034 A 
HETATM   10  C   UNL     1      40.801 -15.316   0.511  1.00  0.00     0.026 A 
ENDROOT
BRANCH   1  11
HETATM   11  N   UNL     1      41.799 -17.431   1.085  1.00  0.00    -0.289 NA
HETATM   12  H   UNL     1      41.376 -18.269   1.474  1.00  0.00     0.128 HD
BRANCH  11  13
HETATM   13  C   UNL     1      43.254 -17.478   1.119  1.00  0.00     0.131 C 
BRANCH  13  14
HETATM   14  C   UNL     1      43.692 -18.418   2.219  1.00  0.00    -0.042 A 
HETATM   15  C   UNL     1      43.941 -19.766   1.933  1.00  0.00     0.011 A 
HETATM   16  C   UNL     1      44.360 -20.643   2.938  1.00  0.00     0.040 A 
HETATM   17  C   UNL     1      44.522 -20.188   4.249  1.00  0.00     0.101 A 
HETATM   18  C   UNL     1      44.221 -18.848   4.556  1.00  0.00     0.102 A 
HETATM   19  C   UNL     1      43.824 -17.969   3.541  1.00  0.00     0.048 A 
BRANCH  17  20
HETATM   20  O   UNL     1      44.925 -20.978   5.298  1.00  0.00    -0.353 OA
HETATM   21  C   UNL     1      45.012 -22.375   5.056  1.00  0.00     0.210 C 
ENDBRANCH  17  20
BRANCH  18  22
HETATM   22  O   UNL     1      44.396 -18.456   5.860  1.00  0.00    -0.348 OA
BRANCH  22  23
HETATM   23  C   UNL     1      43.202 -18.137   6.575  1.00  0.00     0.175 C 
BRANCH  23  24
HETATM   24  C   UNL     1      43.546 -17.049   7.589  1.00  0.00     0.022 C 
HETATM   25  C   UNL     1      44.060 -15.789   6.916  1.00  0.00     0.007 C 
ENDBRANCH  23  24
ENDBRANCH  22  23
ENDBRANCH  18  22
ENDBRANCH  13  14
ENDBRANCH  11  13
ENDBRANCH   1  11
BRANCH   8  26
HETATM   26  C   UNL     1      40.180 -14.520   5.768  1.00  0.00     0.270 C 
HETATM   27  N   UNL     1      39.870 -13.607   6.739  1.00  0.00    -0.365 N 
HETATM   28  H   UNL     1      39.557 -12.686   6.455  1.00  0.00     0.159 HD
HETATM   29  H   UNL     1      39.975 -13.852   7.709  1.00  0.00     0.159 HD
HETATM   30  O   UNL     1      40.574 -15.647   6.055  1.00  0.00    -0.266 OA
ENDBRANCH   8  26
TORSDOF 8
ENDMDL
MODEL 4
REMARK VINA RESULT:      -7.5      1.515      3.037
REMARK  8 active torsions:
REMARK  status: ('A' for Active; 'I' for Inactive)
REMARK    1  A    between atoms: C_2  and  C_3 
REMARK    2  A    between atoms: C_3  and  O_4 
REMARK    3  A    between atoms: O_4  and  C_5 
REMARK    4  A    between atoms: C_6  and  O_7 
REMARK    5  A    between atoms: C_11  and  C_12 
REMARK    6  A    between atoms: C_12  and  N_13 
REMARK    7  A    between atoms: N_13  and  C_14 
REMARK    8  A    between atoms: C_21  and  C_22 
REMARK       I    between atoms: C_22  and  N_23 
ROOT
HETATM    1  C   UNL     1      41.870 -14.815   2.099  1.00  0.00     0.009 A 
HETATM    2  C   UNL     1      41.941 -14.766   0.696  1.00  0.00     0.039 A 
HETATM    3  C   UNL     1      40.777 -14.543  -0.070  1.00  0.00     0.030 A 
HETATM    4  C   UNL     1      39.562 -14.400   0.584  1.00  0.00     0.063 A 
HETATM    5  N   UNL     1      38.639 -14.206  -0.406  1.00  0.00    -0.277 N 
HETATM    6  H   UNL     1      37.641 -14.067  -0.295  1.00  0.00     0.189 HD
HETATM    7  N   UNL     1      39.146 -14.221  -1.652  1.00  0.00    -0.168 NA
HETATM    8  C   UNL     1      40.468 -14.432  -1.459  1.00  0.00     0.156 A 
HETATM    9  C   UNL     1      39.434 -14.475   1.971  1.00  0.00     0.034 A 
HETATM   10  C   UNL     1      40.608 -14.703   2.703  1.00  0.00     0.026 A 
ENDROOT
BRANCH   1  11
HETATM   11  N   UNL     1      42.971 -15.120   2.909  1.00  0.00    -0.289 NA
HETATM   12  H   UNL     1      43.536 -15.875   2.527  1.00  0.00     0.128 HD
BRANCH  11  13
HETATM   13  C   UNL     1      42.787 -15.240   4.348  1.00  0.00     0.131 C 
BRANCH  13  14
HETATM   14  C   UNL     1      43.149 -16.644   4.777  1.00  0.00    -0.042 A 
HETATM   15  C   UNL     1      43.034 -17.018   6.122  1.00  0.00     0.011 A 
HETATM   16  C   UNL     1      43.352 -18.317   6.529  1.00  0.00     0.040 A 
HETATM   17  C   UNL     1      43.804 -19.258   5.600  1.00  0.00     0.101 A 
HETATM   18  C   UNL     1      43.973 -18.874   4.258  1.00  0.00     0.102 A 
HETATM   19  C   UNL     1      43.631 -17.579   3.850  1.00  0.00     0.048 A 
BRANCH  17  20
HETATM   20  O   UNL     1      44.141 -20.552   5.912  1.00  0.00    -0.353 OA
HETATM   21  C   UNL     1      43.663 -21.063   7.148  1.00  0.00     0.210 C 
ENDBRANCH  17  20
BRANCH  18  22
HETATM   22  O   UNL     1      44.421 -19.839   3.389  1.00  0.00    -0.348 OA
BRANCH  22  23
HETATM   23  C   UNL     1      43.677 -19.973   2.177  1.00  0.00     0.175 C 
BRANCH  23  24
HETATM   24  C   UNL     1      43.672 -21.451   1.798  1.00  0.00     0.022 C 
HETATM   25  C   UNL     1      44.468 -22.292   2.778  1.00  0.00     0.007 C 
ENDBRANCH  23  24
ENDBRANCH  22  23
ENDBRANCH  18  22
ENDBRANCH  13  14
ENDBRANCH  11  13
ENDBRANCH   1  11
BRANCH   8  26
HETATM   26  C   UNL     1      41.402 -14.527  -2.588  1.00  0.00     0.270 C 
HETATM   27  N   UNL     1      42.404 -13.595  -2.566  1.00  0.00    -0.365 N 
HETATM   28  H   UNL     1      42.427 -12.927  -1.805  1.00  0.00     0.159 HD
HETATM   29  H   UNL     1      43.085 -13.574  -3.307  1.00  0.00     0.159 HD
HETATM   30  O   UNL     1      41.320 -15.354  -3.492  1.00  0.00    -0.266 OA
ENDBRANCH   8  26
TORSDOF 8
ENDMDL
MODEL 5
REMARK VINA RESULT:      -7.4      2.178      4.032
REMARK  8 active torsions:
REMARK  status: ('A' for Active; 'I' for Inactive)
REMARK    1  A    between atoms: C_2  and  C_3 
REMARK    2  A    between atoms: C_3  and  O_4 
REMARK    3  A    between atoms: O_4  and  C_5 
REMARK    4  A    between atoms: C_6  and  O_7 
REMARK    5  A    between atoms: C_11  and  C_12 
REMARK    6  A    between atoms: C_12  and  N_13 
REMARK    7  A    between atoms: N_13  and  C_14 
REMARK    8  A    between atoms: C_21  and  C_22 
REMARK       I    between atoms: C_22  and  N_23 
ROOT
HETATM    1  C   UNL     1      41.144 -15.522  -0.817  1.00  0.00     0.009 A 
HETATM    2  C   UNL     1      41.686 -14.240  -0.621  1.00  0.00     0.039 A 
HETATM    3  C   UNL     1      41.961 -13.405  -1.725  1.00  0.00     0.030 A 
HETATM    4  C   UNL     1      41.711 -13.882  -3.004  1.00  0.00     0.063 A 
HETATM    5  N   UNL     1      42.077 -12.868  -3.845  1.00  0.00    -0.277 N 
HETATM    6  H   UNL     1      42.033 -12.866  -4.859  1.00  0.00     0.189 HD
HETATM    7  N   UNL     1      42.553 -11.773  -3.226  1.00  0.00    -0.168 NA
HETATM    8  C   UNL     1      42.490 -12.093  -1.913  1.00  0.00     0.156 A 
HETATM    9  C   UNL     1      41.207 -15.158  -3.252  1.00  0.00     0.034 A 
HETATM   10  C   UNL     1      40.949 -15.966  -2.134  1.00  0.00     0.026 A 
ENDROOT
BRANCH   1  11
HETATM   11  N   UNL     1      40.932 -16.429   0.229  1.00  0.00    -0.289 NA
HETATM   12  H   UNL     1      40.325 -17.198  -0.042  1.00  0.00     0.128 HD
BRANCH  11  13
HETATM   13  C   UNL     1      40.626 -15.925   1.560  1.00  0.00     0.131 C 
BRANCH  13  14
HETATM   14  C   UNL     1      41.332 -16.780   2.587  1.00  0.00    -0.042 A 
HETATM   15  C   UNL     1      41.093 -16.580   3.952  1.00  0.00     0.011 A 
HETATM   16  C   UNL     1      41.729 -17.373   4.911  1.00  0.00     0.040 A 
HETATM   17  C   UNL     1      42.627 -18.370   4.520  1.00  0.00     0.101 A 
HETATM   18  C   UNL     1      42.914 -18.541   3.154  1.00  0.00     0.102 A 
HETATM   19  C   UNL     1      42.256 -17.760   2.196  1.00  0.00     0.048 A 
BRANCH  17  20
HETATM   20  O   UNL     1      43.298 -19.191   5.392  1.00  0.00    -0.353 OA
HETATM   21  C   UNL     1      44.358 -18.610   6.139  1.00  0.00     0.210 C 
ENDBRANCH  17  20
BRANCH  18  22
HETATM   22  O   UNL     1      43.805 -19.535   2.827  1.00  0.00    -0.348 OA
BRANCH  22  23
HETATM   23  C   UNL     1      43.445 -20.342   1.706  1.00  0.00     0.175 C 
BRANCH  23  24
HETATM   24  C   UNL     1      43.835 -21.782   2.028  1.00  0.00     0.022 C 
HETATM   25  C   UNL     1      44.634 -21.880   3.314  1.00  0.00     0.007 C 
ENDBRANCH  23  24
ENDBRANCH  22  23
ENDBRANCH  18  22
ENDBRANCH  13  14
ENDBRANCH  11  13
ENDBRANCH   1  11
BRANCH   8  26
HETATM   26  C   UNL     1      42.934 -11.156  -0.873  1.00  0.00     0.270 C 
HETATM   27  N   UNL     1      43.690 -10.116  -1.342  1.00  0.00    -0.365 N 
HETATM   28  H   UNL     1      43.888 -10.071  -2.335  1.00  0.00     0.159 HD
HETATM   29  H   UNL     1      44.051  -9.430  -0.701  1.00  0.00     0.159 HD
HETATM   30  O   UNL     1      42.672 -11.265   0.321  1.00  0.00    -0.266 OA
ENDBRANCH   8  26
TORSDOF 8
ENDMDL
MODEL 6
REMARK VINA RESULT:      -7.2      3.122      8.917
REMARK  8 active torsions:
REMARK  status: ('A' for Active; 'I' for Inactive)
REMARK    1  A    between atoms: C_2  and  C_3 
REMARK    2  A    between atoms: C_3  and  O_4 
REMARK    3  A    between atoms: O_4  and  C_5 
REMARK    4  A    between atoms: C_6  and  O_7 
REMARK    5  A    between atoms: C_11  and  C_12 
REMARK    6  A    between atoms: C_12  and  N_13 
REMARK    7  A    between atoms: N_13  and  C_14 
REMARK    8  A    between atoms: C_21  and  C_22 
REMARK       I    between atoms: C_22  and  N_23 
ROOT
HETATM    1  C   UNL     1      44.086 -18.870   3.309  1.00  0.00     0.009 A 
HETATM    2  C   UNL     1      43.687 -18.312   4.535  1.00  0.00     0.039 A 
HETATM    3  C   UNL     1      43.773 -19.066   5.725  1.00  0.00     0.030 A 
HETATM    4  C   UNL     1      44.236 -20.372   5.658  1.00  0.00     0.063 A 
HETATM    5  N   UNL     1      44.200 -20.834   6.945  1.00  0.00    -0.277 N 
HETATM    6  H   UNL     1      44.467 -21.756   7.273  1.00  0.00     0.189 HD
HETATM    7  N   UNL     1      43.746 -19.945   7.845  1.00  0.00    -0.168 NA
HETATM    8  C   UNL     1      43.475 -18.846   7.103  1.00  0.00     0.156 A 
HETATM    9  C   UNL     1      44.611 -20.983   4.462  1.00  0.00     0.034 A 
HETATM   10  C   UNL     1      44.508 -20.209   3.296  1.00  0.00     0.026 A 
ENDROOT
BRANCH   1  11
HETATM   11  N   UNL     1      43.942 -18.207   2.084  1.00  0.00    -0.289 NA
HETATM   12  H   UNL     1      44.106 -17.207   2.164  1.00  0.00     0.128 HD
BRANCH  11  13
HETATM   13  C   UNL     1      42.799 -18.515   1.236  1.00  0.00     0.131 C 
BRANCH  13  14
HETATM   14  C   UNL     1      41.874 -17.320   1.201  1.00  0.00    -0.042 A 
HETATM   15  C   UNL     1      40.996 -17.080   2.265  1.00  0.00     0.011 A 
HETATM   16  C   UNL     1      40.145 -15.972   2.251  1.00  0.00     0.040 A 
HETATM   17  C   UNL     1      40.148 -15.093   1.165  1.00  0.00     0.101 A 
HETATM   18  C   UNL     1      40.987 -15.357   0.067  1.00  0.00     0.102 A 
HETATM   19  C   UNL     1      41.855 -16.456   0.096  1.00  0.00     0.048 A 
BRANCH  17  20
HETATM   20  O   UNL     1      39.345 -13.984   1.065  1.00  0.00    -0.353 OA
HETATM   21  C   UNL     1      37.949 -14.209   0.926  1.00  0.00     0.210 C 
ENDBRANCH  17  20
BRANCH  18  22
HETATM   22  O   UNL     1      40.948 -14.462  -0.973  1.00  0.00    -0.348 OA
BRANCH  22  23
HETATM   23  C   UNL     1      40.620 -15.011  -2.249  1.00  0.00     0.175 C 
BRANCH  23  24
HETATM   24  C   UNL     1      41.256 -14.123  -3.314  1.00  0.00     0.022 C 
HETATM   25  C   UNL     1      40.586 -12.764  -3.394  1.00  0.00     0.007 C 
ENDBRANCH  23  24
ENDBRANCH  22  23
ENDBRANCH  18  22
ENDBRANCH  13  14
ENDBRANCH  11  13
ENDBRANCH   1  11
BRANCH   8  26
HETATM   26  C   UNL     1      42.937 -17.623   7.713  1.00  0.00     0.270 C 
HETATM   27  N   UNL     1      43.455 -17.338   8.947  1.00  0.00    -0.365 N 
HETATM   28  H   UNL     1      44.141 -17.971   9.342  1.00  0.00     0.159 HD
HETATM   29  H   UNL     1      43.137 -16.526   9.449  1.00  0.00     0.159 HD
HETATM   30  O   UNL     1      42.096 -16.896   7.192  1.00  0.00    -0.266 OA
ENDBRANCH   8  26
TORSDOF 8
ENDMDL
MODEL 7
REMARK VINA RESULT:      -7.1      2.089      3.058
REMARK  8 active torsions:
REMARK  status: ('A' for Active; 'I' for Inactive)
REMARK    1  A    between atoms: C_2  and  C_3 
REMARK    2  A    between atoms: C_3  and  O_4 
REMARK    3  A    between atoms: O_4  and  C_5 
REMARK    4  A    between atoms: C_6  and  O_7 
REMARK    5  A    between atoms: C_11  and  C_12 
REMARK    6  A    between atoms: C_12  and  N_13 
REMARK    7  A    between atoms: N_13  and  C_14 
REMARK    8  A    between atoms: C_21  and  C_22 
REMARK       I    between atoms: C_22  and  N_23 
ROOT
HETATM    1  C   UNL     1      41.082 -15.135  -0.681  1.00  0.00     0.009 A 
HETATM    2  C   UNL     1      41.619 -13.838  -0.630  1.00  0.00     0.039 A 
HETATM    3  C   UNL     1      41.916 -13.140  -1.820  1.00  0.00     0.030 A 
HETATM    4  C   UNL     1      41.692 -13.766  -3.037  1.00  0.00     0.063 A 
HETATM    5  N   UNL     1      42.074 -12.860  -3.986  1.00  0.00    -0.277 N 
HETATM    6  H   UNL     1      42.050 -12.979  -4.993  1.00  0.00     0.189 HD
HETATM    7  N   UNL     1      42.538 -11.698  -3.493  1.00  0.00    -0.168 NA
HETATM    8  C   UNL     1      42.449 -11.859  -2.153  1.00  0.00     0.156 A 
HETATM    9  C   UNL     1      41.193 -15.065  -3.141  1.00  0.00     0.034 A 
HETATM   10  C   UNL     1      40.913 -15.733  -1.940  1.00  0.00     0.026 A 
ENDROOT
BRANCH   1  11
HETATM   11  N   UNL     1      40.849 -15.911   0.461  1.00  0.00    -0.289 NA
HETATM   12  H   UNL     1      39.859 -16.069   0.628  1.00  0.00     0.128 HD
BRANCH  11  13
HETATM   13  C   UNL     1      41.576 -15.613   1.687  1.00  0.00     0.131 C 
BRANCH  13  14
HETATM   14  C   UNL     1      42.403 -16.816   2.076  1.00  0.00    -0.042 A 
HETATM   15  C   UNL     1      43.126 -17.516   1.102  1.00  0.00     0.011 A 
HETATM   16  C   UNL     1      43.906 -18.622   1.452  1.00  0.00     0.040 A 
HETATM   17  C   UNL     1      43.964 -19.054   2.779  1.00  0.00     0.101 A 
HETATM   18  C   UNL     1      43.199 -18.390   3.754  1.00  0.00     0.102 A 
HETATM   19  C   UNL     1      42.438 -17.268   3.404  1.00  0.00     0.048 A 
BRANCH  17  20
HETATM   20  O   UNL     1      44.700 -20.130   3.210  1.00  0.00    -0.353 OA
HETATM   21  C   UNL     1      44.376 -21.397   2.655  1.00  0.00     0.210 C 
ENDBRANCH  17  20
BRANCH  18  22
HETATM   22  O   UNL     1      43.294 -18.857   5.042  1.00  0.00    -0.348 OA
BRANCH  22  23
HETATM   23  C   UNL     1      44.155 -18.117   5.906  1.00  0.00     0.175 C 
BRANCH  23  24
HETATM   24  C   UNL     1      43.793 -18.481   7.344  1.00  0.00     0.022 C 
HETATM   25  C   UNL     1      43.267 -17.285   8.116  1.00  0.00     0.007 C 
ENDBRANCH  23  24
ENDBRANCH  22  23
ENDBRANCH  18  22
ENDBRANCH  13  14
ENDBRANCH  11  13
ENDBRANCH   1  11
BRANCH   8  26
HETATM   26  C   UNL     1      42.872 -10.802  -1.224  1.00  0.00     0.270 C 
HETATM   27  N   UNL     1      42.843  -9.543  -1.757  1.00  0.00    -0.365 N 
HETATM   28  H   UNL     1      42.549  -9.432  -2.721  1.00  0.00     0.159 HD
HETATM   29  H   UNL     1      43.128  -8.756  -1.200  1.00  0.00     0.159 HD
HETATM   30  O   UNL     1      43.230 -10.996  -0.066  1.00  0.00    -0.266 OA
ENDBRANCH   8  26
TORSDOF 8
ENDMDL
MODEL 8
REMARK VINA RESULT:      -7.1      2.381      4.466
REMARK  8 active torsions:
REMARK  status: ('A' for Active; 'I' for Inactive)
REMARK    1  A    between atoms: C_2  and  C_3 
REMARK    2  A    between atoms: C_3  and  O_4 
REMARK    3  A    between atoms: O_4  and  C_5 
REMARK    4  A    between atoms: C_6  and  O_7 
REMARK    5  A    between atoms: C_11  and  C_12 
REMARK    6  A    between atoms: C_12  and  N_13 
REMARK    7  A    between atoms: N_13  and  C_14 
REMARK    8  A    between atoms: C_21  and  C_22 
REMARK       I    between atoms: C_22  and  N_23 
ROOT
HETATM    1  C   UNL     1      40.453 -13.590   0.557  1.00  0.00     0.009 A 
HETATM    2  C   UNL     1      39.809 -14.243  -0.507  1.00  0.00     0.039 A 
HETATM    3  C   UNL     1      40.433 -14.341  -1.768  1.00  0.00     0.030 A 
HETATM    4  C   UNL     1      41.681 -13.760  -1.944  1.00  0.00     0.063 A 
HETATM    5  N   UNL     1      42.017 -14.012  -3.246  1.00  0.00    -0.277 N 
HETATM    6  H   UNL     1      42.865 -13.731  -3.726  1.00  0.00     0.189 HD
HETATM    7  N   UNL     1      41.091 -14.699  -3.937  1.00  0.00    -0.168 NA
HETATM    8  C   UNL     1      40.104 -14.907  -3.036  1.00  0.00     0.156 A 
HETATM    9  C   UNL     1      42.346 -13.071  -0.930  1.00  0.00     0.034 A 
HETATM   10  C   UNL     1      41.696 -12.986   0.310  1.00  0.00     0.026 A 
ENDROOT
BRANCH   1  11
HETATM   11  N   UNL     1      39.849 -13.382   1.804  1.00  0.00    -0.289 NA
HETATM   12  H   UNL     1      40.412 -12.796   2.414  1.00  0.00     0.128 HD
BRANCH  11  13
HETATM   13  C   UNL     1      39.263 -14.513   2.510  1.00  0.00     0.131 C 
BRANCH  13  14
HETATM   14  C   UNL     1      40.254 -15.027   3.529  1.00  0.00    -0.042 A 
HETATM   15  C   UNL     1      40.185 -14.591   4.858  1.00  0.00     0.011 A 
HETATM   16  C   UNL     1      41.087 -15.070   5.813  1.00  0.00     0.040 A 
HETATM   17  C   UNL     1      42.081 -15.981   5.450  1.00  0.00     0.101 A 
HETATM   18  C   UNL     1      42.192 -16.382   4.106  1.00  0.00     0.102 A 
HETATM   19  C   UNL     1      41.271 -15.918   3.158  1.00  0.00     0.048 A 
BRANCH  17  20
HETATM   20  O   UNL     1      43.009 -16.500   6.319  1.00  0.00    -0.353 OA
HETATM   21  C   UNL     1      42.513 -17.240   7.425  1.00  0.00     0.210 C 
ENDBRANCH  17  20
BRANCH  18  22
HETATM   22  O   UNL     1      43.188 -17.278   3.806  1.00  0.00    -0.348 OA
BRANCH  22  23
HETATM   23  C   UNL     1      42.768 -18.470   3.140  1.00  0.00     0.175 C 
BRANCH  23  24
HETATM   24  C   UNL     1      43.773 -18.759   2.029  1.00  0.00     0.022 C 
HETATM   25  C   UNL     1      43.786 -17.666   0.977  1.00  0.00     0.007 C 
ENDBRANCH  23  24
ENDBRANCH  22  23
ENDBRANCH  18  22
ENDBRANCH  13  14
ENDBRANCH  11  13
ENDBRANCH   1  11
BRANCH   8  26
HETATM   26  C   UNL     1      38.877 -15.630  -3.396  1.00  0.00     0.270 C 
HETATM   27  N   UNL     1      39.074 -16.946  -3.711  1.00  0.00    -0.365 N 
HETATM   28  H   UNL     1      40.017 -17.315  -3.683  1.00  0.00     0.159 HD
HETATM   29  H   UNL     1      38.293 -17.519  -3.984  1.00  0.00     0.159 HD
HETATM   30  O   UNL     1      37.756 -15.128  -3.424  1.00  0.00    -0.266 OA
ENDBRANCH   8  26
TORSDOF 8
ENDMDL
MODEL 9
REMARK VINA RESULT:      -7.0      3.881      5.620
REMARK  8 active torsions:
REMARK  status: ('A' for Active; 'I' for Inactive)
REMARK    1  A    between atoms: C_2  and  C_3 
REMARK    2  A    between atoms: C_3  and  O_4 
REMARK    3  A    between atoms: O_4  and  C_5 
REMARK    4  A    between atoms: C_6  and  O_7 
REMARK    5  A    between atoms: C_11  and  C_12 
REMARK    6  A    between atoms: C_12  and  N_13 
REMARK    7  A    between atoms: N_13  and  C_14 
REMARK    8  A    between atoms: C_21  and  C_22 
REMARK       I    between atoms: C_22  and  N_23 
ROOT
HETATM    1  C   UNL     1      39.958 -14.186   2.931  1.00  0.00     0.009 A 
HETATM    2  C   UNL     1      39.839 -13.421   4.103  1.00  0.00     0.039 A 
HETATM    3  C   UNL     1      40.335 -12.100   4.148  1.00  0.00     0.030 A 
HETATM    4  C   UNL     1      40.961 -11.582   3.023  1.00  0.00     0.063 A 
HETATM    5  N   UNL     1      41.331 -10.312   3.369  1.00  0.00    -0.277 N 
HETATM    6  H   UNL     1      41.817  -9.636   2.790  1.00  0.00     0.189 HD
HETATM    7  N   UNL     1      41.007  -9.959   4.625  1.00  0.00    -0.168 NA
HETATM    8  C   UNL     1      40.393 -11.058   5.120  1.00  0.00     0.156 A 
HETATM    9  C   UNL     1      41.135 -12.313   1.848  1.00  0.00     0.034 A 
HETATM   10  C   UNL     1      40.637 -13.624   1.838  1.00  0.00     0.026 A 
ENDROOT
BRANCH   1  11
HETATM   11  N   UNL     1      39.568 -15.529   2.852  1.00  0.00    -0.289 NA
HETATM   12  H   UNL     1      39.349 -15.923   3.764  1.00  0.00     0.128 HD
BRANCH  11  13
HETATM   13  C   UNL     1      40.333 -16.447   2.022  1.00  0.00     0.131 C 
BRANCH  13  14
HETATM   14  C   UNL     1      41.294 -17.221   2.896  1.00  0.00    -0.042 A 
HETATM   15  C   UNL     1      41.267 -17.055   4.286  1.00  0.00     0.011 A 
HETATM   16  C   UNL     1      42.140 -17.775   5.107  1.00  0.00     0.040 A 
HETATM   17  C   UNL     1      43.065 -18.660   4.548  1.00  0.00     0.101 A 
HETATM   18  C   UNL     1      43.135 -18.792   3.149  1.00  0.00     0.102 A 
HETATM   19  C   UNL     1      42.242 -18.087   2.333  1.00  0.00     0.048 A 
BRANCH  17  20
HETATM   20  O   UNL     1      43.961 -19.404   5.276  1.00  0.00    -0.353 OA
HETATM   21  C   UNL     1      44.983 -18.692   5.960  1.00  0.00     0.210 C 
ENDBRANCH  17  20
BRANCH  18  22
HETATM   22  O   UNL     1      44.063 -19.675   2.655  1.00  0.00    -0.348 OA
BRANCH  22  23
HETATM   23  C   UNL     1      43.546 -20.711   1.820  1.00  0.00     0.175 C 
BRANCH  23  24
HETATM   24  C   UNL     1      44.459 -21.926   1.970  1.00  0.00     0.022 C 
HETATM   25  C   UNL     1      44.542 -22.399   3.409  1.00  0.00     0.007 C 
ENDBRANCH  23  24
ENDBRANCH  22  23
ENDBRANCH  18  22
ENDBRANCH  13  14
ENDBRANCH  11  13
ENDBRANCH   1  11
BRANCH   8  26
HETATM   26  C   UNL     1      39.882 -11.096   6.497  1.00  0.00     0.270 C 
HETATM   27  N   UNL     1      40.520 -11.995   7.306  1.00  0.00    -0.365 N 
HETATM   28  H   UNL     1      41.268 -12.555   6.913  1.00  0.00     0.159 HD
HETATM   29  H   UNL     1      40.230 -12.102   8.264  1.00  0.00     0.159 HD
HETATM   30  O   UNL     1      38.963 -10.399   6.918  1.00  0.00    -0.266 OA
ENDBRANCH   8  26
TORSDOF 8
ENDMDL
MODEL 10
REMARK VINA RESULT:      -7.0      3.747      8.199
REMARK  8 active torsions:
REMARK  status: ('A' for Active; 'I' for Inactive)
REMARK    1  A    between atoms: C_2  and  C_3 
REMARK    2  A    between atoms: C_3  and  O_4 
REMARK    3  A    between atoms: O_4  and  C_5 
REMARK    4  A    between atoms: C_6  and  O_7 
REMARK    5  A    between atoms: C_11  and  C_12 
REMARK    6  A    between atoms: C_12  and  N_13 
REMARK    7  A    between atoms: N_13  and  C_14 
REMARK    8  A    between atoms: C_21  and  C_22 
REMARK       I    between atoms: C_22  and  N_23 
ROOT
HETATM    1  C   UNL     1      42.540 -16.904   6.247  1.00  0.00     0.009 A 
HETATM    2  C   UNL     1      42.903 -17.467   5.012  1.00  0.00     0.039 A 
HETATM    3  C   UNL     1      43.570 -18.709   4.962  1.00  0.00     0.030 A 
HETATM    4  C   UNL     1      43.882 -19.351   6.152  1.00  0.00     0.063 A 
HETATM    5  N   UNL     1      44.517 -20.505   5.785  1.00  0.00    -0.277 N 
HETATM    6  H   UNL     1      44.889 -21.222   6.399  1.00  0.00     0.189 HD
HETATM    7  N   UNL     1      44.655 -20.668   4.458  1.00  0.00    -0.168 NA
HETATM    8  C   UNL     1      44.076 -19.562   3.936  1.00  0.00     0.156 A 
HETATM    9  C   UNL     1      43.574 -18.817   7.404  1.00  0.00     0.034 A 
HETATM   10  C   UNL     1      42.917 -17.578   7.420  1.00  0.00     0.026 A 
ENDROOT
BRANCH   1  11
HETATM   11  N   UNL     1      41.958 -15.636   6.368  1.00  0.00    -0.289 NA
HETATM   12  H   UNL     1      42.323 -15.115   7.161  1.00  0.00     0.128 HD
BRANCH  11  13
HETATM   13  C   UNL     1      40.515 -15.497   6.231  1.00  0.00     0.131 C 
BRANCH  13  14
HETATM   14  C   UNL     1      40.214 -14.621   5.037  1.00  0.00    -0.042 A 
HETATM   15  C   UNL     1      39.728 -13.321   5.225  1.00  0.00     0.011 A 
HETATM   16  C   UNL     1      39.458 -12.496   4.129  1.00  0.00     0.040 A 
HETATM   17  C   UNL     1      39.656 -12.963   2.828  1.00  0.00     0.101 A 
HETATM   18  C   UNL     1      40.091 -14.286   2.629  1.00  0.00     0.102 A 
HETATM   19  C   UNL     1      40.383 -15.101   3.730  1.00  0.00     0.048 A 
BRANCH  17  20
HETATM   20  O   UNL     1      39.414 -12.224   1.696  1.00  0.00    -0.353 OA
HETATM   21  C   UNL     1      38.066 -11.852   1.445  1.00  0.00     0.210 C 
ENDBRANCH  17  20
BRANCH  18  22
HETATM   22  O   UNL     1      40.268 -14.692   1.329  1.00  0.00    -0.348 OA
BRANCH  22  23
HETATM   23  C   UNL     1      41.597 -15.077   0.978  1.00  0.00     0.175 C 
BRANCH  23  24
HETATM   24  C   UNL     1      41.512 -16.409   0.236  1.00  0.00     0.022 C 
HETATM   25  C   UNL     1      41.051 -17.535   1.143  1.00  0.00     0.007 C 
ENDBRANCH  23  24
ENDBRANCH  22  23
ENDBRANCH  18  22
ENDBRANCH  13  14
ENDBRANCH  11  13
ENDBRANCH   1  11
BRANCH   8  26
HETATM   26  C   UNL     1      44.020 -19.338   2.485  1.00  0.00     0.270 C 
HETATM   27  N   UNL     1      43.539 -20.402   1.772  1.00  0.00    -0.365 N 
HETATM   28  H   UNL     1      43.272 -21.240   2.275  1.00  0.00     0.159 HD
HETATM   29  H   UNL     1      43.477 -20.346   0.769  1.00  0.00     0.159 HD
HETATM   30  O   UNL     1      44.369 -18.301   1.927  1.00  0.00    -0.266 OA
ENDBRANCH   8  26
TORSDOF 8
ENDMDL
