MODEL 1
REMARK VINA RESULT:      -9.6      0.000      0.000
REMARK  8 active torsions:
REMARK  status: ('A' for Active; 'I' for Inactive)
REMARK    1  A    between atoms: C_5  and  C_6 
REMARK    2  A    between atoms: C_11  and  C_12 
REMARK    3  A    between atoms: N_13  and  N_14 
REMARK    4  A    between atoms: C_20  and  C_21 
REMARK    5  A    between atoms: C_21  and  O_22 
REMARK    6  A    between atoms: O_22  and  N_23 
REMARK    7  A    between atoms: N_23  and  C_24 
REMARK    8  A    between atoms: C_24  and  C_25 
ROOT
HETATM    1  N   UNL     1      41.721 -14.488   2.901  1.00  0.00    -0.180 N 
HETATM    2  C   UNL     1      42.022 -13.597   1.860  1.00  0.00     0.282 C 
HETATM    3  O   UNL     1      42.560 -12.497   1.986  1.00  0.00    -0.265 OA
HETATM    4  C   UNL     1      41.697 -14.068   0.502  1.00  0.00     0.063 A 
HETATM    5  C   UNL     1      41.234 -15.374   0.355  1.00  0.00     0.074 A 
HETATM    6  N   UNL     1      41.062 -16.238   1.441  1.00  0.00    -0.230 NA
HETATM    7  C   UNL     1      41.302 -15.784   2.636  1.00  0.00     0.157 C 
HETATM    8  C   UNL     1      41.875 -13.236  -0.612  1.00  0.00     0.019 A 
HETATM    9  C   UNL     1      41.585 -13.718  -1.887  1.00  0.00     0.001 A 
HETATM   10  C   UNL     1      41.123 -15.023  -2.046  1.00  0.00     0.002 A 
HETATM   11  C   UNL     1      40.948 -15.845  -0.929  1.00  0.00     0.032 A 
ENDROOT
BRANCH   1  12
HETATM   12  N   UNL     1      42.039 -14.183   4.218  1.00  0.00    -0.174 NA
HETATM   13  C   UNL     1      43.265 -14.351   4.594  1.00  0.00     0.154 C 
BRANCH  13  14
HETATM   14  C   UNL     1      43.612 -14.099   5.973  1.00  0.00     0.031 A 
HETATM   15  C   UNL     1      43.931 -15.034   7.007  1.00  0.00     0.100 A 
HETATM   16  N   UNL     1      44.272 -14.389   8.138  1.00  0.00    -0.174 NA
HETATM   17  N   UNL     1      44.118 -13.091   7.850  1.00  0.00    -0.288 N 
HETATM   18  H   UNL     1      44.307 -12.413   8.579  1.00  0.00     0.188 HD
HETATM   19  C   UNL     1      43.724 -12.860   6.571  1.00  0.00     0.124 A 
BRANCH  15  20
HETATM   20  C   UNL     1      43.912 -16.500   6.965  1.00  0.00    -0.005 A 
HETATM   21  C   UNL     1      45.043 -17.233   6.580  1.00  0.00     0.014 A 
HETATM   22  C   UNL     1      45.007 -18.631   6.538  1.00  0.00     0.007 A 
HETATM   23  C   UNL     1      43.835 -19.322   6.860  1.00  0.00    -0.062 A 
HETATM   24  C   UNL     1      43.788 -20.820   6.818  1.00  0.00     0.048 C 
HETATM   25  C   UNL     1      42.701 -18.594   7.236  1.00  0.00     0.007 A 
HETATM   26  C   UNL     1      42.739 -17.197   7.284  1.00  0.00     0.014 A 
ENDBRANCH  15  20
ENDBRANCH  13  14
ENDBRANCH   1  12
BRANCH   7  27
HETATM   27  C   UNL     1      41.126 -16.743   3.823  1.00  0.00     0.274 C 
BRANCH  27  28
HETATM   28  O   UNL     1      42.000 -17.859   3.919  1.00  0.00    -0.293 OA
BRANCH  28  29
HETATM   29  N   UNL     1      43.283 -17.454   3.535  1.00  0.00    -0.171 NA
HETATM   30  H   UNL     1      43.938 -17.361   4.315  1.00  0.00     0.160 HD
BRANCH  29  31
HETATM   31  C   UNL     1      43.864 -18.071   2.442  1.00  0.00     0.035 C 
HETATM   32  C   UNL     1      44.289 -17.451   1.331  1.00  0.00     0.039 C 
BRANCH  31  33
HETATM   33  C   UNL     1      44.051 -19.532   2.546  1.00  0.00    -0.014 A 
HETATM   34  C   UNL     1      43.328 -20.389   1.705  1.00  0.00     0.013 A 
HETATM   35  C   UNL     1      43.492 -21.773   1.794  1.00  0.00     0.001 A 
HETATM   36  C   UNL     1      44.385 -22.310   2.721  1.00  0.00     0.000 A 
HETATM   37  C   UNL     1      45.116 -21.466   3.556  1.00  0.00     0.001 A 
HETATM   38  C   UNL     1      44.950 -20.082   3.470  1.00  0.00     0.013 A 
ENDBRANCH  31  33
ENDBRANCH  29  31
ENDBRANCH  28  29
ENDBRANCH  27  28
ENDBRANCH   7  27
TORSDOF 8
ENDMDL
MODEL 2
REMARK VINA RESULT:      -9.2      2.061      7.035
REMARK  8 active torsions:
REMARK  status: ('A' for Active; 'I' for Inactive)
REMARK    1  A    between atoms: C_5  and  C_6 
REMARK    2  A    between atoms: C_11  and  C_12 
REMARK    3  A    between atoms: N_13  and  N_14 
REMARK    4  A    between atoms: C_20  and  C_21 
REMARK    5  A    between atoms: C_21  and  O_22 
REMARK    6  A    between atoms: O_22  and  N_23 
REMARK    7  A    between atoms: N_23  and  C_24 
REMARK    8  A    between atoms: C_24  and  C_25 
ROOT
HETATM    1  N   UNL     1      43.598 -17.267   3.430  1.00  0.00    -0.180 N 
HETATM    2  C   UNL     1      44.071 -18.271   4.288  1.00  0.00     0.282 C 
HETATM    3  O   UNL     1      44.364 -18.126   5.475  1.00  0.00    -0.265 OA
HETATM    4  C   UNL     1      44.168 -19.620   3.702  1.00  0.00     0.063 A 
HETATM    5  C   UNL     1      43.688 -19.807   2.407  1.00  0.00     0.074 A 
HETATM    6  N   UNL     1      43.130 -18.768   1.654  1.00  0.00    -0.230 NA
HETATM    7  C   UNL     1      43.105 -17.575   2.170  1.00  0.00     0.157 C 
HETATM    8  C   UNL     1      44.704 -20.688   4.434  1.00  0.00     0.019 A 
HETATM    9  C   UNL     1      44.759 -21.958   3.862  1.00  0.00     0.001 A 
HETATM   10  C   UNL     1      44.279 -22.157   2.568  1.00  0.00     0.002 A 
HETATM   11  C   UNL     1      43.748 -21.085   1.846  1.00  0.00     0.032 A 
ENDROOT
BRANCH   1  12
HETATM   12  N   UNL     1      43.404 -15.970   3.886  1.00  0.00    -0.174 NA
HETATM   13  C   UNL     1      42.464 -15.773   4.753  1.00  0.00     0.154 C 
BRANCH  13  14
HETATM   14  C   UNL     1      42.198 -14.426   5.201  1.00  0.00     0.031 A 
HETATM   15  C   UNL     1      41.204 -13.505   4.745  1.00  0.00     0.100 A 
HETATM   16  N   UNL     1      41.239 -12.374   5.473  1.00  0.00    -0.174 NA
HETATM   17  N   UNL     1      42.259 -12.547   6.323  1.00  0.00    -0.288 N 
HETATM   18  H   UNL     1      42.479 -11.795   6.967  1.00  0.00     0.188 HD
HETATM   19  C   UNL     1      42.868 -13.754   6.204  1.00  0.00     0.124 A 
BRANCH  15  20
HETATM   20  C   UNL     1      40.242 -13.652   3.648  1.00  0.00    -0.005 A 
HETATM   21  C   UNL     1      39.931 -14.910   3.115  1.00  0.00     0.014 A 
HETATM   22  C   UNL     1      39.016 -15.035   2.064  1.00  0.00     0.007 A 
HETATM   23  C   UNL     1      38.410 -13.902   1.512  1.00  0.00    -0.062 A 
HETATM   24  C   UNL     1      37.429 -14.025   0.385  1.00  0.00     0.048 C 
HETATM   25  C   UNL     1      38.725 -12.642   2.034  1.00  0.00     0.007 A 
HETATM   26  C   UNL     1      39.634 -12.520   3.089  1.00  0.00     0.014 A 
ENDBRANCH  15  20
ENDBRANCH  13  14
ENDBRANCH   1  12
BRANCH   7  27
HETATM   27  C   UNL     1      42.477 -16.443   1.344  1.00  0.00     0.274 C 
BRANCH  27  28
HETATM   28  O   UNL     1      42.164 -16.699  -0.017  1.00  0.00    -0.293 OA
BRANCH  28  29
HETATM   29  N   UNL     1      40.976 -16.030  -0.334  1.00  0.00    -0.171 NA
HETATM   30  H   UNL     1      40.501 -15.626   0.477  1.00  0.00     0.160 HD
BRANCH  29  31
HETATM   31  C   UNL     1      40.980 -15.167  -1.415  1.00  0.00     0.035 C 
HETATM   32  C   UNL     1      40.970 -15.534  -2.705  1.00  0.00     0.039 C 
BRANCH  31  33
HETATM   33  C   UNL     1      40.961 -13.726  -1.095  1.00  0.00    -0.014 A 
HETATM   34  C   UNL     1      41.823 -13.218  -0.113  1.00  0.00     0.013 A 
HETATM   35  C   UNL     1      41.812 -11.858   0.203  1.00  0.00     0.001 A 
HETATM   36  C   UNL     1      40.944 -10.994  -0.465  1.00  0.00     0.000 A 
HETATM   37  C   UNL     1      40.089 -11.487  -1.450  1.00  0.00     0.001 A 
HETATM   38  C   UNL     1      40.097 -12.848  -1.764  1.00  0.00     0.013 A 
ENDBRANCH  31  33
ENDBRANCH  29  31
ENDBRANCH  28  29
ENDBRANCH  27  28
ENDBRANCH   7  27
TORSDOF 8
ENDMDL
MODEL 3
REMARK VINA RESULT:      -9.2      2.566      6.685
REMARK  8 active torsions:
REMARK  status: ('A' for Active; 'I' for Inactive)
REMARK    1  A    between atoms: C_5  and  C_6 
REMARK    2  A    between atoms: C_11  and  C_12 
REMARK    3  A    between atoms: N_13  and  N_14 
REMARK    4  A    between atoms: C_20  and  C_21 
REMARK    5  A    between atoms: C_21  and  O_22 
REMARK    6  A    between atoms: O_22  and  N_23 
REMARK    7  A    between atoms: N_23  and  C_24 
REMARK    8  A    between atoms: C_24  and  C_25 
ROOT
HETATM    1  N   UNL     1      42.376 -15.051   4.136  1.00  0.00    -0.180 N 
HETATM    2  C   UNL     1      42.055 -15.497   2.846  1.00  0.00     0.282 C 
HETATM    3  O   UNL     1      41.812 -16.660   2.526  1.00  0.00    -0.265 OA
HETATM    4  C   UNL     1      41.961 -14.450   1.813  1.00  0.00     0.063 A 
HETATM    5  C   UNL     1      42.084 -13.121   2.214  1.00  0.00     0.074 A 
HETATM    6  N   UNL     1      42.298 -12.754   3.546  1.00  0.00    -0.230 NA
HETATM    7  C   UNL     1      42.433 -13.696   4.433  1.00  0.00     0.157 C 
HETATM    8  C   UNL     1      41.729 -14.780   0.470  1.00  0.00     0.019 A 
HETATM    9  C   UNL     1      41.618 -13.767  -0.481  1.00  0.00     0.001 A 
HETATM   10  C   UNL     1      41.737 -12.434  -0.090  1.00  0.00     0.002 A 
HETATM   11  C   UNL     1      41.970 -12.116   1.251  1.00  0.00     0.032 A 
ENDROOT
BRANCH   1  12
HETATM   12  N   UNL     1      42.431 -15.935   5.205  1.00  0.00    -0.174 NA
HETATM   13  C   UNL     1      43.571 -16.487   5.470  1.00  0.00     0.154 C 
BRANCH  13  14
HETATM   14  C   UNL     1      43.646 -17.457   6.538  1.00  0.00     0.031 A 
HETATM   15  C   UNL     1      43.905 -18.861   6.463  1.00  0.00     0.100 A 
HETATM   16  N   UNL     1      43.964 -19.396   7.696  1.00  0.00    -0.174 NA
HETATM   17  N   UNL     1      43.694 -18.378   8.523  1.00  0.00    -0.288 N 
HETATM   18  H   UNL     1      43.669 -18.564   9.520  1.00  0.00     0.188 HD
HETATM   19  C   UNL     1      43.494 -17.197   7.885  1.00  0.00     0.124 A 
BRANCH  15  20
HETATM   20  C   UNL     1      44.082 -19.706   5.278  1.00  0.00    -0.005 A 
HETATM   21  C   UNL     1      44.573 -21.014   5.382  1.00  0.00     0.014 A 
HETATM   22  C   UNL     1      44.744 -21.806   4.241  1.00  0.00     0.007 A 
HETATM   23  C   UNL     1      44.447 -21.298   2.973  1.00  0.00    -0.062 A 
HETATM   24  C   UNL     1      44.626 -22.138   1.744  1.00  0.00     0.048 C 
HETATM   25  C   UNL     1      43.965 -19.988   2.863  1.00  0.00     0.007 A 
HETATM   26  C   UNL     1      43.789 -19.200   4.004  1.00  0.00     0.014 A 
ENDBRANCH  15  20
ENDBRANCH  13  14
ENDBRANCH   1  12
BRANCH   7  27
HETATM   27  C   UNL     1      42.652 -13.286   5.897  1.00  0.00     0.274 C 
BRANCH  27  28
HETATM   28  O   UNL     1      43.974 -13.318   6.412  1.00  0.00    -0.293 OA
BRANCH  28  29
HETATM   29  N   UNL     1      43.907 -13.321   7.810  1.00  0.00    -0.171 NA
HETATM   30  H   UNL     1      43.862 -14.256   8.220  1.00  0.00     0.160 HD
BRANCH  29  31
HETATM   31  C   UNL     1      44.766 -12.491   8.507  1.00  0.00     0.035 C 
HETATM   32  C   UNL     1      46.100 -12.455   8.369  1.00  0.00     0.039 C 
BRANCH  31  33
HETATM   33  C   UNL     1      44.133 -11.549   9.453  1.00  0.00    -0.014 A 
HETATM   34  C   UNL     1      44.730 -11.305  10.697  1.00  0.00     0.013 A 
HETATM   35  C   UNL     1      44.142 -10.420  11.603  1.00  0.00     0.001 A 
HETATM   36  C   UNL     1      42.955  -9.768  11.269  1.00  0.00     0.000 A 
HETATM   37  C   UNL     1      42.357  -9.997  10.031  1.00  0.00     0.001 A 
HETATM   38  C   UNL     1      42.944 -10.884   9.125  1.00  0.00     0.013 A 
ENDBRANCH  31  33
ENDBRANCH  29  31
ENDBRANCH  28  29
ENDBRANCH  27  28
ENDBRANCH   7  27
TORSDOF 8
ENDMDL
MODEL 4
REMARK VINA RESULT:      -9.2      1.715      2.559
REMARK  8 active torsions:
REMARK  status: ('A' for Active; 'I' for Inactive)
REMARK    1  A    between atoms: C_5  and  C_6 
REMARK    2  A    between atoms: C_11  and  C_12 
REMARK    3  A    between atoms: N_13  and  N_14 
REMARK    4  A    between atoms: C_20  and  C_21 
REMARK    5  A    between atoms: C_21  and  O_22 
REMARK    6  A    between atoms: O_22  and  N_23 
REMARK    7  A    between atoms: N_23  and  C_24 
REMARK    8  A    between atoms: C_24  and  C_25 
ROOT
HETATM    1  N   UNL     1      41.510 -13.808   1.404  1.00  0.00    -0.180 N 
HETATM    2  C   UNL     1      41.916 -13.087   0.271  1.00  0.00     0.282 C 
HETATM    3  O   UNL     1      42.494 -12.000   0.278  1.00  0.00    -0.265 OA
HETATM    4  C   UNL     1      41.659 -13.737  -1.026  1.00  0.00     0.063 A 
HETATM    5  C   UNL     1      41.148 -15.034  -1.019  1.00  0.00     0.074 A 
HETATM    6  N   UNL     1      40.869 -15.726   0.164  1.00  0.00    -0.230 NA
HETATM    7  C   UNL     1      41.051 -15.113   1.297  1.00  0.00     0.157 C 
HETATM    8  C   UNL     1      41.945 -13.081  -2.231  1.00  0.00     0.019 A 
HETATM    9  C   UNL     1      41.716 -13.731  -3.443  1.00  0.00     0.001 A 
HETATM   10  C   UNL     1      41.206 -15.029  -3.447  1.00  0.00     0.002 A 
HETATM   11  C   UNL     1      40.924 -15.674  -2.240  1.00  0.00     0.032 A 
ENDROOT
BRANCH   1  12
HETATM   12  N   UNL     1      41.756 -13.327   2.683  1.00  0.00    -0.174 NA
HETATM   13  C   UNL     1      40.885 -12.523   3.200  1.00  0.00     0.154 C 
BRANCH  13  14
HETATM   14  C   UNL     1      41.143 -11.959   4.505  1.00  0.00     0.031 A 
HETATM   15  C   UNL     1      41.618 -12.607   5.688  1.00  0.00     0.100 A 
HETATM   16  N   UNL     1      41.796 -11.712   6.677  1.00  0.00    -0.174 NA
HETATM   17  N   UNL     1      41.393 -10.545   6.158  1.00  0.00    -0.288 N 
HETATM   18  H   UNL     1      41.426  -9.722   6.748  1.00  0.00     0.188 HD
HETATM   19  C   UNL     1      40.991 -10.635   4.864  1.00  0.00     0.124 A 
BRANCH  15  20
HETATM   20  C   UNL     1      41.893 -14.029   5.916  1.00  0.00    -0.005 A 
HETATM   21  C   UNL     1      40.856 -14.946   6.134  1.00  0.00     0.014 A 
HETATM   22  C   UNL     1      41.134 -16.299   6.357  1.00  0.00     0.007 A 
HETATM   23  C   UNL     1      42.455 -16.758   6.385  1.00  0.00    -0.062 A 
HETATM   24  C   UNL     1      42.763 -18.206   6.622  1.00  0.00     0.048 C 
HETATM   25  C   UNL     1      43.494 -15.844   6.176  1.00  0.00     0.007 A 
HETATM   26  C   UNL     1      43.215 -14.493   5.948  1.00  0.00     0.014 A 
ENDBRANCH  15  20
ENDBRANCH  13  14
ENDBRANCH   1  12
BRANCH   7  27
HETATM   27  C   UNL     1      40.757 -15.884   2.592  1.00  0.00     0.274 C 
BRANCH  27  28
HETATM   28  O   UNL     1      41.780 -16.712   3.127  1.00  0.00    -0.293 OA
BRANCH  28  29
HETATM   29  N   UNL     1      41.999 -17.775   2.244  1.00  0.00    -0.171 NA
HETATM   30  H   UNL     1      41.418 -17.740   1.403  1.00  0.00     0.160 HD
BRANCH  29  31
HETATM   31  C   UNL     1      43.305 -18.128   1.956  1.00  0.00     0.035 C 
HETATM   32  C   UNL     1      44.194 -17.363   1.305  1.00  0.00     0.039 C 
BRANCH  31  33
HETATM   33  C   UNL     1      43.743 -19.450   2.449  1.00  0.00    -0.014 A 
HETATM   34  C   UNL     1      44.395 -19.551   3.685  1.00  0.00     0.013 A 
HETATM   35  C   UNL     1      44.819 -20.793   4.162  1.00  0.00     0.001 A 
HETATM   36  C   UNL     1      44.588 -21.945   3.408  1.00  0.00     0.000 A 
HETATM   37  C   UNL     1      43.932 -21.856   2.182  1.00  0.00     0.001 A 
HETATM   38  C   UNL     1      43.511 -20.613   1.702  1.00  0.00     0.013 A 
ENDBRANCH  31  33
ENDBRANCH  29  31
ENDBRANCH  28  29
ENDBRANCH  27  28
ENDBRANCH   7  27
TORSDOF 8
ENDMDL
MODEL 5
REMARK VINA RESULT:      -9.1      2.391      5.771
REMARK  8 active torsions:
REMARK  status: ('A' for Active; 'I' for Inactive)
REMARK    1  A    between atoms: C_5  and  C_6 
REMARK    2  A    between atoms: C_11  and  C_12 
REMARK    3  A    between atoms: N_13  and  N_14 
REMARK    4  A    between atoms: C_20  and  C_21 
REMARK    5  A    between atoms: C_21  and  O_22 
REMARK    6  A    between atoms: O_22  and  N_23 
REMARK    7  A    between atoms: N_23  and  C_24 
REMARK    8  A    between atoms: C_24  and  C_25 
ROOT
HETATM    1  N   UNL     1      41.826 -14.859   1.723  1.00  0.00    -0.180 N 
HETATM    2  C   UNL     1      41.423 -15.616   0.612  1.00  0.00     0.282 C 
HETATM    3  O   UNL     1      41.066 -16.793   0.635  1.00  0.00    -0.265 OA
HETATM    4  C   UNL     1      41.389 -14.896  -0.673  1.00  0.00     0.063 A 
HETATM    5  C   UNL     1      41.645 -13.526  -0.663  1.00  0.00     0.074 A 
HETATM    6  N   UNL     1      41.935 -12.823   0.510  1.00  0.00    -0.230 NA
HETATM    7  C   UNL     1      42.014 -13.488   1.626  1.00  0.00     0.157 C 
HETATM    8  C   UNL     1      41.083 -15.565  -1.866  1.00  0.00     0.019 A 
HETATM    9  C   UNL     1      41.032 -14.852  -3.063  1.00  0.00     0.001 A 
HETATM   10  C   UNL     1      41.284 -13.481  -3.065  1.00  0.00     0.002 A 
HETATM   11  C   UNL     1      41.589 -12.824  -1.870  1.00  0.00     0.032 A 
ENDROOT
BRANCH   1  12
HETATM   12  N   UNL     1      41.837 -15.410   2.997  1.00  0.00    -0.174 NA
HETATM   13  C   UNL     1      42.986 -15.706   3.514  1.00  0.00     0.154 C 
BRANCH  13  14
HETATM   14  C   UNL     1      43.026 -16.335   4.813  1.00  0.00     0.031 A 
HETATM   15  C   UNL     1      43.334 -17.691   5.148  1.00  0.00     0.100 A 
HETATM   16  N   UNL     1      43.334 -17.858   6.483  1.00  0.00    -0.174 NA
HETATM   17  N   UNL     1      42.981 -16.665   6.977  1.00  0.00    -0.288 N 
HETATM   18  H   UNL     1      42.901 -16.568   7.983  1.00  0.00     0.188 HD
HETATM   19  C   UNL     1      42.783 -15.718   6.024  1.00  0.00     0.124 A 
BRANCH  15  20
HETATM   20  C   UNL     1      43.612 -18.822   4.258  1.00  0.00    -0.005 A 
HETATM   21  C   UNL     1      44.507 -19.836   4.624  1.00  0.00     0.014 A 
HETATM   22  C   UNL     1      44.767 -20.906   3.761  1.00  0.00     0.007 A 
HETATM   23  C   UNL     1      44.153 -20.972   2.507  1.00  0.00    -0.062 A 
HETATM   24  C   UNL     1      44.426 -22.115   1.574  1.00  0.00     0.048 C 
HETATM   25  C   UNL     1      43.265 -19.957   2.132  1.00  0.00     0.007 A 
HETATM   26  C   UNL     1      43.001 -18.892   2.998  1.00  0.00     0.014 A 
ENDBRANCH  15  20
ENDBRANCH  13  14
ENDBRANCH   1  12
BRANCH   7  27
HETATM   27  C   UNL     1      42.318 -12.707   2.912  1.00  0.00     0.274 C 
BRANCH  27  28
HETATM   28  O   UNL     1      41.288 -11.904   3.470  1.00  0.00    -0.293 OA
BRANCH  28  29
HETATM   29  N   UNL     1      40.080 -12.605   3.380  1.00  0.00    -0.171 NA
HETATM   30  H   UNL     1      39.845 -13.133   4.223  1.00  0.00     0.160 HD
BRANCH  29  31
HETATM   31  C   UNL     1      38.981 -11.948   2.857  1.00  0.00     0.035 C 
HETATM   32  C   UNL     1      38.266 -11.003   3.485  1.00  0.00     0.039 C 
BRANCH  31  33
HETATM   33  C   UNL     1      38.604 -12.312   1.476  1.00  0.00    -0.014 A 
HETATM   34  C   UNL     1      38.613 -11.336   0.471  1.00  0.00     0.013 A 
HETATM   35  C   UNL     1      38.254 -11.664  -0.838  1.00  0.00     0.001 A 
HETATM   36  C   UNL     1      37.890 -12.974  -1.153  1.00  0.00     0.000 A 
HETATM   37  C   UNL     1      37.887 -13.954  -0.162  1.00  0.00     0.001 A 
HETATM   38  C   UNL     1      38.242 -13.626   1.148  1.00  0.00     0.013 A 
ENDBRANCH  31  33
ENDBRANCH  29  31
ENDBRANCH  28  29
ENDBRANCH  27  28
ENDBRANCH   7  27
TORSDOF 8
ENDMDL
MODEL 6
REMARK VINA RESULT:      -9.1      3.524      8.183
REMARK  8 active torsions:
REMARK  status: ('A' for Active; 'I' for Inactive)
REMARK    1  A    between atoms: C_5  and  C_6 
REMARK    2  A    between atoms: C_11  and  C_12 
REMARK    3  A    between atoms: N_13  and  N_14 
REMARK    4  A    between atoms: C_20  and  C_21 
REMARK    5  A    between atoms: C_21  and  O_22 
REMARK    6  A    between atoms: O_22  and  N_23 
REMARK    7  A    between atoms: N_23  and  C_24 
REMARK    8  A    between atoms: C_24  and  C_25 
ROOT
HETATM    1  N   UNL     1      43.223 -15.235   4.420  1.00  0.00    -0.180 N 
HETATM    2  C   UNL     1      43.317 -16.199   3.406  1.00  0.00     0.282 C 
HETATM    3  O   UNL     1      43.140 -16.000   2.204  1.00  0.00    -0.265 OA
HETATM    4  C   UNL     1      43.711 -17.550   3.843  1.00  0.00     0.063 A 
HETATM    5  C   UNL     1      44.061 -17.730   5.180  1.00  0.00     0.074 A 
HETATM    6  N   UNL     1      44.043 -16.685   6.109  1.00  0.00    -0.230 NA
HETATM    7  C   UNL     1      43.639 -15.513   5.715  1.00  0.00     0.157 C 
HETATM    8  C   UNL     1      43.759 -18.617   2.935  1.00  0.00     0.019 A 
HETATM    9  C   UNL     1      44.162 -19.878   3.372  1.00  0.00     0.001 A 
HETATM   10  C   UNL     1      44.515 -20.069   4.707  1.00  0.00     0.002 A 
HETATM   11  C   UNL     1      44.464 -18.998   5.604  1.00  0.00     0.032 A 
ENDROOT
BRANCH   1  12
HETATM   12  N   UNL     1      42.921 -13.912   4.124  1.00  0.00    -0.174 NA
HETATM   13  C   UNL     1      41.674 -13.596   3.990  1.00  0.00     0.154 C 
BRANCH  13  14
HETATM   14  C   UNL     1      41.333 -12.242   3.623  1.00  0.00     0.031 A 
HETATM   15  C   UNL     1      40.977 -11.142   4.465  1.00  0.00     0.100 A 
HETATM   16  N   UNL     1      40.804 -10.025   3.735  1.00  0.00    -0.174 NA
HETATM   17  N   UNL     1      40.985 -10.415   2.467  1.00  0.00    -0.288 N 
HETATM   18  H   UNL     1      40.882  -9.723   1.733  1.00  0.00     0.188 HD
HETATM   19  C   UNL     1      41.302 -11.729   2.341  1.00  0.00     0.124 A 
BRANCH  15  20
HETATM   20  C   UNL     1      40.786 -11.116   5.918  1.00  0.00    -0.005 A 
HETATM   21  C   UNL     1      39.649 -11.678   6.514  1.00  0.00     0.014 A 
HETATM   22  C   UNL     1      39.477 -11.639   7.903  1.00  0.00     0.007 A 
HETATM   23  C   UNL     1      40.429 -11.021   8.719  1.00  0.00    -0.062 A 
HETATM   24  C   UNL     1      40.253 -10.975  10.208  1.00  0.00     0.048 C 
HETATM   25  C   UNL     1      41.561 -10.450   8.128  1.00  0.00     0.007 A 
HETATM   26  C   UNL     1      41.735 -10.494   6.741  1.00  0.00     0.014 A 
ENDBRANCH  15  20
ENDBRANCH  13  14
ENDBRANCH   1  12
BRANCH   7  27
HETATM   27  C   UNL     1      43.637 -14.367   6.736  1.00  0.00     0.274 C 
BRANCH  27  28
HETATM   28  O   UNL     1      44.781 -14.199   7.560  1.00  0.00    -0.293 OA
BRANCH  28  29
HETATM   29  N   UNL     1      44.377 -13.630   8.773  1.00  0.00    -0.171 NA
HETATM   30  H   UNL     1      44.250 -14.309   9.526  1.00  0.00     0.160 HD
BRANCH  29  31
HETATM   31  C   UNL     1      45.027 -12.489   9.208  1.00  0.00     0.035 C 
HETATM   32  C   UNL     1      46.146 -11.977   8.672  1.00  0.00     0.039 C 
BRANCH  31  33
HETATM   33  C   UNL     1      44.399 -11.775  10.338  1.00  0.00    -0.014 A 
HETATM   34  C   UNL     1      44.317 -10.376  10.318  1.00  0.00     0.013 A 
HETATM   35  C   UNL     1      43.730  -9.687  11.381  1.00  0.00     0.001 A 
HETATM   36  C   UNL     1      43.214 -10.392  12.468  1.00  0.00     0.000 A 
HETATM   37  C   UNL     1      43.282 -11.784  12.493  1.00  0.00     0.001 A 
HETATM   38  C   UNL     1      43.872 -12.474  11.432  1.00  0.00     0.013 A 
ENDBRANCH  31  33
ENDBRANCH  29  31
ENDBRANCH  28  29
ENDBRANCH  27  28
ENDBRANCH   7  27
TORSDOF 8
ENDMDL
MODEL 7
REMARK VINA RESULT:      -9.0      2.231      6.006
REMARK  8 active torsions:
REMARK  status: ('A' for Active; 'I' for Inactive)
REMARK    1  A    between atoms: C_5  and  C_6 
REMARK    2  A    between atoms: C_11  and  C_12 
REMARK    3  A    between atoms: N_13  and  N_14 
REMARK    4  A    between atoms: C_20  and  C_21 
REMARK    5  A    between atoms: C_21  and  O_22 
REMARK    6  A    between atoms: O_22  and  N_23 
REMARK    7  A    between atoms: N_23  and  C_24 
REMARK    8  A    between atoms: C_24  and  C_25 
ROOT
HETATM    1  N   UNL     1      41.464 -14.461   0.876  1.00  0.00    -0.180 N 
HETATM    2  C   UNL     1      41.486 -15.391  -0.175  1.00  0.00     0.282 C 
HETATM    3  O   UNL     1      42.118 -16.448  -0.188  1.00  0.00    -0.265 OA
HETATM    4  C   UNL     1      40.629 -15.071  -1.330  1.00  0.00     0.063 A 
HETATM    5  C   UNL     1      39.800 -13.955  -1.241  1.00  0.00     0.074 A 
HETATM    6  N   UNL     1      39.760 -13.136  -0.108  1.00  0.00    -0.230 NA
HETATM    7  C   UNL     1      40.564 -13.405   0.878  1.00  0.00     0.157 C 
HETATM    8  C   UNL     1      40.629 -15.880  -2.474  1.00  0.00     0.019 A 
HETATM    9  C   UNL     1      39.789 -15.568  -3.541  1.00  0.00     0.001 A 
HETATM   10  C   UNL     1      38.953 -14.455  -3.462  1.00  0.00     0.002 A 
HETATM   11  C   UNL     1      38.961 -13.654  -2.317  1.00  0.00     0.032 A 
ENDROOT
BRANCH   1  12
HETATM   12  N   UNL     1      42.180 -14.685   2.044  1.00  0.00    -0.174 NA
HETATM   13  C   UNL     1      41.741 -15.593   2.853  1.00  0.00     0.154 C 
BRANCH  13  14
HETATM   14  C   UNL     1      42.431 -15.806   4.104  1.00  0.00     0.031 A 
HETATM   15  C   UNL     1      43.234 -16.917   4.513  1.00  0.00     0.100 A 
HETATM   16  N   UNL     1      43.762 -16.695   5.730  1.00  0.00    -0.174 NA
HETATM   17  N   UNL     1      43.264 -15.510   6.107  1.00  0.00    -0.288 N 
HETATM   18  H   UNL     1      43.523 -15.151   7.019  1.00  0.00     0.188 HD
HETATM   19  C   UNL     1      42.462 -14.935   5.175  1.00  0.00     0.124 A 
BRANCH  15  20
HETATM   20  C   UNL     1      43.505 -18.171   3.804  1.00  0.00    -0.005 A 
HETATM   21  C   UNL     1      42.911 -18.452   2.566  1.00  0.00     0.014 A 
HETATM   22  C   UNL     1      43.173 -19.656   1.904  1.00  0.00     0.007 A 
HETATM   23  C   UNL     1      44.018 -20.612   2.477  1.00  0.00    -0.062 A 
HETATM   24  C   UNL     1      44.305 -21.906   1.775  1.00  0.00     0.048 C 
HETATM   25  C   UNL     1      44.605 -20.341   3.718  1.00  0.00     0.007 A 
HETATM   26  C   UNL     1      44.347 -19.135   4.375  1.00  0.00     0.014 A 
ENDBRANCH  15  20
ENDBRANCH  13  14
ENDBRANCH   1  12
BRANCH   7  27
HETATM   27  C   UNL     1      40.504 -12.510   2.125  1.00  0.00     0.274 C 
BRANCH  27  28
HETATM   28  O   UNL     1      41.253 -11.304   2.123  1.00  0.00    -0.293 OA
BRANCH  28  29
HETATM   29  N   UNL     1      42.218 -11.382   1.112  1.00  0.00    -0.171 NA
HETATM   30  H   UNL     1      42.375 -12.330   0.763  1.00  0.00     0.160 HD
BRANCH  29  31
HETATM   31  C   UNL     1      42.167 -10.454   0.087  1.00  0.00     0.035 C 
HETATM   32  C   UNL     1      42.203  -9.122   0.239  1.00  0.00     0.039 C 
BRANCH  31  33
HETATM   33  C   UNL     1      42.102 -11.003  -1.282  1.00  0.00    -0.014 A 
HETATM   34  C   UNL     1      41.238 -10.428  -2.223  1.00  0.00     0.013 A 
HETATM   35  C   UNL     1      41.163 -10.938  -3.521  1.00  0.00     0.001 A 
HETATM   36  C   UNL     1      41.957 -12.024  -3.889  1.00  0.00     0.000 A 
HETATM   37  C   UNL     1      42.828 -12.598  -2.963  1.00  0.00     0.001 A 
HETATM   38  C   UNL     1      42.901 -12.090  -1.664  1.00  0.00     0.013 A 
ENDBRANCH  31  33
ENDBRANCH  29  31
ENDBRANCH  28  29
ENDBRANCH  27  28
ENDBRANCH   7  27
TORSDOF 8
ENDMDL
MODEL 8
REMARK VINA RESULT:      -9.0      3.184      6.039
REMARK  8 active torsions:
REMARK  status: ('A' for Active; 'I' for Inactive)
REMARK    1  A    between atoms: C_5  and  C_6 
REMARK    2  A    between atoms: C_11  and  C_12 
REMARK    3  A    between atoms: N_13  and  N_14 
REMARK    4  A    between atoms: C_20  and  C_21 
REMARK    5  A    between atoms: C_21  and  O_22 
REMARK    6  A    between atoms: O_22  and  N_23 
REMARK    7  A    between atoms: N_23  and  C_24 
REMARK    8  A    between atoms: C_24  and  C_25 
ROOT
HETATM    1  N   UNL     1      42.301 -14.364   5.239  1.00  0.00    -0.180 N 
HETATM    2  C   UNL     1      43.487 -14.930   5.730  1.00  0.00     0.282 C 
HETATM    3  O   UNL     1      44.454 -14.307   6.168  1.00  0.00    -0.265 OA
HETATM    4  C   UNL     1      43.530 -16.403   5.755  1.00  0.00     0.063 A 
HETATM    5  C   UNL     1      42.374 -17.098   5.405  1.00  0.00     0.074 A 
HETATM    6  N   UNL     1      41.193 -16.451   5.027  1.00  0.00    -0.230 NA
HETATM    7  C   UNL     1      41.193 -15.152   4.959  1.00  0.00     0.157 C 
HETATM    8  C   UNL     1      44.691 -17.084   6.146  1.00  0.00     0.019 A 
HETATM    9  C   UNL     1      44.693 -18.477   6.186  1.00  0.00     0.001 A 
HETATM   10  C   UNL     1      43.542 -19.183   5.839  1.00  0.00     0.002 A 
HETATM   11  C   UNL     1      42.390 -18.494   5.450  1.00  0.00     0.032 A 
ENDROOT
BRANCH   1  12
HETATM   12  N   UNL     1      42.118 -12.988   5.225  1.00  0.00    -0.174 NA
HETATM   13  C   UNL     1      41.960 -12.391   6.362  1.00  0.00     0.154 C 
BRANCH  13  14
HETATM   14  C   UNL     1      41.707 -10.969   6.375  1.00  0.00     0.031 A 
HETATM   15  C   UNL     1      41.786 -10.050   7.467  1.00  0.00     0.100 A 
HETATM   16  N   UNL     1      41.545  -8.795   7.046  1.00  0.00    -0.174 NA
HETATM   17  N   UNL     1      41.265  -8.920   5.743  1.00  0.00    -0.288 N 
HETATM   18  H   UNL     1      41.032  -8.083   5.220  1.00  0.00     0.188 HD
HETATM   19  C   UNL     1      41.345 -10.197   5.289  1.00  0.00     0.124 A 
BRANCH  15  20
HETATM   20  C   UNL     1      42.066 -10.318   8.881  1.00  0.00    -0.005 A 
HETATM   21  C   UNL     1      43.349 -10.675   9.316  1.00  0.00     0.014 A 
HETATM   22  C   UNL     1      43.600 -10.934  10.668  1.00  0.00     0.007 A 
HETATM   23  C   UNL     1      42.567 -10.862  11.608  1.00  0.00    -0.062 A 
HETATM   24  C   UNL     1      42.826 -11.138  13.059  1.00  0.00     0.048 C 
HETATM   25  C   UNL     1      41.282 -10.515  11.177  1.00  0.00     0.007 A 
HETATM   26  C   UNL     1      41.034 -10.250   9.827  1.00  0.00     0.014 A 
ENDBRANCH  15  20
ENDBRANCH  13  14
ENDBRANCH   1  12
BRANCH   7  27
HETATM   27  C   UNL     1      39.889 -14.448   4.559  1.00  0.00     0.274 C 
BRANCH  27  28
HETATM   28  O   UNL     1      39.610 -14.286   3.176  1.00  0.00    -0.293 OA
BRANCH  28  29
HETATM   29  N   UNL     1      39.733 -15.531   2.548  1.00  0.00    -0.171 NA
HETATM   30  H   UNL     1      38.838 -15.989   2.360  1.00  0.00     0.160 HD
BRANCH  29  31
HETATM   31  C   UNL     1      40.606 -15.641   1.481  1.00  0.00     0.035 C 
HETATM   32  C   UNL     1      40.518 -14.962   0.328  1.00  0.00     0.039 C 
BRANCH  31  33
HETATM   33  C   UNL     1      41.742 -16.567   1.665  1.00  0.00    -0.014 A 
HETATM   34  C   UNL     1      43.030 -16.056   1.871  1.00  0.00     0.013 A 
HETATM   35  C   UNL     1      44.115 -16.920   2.043  1.00  0.00     0.001 A 
HETATM   36  C   UNL     1      43.917 -18.300   2.016  1.00  0.00     0.000 A 
HETATM   37  C   UNL     1      42.638 -18.818   1.822  1.00  0.00     0.001 A 
HETATM   38  C   UNL     1      41.553 -17.956   1.646  1.00  0.00     0.013 A 
ENDBRANCH  31  33
ENDBRANCH  29  31
ENDBRANCH  28  29
ENDBRANCH  27  28
ENDBRANCH   7  27
TORSDOF 8
ENDMDL
MODEL 9
REMARK VINA RESULT:      -9.0      2.542      7.621
REMARK  8 active torsions:
REMARK  status: ('A' for Active; 'I' for Inactive)
REMARK    1  A    between atoms: C_5  and  C_6 
REMARK    2  A    between atoms: C_11  and  C_12 
REMARK    3  A    between atoms: N_13  and  N_14 
REMARK    4  A    between atoms: C_20  and  C_21 
REMARK    5  A    between atoms: C_21  and  O_22 
REMARK    6  A    between atoms: O_22  and  N_23 
REMARK    7  A    between atoms: N_23  and  C_24 
REMARK    8  A    between atoms: C_24  and  C_25 
ROOT
HETATM    1  N   UNL     1      41.510 -16.520   3.294  1.00  0.00    -0.180 N 
HETATM    2  C   UNL     1      42.247 -17.191   4.281  1.00  0.00     0.282 C 
HETATM    3  O   UNL     1      42.222 -16.946   5.488  1.00  0.00    -0.265 OA
HETATM    4  C   UNL     1      43.076 -18.313   3.809  1.00  0.00     0.063 A 
HETATM    5  C   UNL     1      42.977 -18.682   2.468  1.00  0.00     0.074 A 
HETATM    6  N   UNL     1      42.133 -18.024   1.568  1.00  0.00    -0.230 NA
HETATM    7  C   UNL     1      41.451 -17.001   1.993  1.00  0.00     0.157 C 
HETATM    8  C   UNL     1      43.919 -19.008   4.687  1.00  0.00     0.019 A 
HETATM    9  C   UNL     1      44.671 -20.083   4.217  1.00  0.00     0.001 A 
HETATM   10  C   UNL     1      44.579 -20.461   2.879  1.00  0.00     0.002 A 
HETATM   11  C   UNL     1      43.735 -19.761   2.011  1.00  0.00     0.032 A 
ENDROOT
BRANCH   1  12
HETATM   12  N   UNL     1      40.645 -15.486   3.625  1.00  0.00    -0.174 NA
HETATM   13  C   UNL     1      41.120 -14.283   3.629  1.00  0.00     0.154 C 
BRANCH  13  14
HETATM   14  C   UNL     1      40.259 -13.194   4.028  1.00  0.00     0.031 A 
HETATM   15  C   UNL     1      39.270 -12.500   3.262  1.00  0.00     0.100 A 
HETATM   16  N   UNL     1      38.632 -11.595   4.026  1.00  0.00    -0.174 NA
HETATM   17  N   UNL     1      39.234 -11.670   5.220  1.00  0.00    -0.288 N 
HETATM   18  H   UNL     1      38.916 -11.050   5.956  1.00  0.00     0.188 HD
HETATM   19  C   UNL     1      40.214 -12.607   5.277  1.00  0.00     0.124 A 
BRANCH  15  20
HETATM   20  C   UNL     1      38.922 -12.654   1.846  1.00  0.00    -0.005 A 
HETATM   21  C   UNL     1      38.061 -13.671   1.413  1.00  0.00     0.014 A 
HETATM   22  C   UNL     1      37.744 -13.810   0.058  1.00  0.00     0.007 A 
HETATM   23  C   UNL     1      38.298 -12.948  -0.893  1.00  0.00    -0.062 A 
HETATM   24  C   UNL     1      37.964 -13.088  -2.348  1.00  0.00     0.048 C 
HETATM   25  C   UNL     1      39.166 -11.936  -0.467  1.00  0.00     0.007 A 
HETATM   26  C   UNL     1      39.477 -11.794   0.888  1.00  0.00     0.014 A 
ENDBRANCH  15  20
ENDBRANCH  13  14
ENDBRANCH   1  12
BRANCH   7  27
HETATM   27  C   UNL     1      40.515 -16.293   1.003  1.00  0.00     0.274 C 
BRANCH  27  28
HETATM   28  O   UNL     1      41.011 -15.163   0.300  1.00  0.00    -0.293 OA
BRANCH  28  29
HETATM   29  N   UNL     1      41.681 -15.610  -0.844  1.00  0.00    -0.171 NA
HETATM   30  H   UNL     1      41.832 -16.621  -0.867  1.00  0.00     0.160 HD
BRANCH  29  31
HETATM   31  C   UNL     1      41.276 -15.120  -2.072  1.00  0.00     0.035 C 
HETATM   32  C   UNL     1      40.517 -15.776  -2.962  1.00  0.00     0.039 C 
BRANCH  31  33
HETATM   33  C   UNL     1      41.700 -13.741  -2.393  1.00  0.00    -0.014 A 
HETATM   34  C   UNL     1      41.357 -13.177  -3.629  1.00  0.00     0.013 A 
HETATM   35  C   UNL     1      41.754 -11.877  -3.947  1.00  0.00     0.001 A 
HETATM   36  C   UNL     1      42.492 -11.129  -3.029  1.00  0.00     0.000 A 
HETATM   37  C   UNL     1      42.830 -11.678  -1.793  1.00  0.00     0.001 A 
HETATM   38  C   UNL     1      42.436 -12.980  -1.475  1.00  0.00     0.013 A 
ENDBRANCH  31  33
ENDBRANCH  29  31
ENDBRANCH  28  29
ENDBRANCH  27  28
ENDBRANCH   7  27
TORSDOF 8
ENDMDL
MODEL 10
REMARK VINA RESULT:      -8.8      2.783      8.022
REMARK  8 active torsions:
REMARK  status: ('A' for Active; 'I' for Inactive)
REMARK    1  A    between atoms: C_5  and  C_6 
REMARK    2  A    between atoms: C_11  and  C_12 
REMARK    3  A    between atoms: N_13  and  N_14 
REMARK    4  A    between atoms: C_20  and  C_21 
REMARK    5  A    between atoms: C_21  and  O_22 
REMARK    6  A    between atoms: O_22  and  N_23 
REMARK    7  A    between atoms: N_23  and  C_24 
REMARK    8  A    between atoms: C_24  and  C_25 
ROOT
HETATM    1  N   UNL     1      42.777 -16.368   4.777  1.00  0.00    -0.180 N 
HETATM    2  C   UNL     1      42.766 -17.129   3.599  1.00  0.00     0.282 C 
HETATM    3  O   UNL     1      42.224 -16.810   2.541  1.00  0.00    -0.265 OA
HETATM    4  C   UNL     1      43.518 -18.395   3.649  1.00  0.00     0.063 A 
HETATM    5  C   UNL     1      44.256 -18.674   4.797  1.00  0.00     0.074 A 
HETATM    6  N   UNL     1      44.300 -17.806   5.893  1.00  0.00    -0.230 NA
HETATM    7  C   UNL     1      43.585 -16.720   5.850  1.00  0.00     0.157 C 
HETATM    8  C   UNL     1      43.512 -19.281   2.562  1.00  0.00     0.019 A 
HETATM    9  C   UNL     1      44.255 -20.459   2.627  1.00  0.00     0.001 A 
HETATM   10  C   UNL     1      44.998 -20.747   3.770  1.00  0.00     0.002 A 
HETATM   11  C   UNL     1      44.997 -19.857   4.849  1.00  0.00     0.032 A 
ENDROOT
BRANCH   1  12
HETATM   12  N   UNL     1      42.157 -15.127   4.833  1.00  0.00    -0.174 NA
HETATM   13  C   UNL     1      40.885 -15.101   5.068  1.00  0.00     0.154 C 
BRANCH  13  14
HETATM   14  C   UNL     1      40.202 -13.829   5.073  1.00  0.00     0.031 A 
HETATM   15  C   UNL     1      39.701 -13.071   3.968  1.00  0.00     0.100 A 
HETATM   16  N   UNL     1      39.060 -11.971   4.402  1.00  0.00    -0.174 NA
HETATM   17  N   UNL     1      39.200 -11.998   5.734  1.00  0.00    -0.288 N 
HETATM   18  H   UNL     1      38.799 -11.239   6.273  1.00  0.00     0.188 HD
HETATM   19  C   UNL     1      39.874 -13.085   6.189  1.00  0.00     0.124 A 
BRANCH  15  20
HETATM   20  C   UNL     1      39.819 -13.343   2.532  1.00  0.00    -0.005 A 
HETATM   21  C   UNL     1      38.705 -13.706   1.765  1.00  0.00     0.014 A 
HETATM   22  C   UNL     1      38.834 -13.970   0.397  1.00  0.00     0.007 A 
HETATM   23  C   UNL     1      40.084 -13.896  -0.226  1.00  0.00    -0.062 A 
HETATM   24  C   UNL     1      40.233 -14.177  -1.691  1.00  0.00     0.048 C 
HETATM   25  C   UNL     1      41.202 -13.543   0.538  1.00  0.00     0.007 A 
HETATM   26  C   UNL     1      41.070 -13.274   1.904  1.00  0.00     0.014 A 
ENDBRANCH  15  20
ENDBRANCH  13  14
ENDBRANCH   1  12
BRANCH   7  27
HETATM   27  C   UNL     1      43.649 -15.764   7.050  1.00  0.00     0.274 C 
BRANCH  27  28
HETATM   28  O   UNL     1      44.638 -14.744   7.043  1.00  0.00    -0.293 OA
BRANCH  28  29
HETATM   29  N   UNL     1      44.107 -13.606   7.661  1.00  0.00    -0.171 NA
HETATM   30  H   UNL     1      43.286 -13.796   8.240  1.00  0.00     0.160 HD
BRANCH  29  31
HETATM   31  C   UNL     1      44.982 -12.728   8.275  1.00  0.00     0.035 C 
HETATM   32  C   UNL     1      46.298 -12.642   8.033  1.00  0.00     0.039 C 
BRANCH  31  33
HETATM   33  C   UNL     1      44.385 -11.793   9.250  1.00  0.00    -0.014 A 
HETATM   34  C   UNL     1      43.190 -11.131   8.939  1.00  0.00     0.013 A 
HETATM   35  C   UNL     1      42.616 -10.241   9.849  1.00  0.00     0.001 A 
HETATM   36  C   UNL     1      43.230 -10.012  11.081  1.00  0.00     0.000 A 
HETATM   37  C   UNL     1      44.414 -10.672  11.403  1.00  0.00     0.001 A 
HETATM   38  C   UNL     1      44.991 -11.560  10.492  1.00  0.00     0.013 A 
ENDBRANCH  31  33
ENDBRANCH  29  31
ENDBRANCH  28  29
ENDBRANCH  27  28
ENDBRANCH   7  27
TORSDOF 8
ENDMDL
