MODEL 1
REMARK VINA RESULT:      -8.0      0.000      0.000
REMARK  6 active torsions:
REMARK  status: ('A' for Active; 'I' for Inactive)
REMARK    1  A    between atoms: C_5  and  N_6 
REMARK    2  A    between atoms: N_6  and  C_7 
REMARK    3  A    between atoms: C_7  and  C_8 
REMARK    4  A    between atoms: N_10  and  C_12 
REMARK    5  A    between atoms: C_12  and  C_13 
REMARK    6  A    between atoms: C_14  and  O_15 
ROOT
HETATM    1  C   UNL     1      44.376 -16.796   6.497  1.00  0.00     0.031 C 
HETATM    2  C   UNL     1      43.491 -16.300   5.352  1.00  0.00     0.241 C 
HETATM    3  N   UNL     1      42.090 -16.719   5.718  1.00  0.00    -0.067 N 
HETATM    4  H   UNL     1      41.478 -15.882   5.655  1.00  0.00     0.280 HD
HETATM    5  C   UNL     1      42.081 -17.166   7.157  1.00  0.00     0.235 C 
HETATM    6  C   UNL     1      43.428 -16.701   7.693  1.00  0.00     0.035 C 
ENDROOT
BRANCH   1   7
HETATM    7  C   UNL     1      44.917 -18.222   6.290  1.00  0.00     0.127 C 
BRANCH   7   8
HETATM    8  N   UNL     1      44.691 -18.663   4.918  1.00  0.00    -0.376 N 
HETATM    9  H   UNL     1      43.915 -18.160   4.474  1.00  0.00     0.161 HD
BRANCH   8  10
HETATM   10  C   UNL     1      44.658 -19.991   4.491  1.00  0.00     0.101 A 
HETATM   11  N   UNL     1      44.433 -20.359   3.219  1.00  0.00    -0.347 N 
HETATM   12  C   UNL     1      44.389 -21.644   2.809  1.00  0.00     0.007 A 
HETATM   13  H   UNL     1      44.301 -19.641   2.519  1.00  0.00     0.167 HD
HETATM   14  C   UNL     1      44.178 -21.938   1.357  1.00  0.00     0.068 C 
HETATM   15  C   UNL     1      44.556 -22.667   3.741  1.00  0.00     0.025 A 
HETATM   16  C   UNL     1      44.756 -22.345   5.073  1.00  0.00     0.006 A 
HETATM   17  C   UNL     1      44.803 -21.007   5.449  1.00  0.00     0.048 A 
ENDBRANCH   8  10
ENDBRANCH   7   8
ENDBRANCH   1   7
BRANCH   3  18
HETATM   18  C   UNL     1      41.438 -17.670   4.745  1.00  0.00     0.276 C 
BRANCH  18  19
HETATM   19  C   UNL     1      41.419 -17.166   3.330  1.00  0.00     0.002 A 
HETATM   20  C   UNL     1      40.727 -15.996   2.990  1.00  0.00     0.091 A 
HETATM   21  C   UNL     1      40.752 -15.499   1.684  1.00  0.00     0.044 A 
HETATM   22 BR   UNL     1      39.814 -13.918   1.237  1.00  0.00    -0.048 Br
HETATM   23  C   UNL     1      41.469 -16.172   0.699  1.00  0.00     0.022 A 
HETATM   24  C   UNL     1      42.163 -17.337   1.021  1.00  0.00     0.002 A 
HETATM   25  C   UNL     1      42.144 -17.831   2.329  1.00  0.00     0.012 A 
BRANCH  20  26
HETATM   26  O   UNL     1      40.012 -15.370   3.984  1.00  0.00    -0.359 OA
HETATM   27  H   UNL     1      40.459 -14.507   4.137  1.00  0.00     0.218 HD
ENDBRANCH  20  26
ENDBRANCH  18  19
ENDBRANCH   3  18
TORSDOF 6
ENDMDL
MODEL 2
REMARK VINA RESULT:      -7.6      3.278      6.181
REMARK  6 active torsions:
REMARK  status: ('A' for Active; 'I' for Inactive)
REMARK    1  A    between atoms: C_5  and  N_6 
REMARK    2  A    between atoms: N_6  and  C_7 
REMARK    3  A    between atoms: C_7  and  C_8 
REMARK    4  A    between atoms: N_10  and  C_12 
REMARK    5  A    between atoms: C_12  and  C_13 
REMARK    6  A    between atoms: C_14  and  O_15 
ROOT
HETATM    1  C   UNL     1      41.053 -16.219   5.655  1.00  0.00     0.031 C 
HETATM    2  C   UNL     1      41.504 -17.575   5.109  1.00  0.00     0.241 C 
HETATM    3  N   UNL     1      43.011 -17.535   5.133  1.00  0.00    -0.067 N 
HETATM    4  H   UNL     1      43.346 -18.383   5.630  1.00  0.00     0.280 HD
HETATM    5  C   UNL     1      43.449 -16.344   5.943  1.00  0.00     0.235 C 
HETATM    6  C   UNL     1      42.175 -15.886   6.639  1.00  0.00     0.035 C 
ENDROOT
BRANCH   1   7
HETATM    7  C   UNL     1      40.884 -15.139   4.571  1.00  0.00     0.127 C 
BRANCH   7   8
HETATM    8  N   UNL     1      40.095 -15.649   3.456  1.00  0.00    -0.376 N 
HETATM    9  H   UNL     1      39.714 -16.583   3.647  1.00  0.00     0.161 HD
BRANCH   8  10
HETATM   10  C   UNL     1      40.461 -15.589   2.111  1.00  0.00     0.101 A 
HETATM   11  N   UNL     1      40.253 -14.516   1.329  1.00  0.00    -0.347 N 
HETATM   12  C   UNL     1      40.598 -14.464   0.025  1.00  0.00     0.007 A 
HETATM   13  H   UNL     1      39.829 -13.692   1.734  1.00  0.00     0.167 HD
HETATM   14  C   UNL     1      40.363 -13.199  -0.739  1.00  0.00     0.068 C 
HETATM   15  C   UNL     1      41.176 -15.580  -0.577  1.00  0.00     0.025 A 
HETATM   16  C   UNL     1      41.380 -16.727   0.175  1.00  0.00     0.006 A 
HETATM   17  C   UNL     1      41.019 -16.733   1.517  1.00  0.00     0.048 A 
ENDBRANCH   8  10
ENDBRANCH   7   8
ENDBRANCH   1   7
BRANCH   3  18
HETATM   18  C   UNL     1      43.669 -17.672   3.782  1.00  0.00     0.276 C 
BRANCH  18  19
HETATM   19  C   UNL     1      43.883 -19.097   3.357  1.00  0.00     0.002 A 
HETATM   20  C   UNL     1      44.452 -20.033   4.232  1.00  0.00     0.091 A 
HETATM   21  C   UNL     1      44.604 -21.371   3.855  1.00  0.00     0.044 A 
HETATM   22 BR   UNL     1      45.373 -22.625   5.044  1.00  0.00    -0.048 Br
HETATM   23  C   UNL     1      44.190 -21.787   2.593  1.00  0.00     0.022 A 
HETATM   24  C   UNL     1      43.622 -20.869   1.712  1.00  0.00     0.002 A 
HETATM   25  C   UNL     1      43.464 -19.532   2.091  1.00  0.00     0.012 A 
BRANCH  20  26
HETATM   26  O   UNL     1      44.869 -19.581   5.462  1.00  0.00    -0.359 OA
HETATM   27  H   UNL     1      44.383 -20.118   6.127  1.00  0.00     0.218 HD
ENDBRANCH  20  26
ENDBRANCH  18  19
ENDBRANCH   3  18
TORSDOF 6
ENDMDL
MODEL 3
REMARK VINA RESULT:      -7.5      1.275      2.005
REMARK  6 active torsions:
REMARK  status: ('A' for Active; 'I' for Inactive)
REMARK    1  A    between atoms: C_5  and  N_6 
REMARK    2  A    between atoms: N_6  and  C_7 
REMARK    3  A    between atoms: C_7  and  C_8 
REMARK    4  A    between atoms: N_10  and  C_12 
REMARK    5  A    between atoms: C_12  and  C_13 
REMARK    6  A    between atoms: C_14  and  O_15 
ROOT
HETATM    1  C   UNL     1      43.361 -16.209   5.646  1.00  0.00     0.031 C 
HETATM    2  C   UNL     1      42.762 -15.671   4.345  1.00  0.00     0.241 C 
HETATM    3  N   UNL     1      41.335 -16.154   4.330  1.00  0.00    -0.067 N 
HETATM    4  H   UNL     1      40.720 -15.334   4.162  1.00  0.00     0.280 HD
HETATM    5  C   UNL     1      40.993 -16.690   5.696  1.00  0.00     0.235 C 
HETATM    6  C   UNL     1      42.144 -16.219   6.573  1.00  0.00     0.035 C 
ENDROOT
BRANCH   1   7
HETATM    7  C   UNL     1      44.000 -17.603   5.504  1.00  0.00     0.127 C 
BRANCH   7   8
HETATM    8  N   UNL     1      44.041 -18.009   4.104  1.00  0.00    -0.376 N 
HETATM    9  H   UNL     1      43.355 -17.501   3.534  1.00  0.00     0.161 HD
BRANCH   8  10
HETATM   10  C   UNL     1      44.108 -19.325   3.645  1.00  0.00     0.101 A 
HETATM   11  N   UNL     1      44.577 -20.347   4.380  1.00  0.00    -0.347 N 
HETATM   12  C   UNL     1      44.652 -21.618   3.930  1.00  0.00     0.007 A 
HETATM   13  H   UNL     1      44.880 -20.168   5.328  1.00  0.00     0.167 HD
HETATM   14  C   UNL     1      45.148 -22.687   4.852  1.00  0.00     0.068 C 
HETATM   15  C   UNL     1      44.255 -21.908   2.626  1.00  0.00     0.025 A 
HETATM   16  C   UNL     1      43.796 -20.885   1.813  1.00  0.00     0.006 A 
HETATM   17  C   UNL     1      43.727 -19.592   2.320  1.00  0.00     0.048 A 
ENDBRANCH   8  10
ENDBRANCH   7   8
ENDBRANCH   1   7
BRANCH   3  18
HETATM   18  C   UNL     1      40.985 -17.062   3.177  1.00  0.00     0.276 C 
BRANCH  18  19
HETATM   19  C   UNL     1      40.822 -16.341   1.869  1.00  0.00     0.002 A 
HETATM   20  C   UNL     1      39.950 -15.249   1.751  1.00  0.00     0.091 A 
HETATM   21  C   UNL     1      39.837 -14.546   0.549  1.00  0.00     0.044 A 
HETATM   22 BR   UNL     1      38.658 -13.074   0.401  1.00  0.00    -0.048 Br
HETATM   23  C   UNL     1      40.595 -14.929  -0.554  1.00  0.00     0.022 A 
HETATM   24  C   UNL     1      41.467 -16.012  -0.452  1.00  0.00     0.002 A 
HETATM   25  C   UNL     1      41.586 -16.713   0.752  1.00  0.00     0.012 A 
BRANCH  20  26
HETATM   26  O   UNL     1      39.202 -14.912   2.855  1.00  0.00    -0.359 OA
HETATM   27  H   UNL     1      38.325 -15.339   2.729  1.00  0.00     0.218 HD
ENDBRANCH  20  26
ENDBRANCH  18  19
ENDBRANCH   3  18
TORSDOF 6
ENDMDL
MODEL 4
REMARK VINA RESULT:      -7.4      4.070      7.211
REMARK  6 active torsions:
REMARK  status: ('A' for Active; 'I' for Inactive)
REMARK    1  A    between atoms: C_5  and  N_6 
REMARK    2  A    between atoms: N_6  and  C_7 
REMARK    3  A    between atoms: C_7  and  C_8 
REMARK    4  A    between atoms: N_10  and  C_12 
REMARK    5  A    between atoms: C_12  and  C_13 
REMARK    6  A    between atoms: C_14  and  O_15 
ROOT
HETATM    1  C   UNL     1      41.847 -15.002   4.844  1.00  0.00     0.031 C 
HETATM    2  C   UNL     1      42.021 -15.791   3.544  1.00  0.00     0.241 C 
HETATM    3  N   UNL     1      42.477 -17.164   3.966  1.00  0.00    -0.067 N 
HETATM    4  H   UNL     1      41.855 -17.862   3.514  1.00  0.00     0.280 HD
HETATM    5  C   UNL     1      42.287 -17.299   5.454  1.00  0.00     0.235 C 
HETATM    6  C   UNL     1      41.427 -16.099   5.824  1.00  0.00     0.035 C 
ENDROOT
BRANCH   1   7
HETATM    7  C   UNL     1      43.122 -14.267   5.298  1.00  0.00     0.127 C 
BRANCH   7   8
HETATM    8  N   UNL     1      43.115 -14.073   6.743  1.00  0.00    -0.376 N 
HETATM    9  H   UNL     1      42.177 -13.855   7.099  1.00  0.00     0.161 HD
BRANCH   8  10
HETATM   10  C   UNL     1      44.046 -13.323   7.463  1.00  0.00     0.101 A 
HETATM   11  N   UNL     1      43.711 -12.424   8.403  1.00  0.00    -0.347 N 
HETATM   12  C   UNL     1      44.611 -11.690   9.090  1.00  0.00     0.007 A 
HETATM   13  H   UNL     1      42.733 -12.291   8.626  1.00  0.00     0.167 HD
HETATM   14  C   UNL     1      44.128 -10.751  10.150  1.00  0.00     0.068 C 
HETATM   15  C   UNL     1      45.969 -11.832   8.809  1.00  0.00     0.025 A 
HETATM   16  C   UNL     1      46.368 -12.721   7.823  1.00  0.00     0.006 A 
HETATM   17  C   UNL     1      45.406 -13.463   7.147  1.00  0.00     0.048 A 
ENDBRANCH   8  10
ENDBRANCH   7   8
ENDBRANCH   1   7
BRANCH   3  18
HETATM   18  C   UNL     1      43.838 -17.565   3.452  1.00  0.00     0.276 C 
BRANCH  18  19
HETATM   19  C   UNL     1      43.961 -19.032   3.152  1.00  0.00     0.002 A 
HETATM   20  C   UNL     1      44.495 -19.919   4.097  1.00  0.00     0.091 A 
HETATM   21  C   UNL     1      44.562 -21.291   3.838  1.00  0.00     0.044 A 
HETATM   22 BR   UNL     1      45.283 -22.480   5.121  1.00  0.00    -0.048 Br
HETATM   23  C   UNL     1      44.097 -21.792   2.625  1.00  0.00     0.022 A 
HETATM   24  C   UNL     1      43.563 -20.923   1.675  1.00  0.00     0.002 A 
HETATM   25  C   UNL     1      43.490 -19.551   1.936  1.00  0.00     0.012 A 
BRANCH  20  26
HETATM   26  O   UNL     1      44.963 -19.386   5.275  1.00  0.00    -0.359 OA
HETATM   27  H   UNL     1      45.836 -19.810   5.436  1.00  0.00     0.218 HD
ENDBRANCH  20  26
ENDBRANCH  18  19
ENDBRANCH   3  18
TORSDOF 6
ENDMDL
MODEL 5
REMARK VINA RESULT:      -7.4      2.111      3.046
REMARK  6 active torsions:
REMARK  status: ('A' for Active; 'I' for Inactive)
REMARK    1  A    between atoms: C_5  and  N_6 
REMARK    2  A    between atoms: N_6  and  C_7 
REMARK    3  A    between atoms: C_7  and  C_8 
REMARK    4  A    between atoms: N_10  and  C_12 
REMARK    5  A    between atoms: C_12  and  C_13 
REMARK    6  A    between atoms: C_14  and  O_15 
ROOT
HETATM    1  C   UNL     1      43.309 -15.906   5.059  1.00  0.00     0.031 C 
HETATM    2  C   UNL     1      43.003 -15.341   3.670  1.00  0.00     0.241 C 
HETATM    3  N   UNL     1      41.500 -15.269   3.589  1.00  0.00    -0.067 N 
HETATM    4  H   UNL     1      41.241 -14.307   3.296  1.00  0.00     0.280 HD
HETATM    5  C   UNL     1      40.932 -15.480   4.967  1.00  0.00     0.235 C 
HETATM    6  C   UNL     1      42.141 -15.364   5.884  1.00  0.00     0.035 C 
ENDROOT
BRANCH   1   7
HETATM    7  C   UNL     1      43.389 -17.443   5.099  1.00  0.00     0.127 C 
BRANCH   7   8
HETATM    8  N   UNL     1      43.820 -17.969   3.809  1.00  0.00    -0.376 N 
HETATM    9  H   UNL     1      43.328 -17.524   3.026  1.00  0.00     0.161 HD
BRANCH   8  10
HETATM   10  C   UNL     1      44.002 -19.319   3.505  1.00  0.00     0.101 A 
HETATM   11  N   UNL     1      44.502 -20.216   4.371  1.00  0.00    -0.347 N 
HETATM   12  C   UNL     1      44.688 -21.519   4.072  1.00  0.00     0.007 A 
HETATM   13  H   UNL     1      44.742 -19.912   5.304  1.00  0.00     0.167 HD
HETATM   14  C   UNL     1      45.208 -22.441   5.129  1.00  0.00     0.068 C 
HETATM   15  C   UNL     1      44.380 -21.980   2.793  1.00  0.00     0.025 A 
HETATM   16  C   UNL     1      43.894 -21.089   1.849  1.00  0.00     0.006 A 
HETATM   17  C   UNL     1      43.709 -19.758   2.204  1.00  0.00     0.048 A 
ENDBRANCH   8  10
ENDBRANCH   7   8
ENDBRANCH   1   7
BRANCH   3  18
HETATM   18  C   UNL     1      40.883 -16.114   2.502  1.00  0.00     0.276 C 
BRANCH  18  19
HETATM   19  C   UNL     1      40.214 -15.312   1.421  1.00  0.00     0.002 A 
HETATM   20  C   UNL     1      40.835 -15.116   0.180  1.00  0.00     0.091 A 
HETATM   21  C   UNL     1      40.192 -14.414  -0.843  1.00  0.00     0.044 A 
HETATM   22 BR   UNL     1      41.039 -14.156  -2.515  1.00  0.00    -0.048 Br
HETATM   23  C   UNL     1      38.917 -13.896  -0.634  1.00  0.00     0.022 A 
HETATM   24  C   UNL     1      38.286 -14.083   0.594  1.00  0.00     0.002 A 
HETATM   25  C   UNL     1      38.926 -14.791   1.617  1.00  0.00     0.012 A 
BRANCH  20  26
HETATM   26  O   UNL     1      42.103 -15.623   0.017  1.00  0.00    -0.359 OA
HETATM   27  H   UNL     1      42.115 -16.482   0.496  1.00  0.00     0.218 HD
ENDBRANCH  20  26
ENDBRANCH  18  19
ENDBRANCH   3  18
TORSDOF 6
ENDMDL
MODEL 6
REMARK VINA RESULT:      -7.3      4.136      7.527
REMARK  6 active torsions:
REMARK  status: ('A' for Active; 'I' for Inactive)
REMARK    1  A    between atoms: C_5  and  N_6 
REMARK    2  A    between atoms: N_6  and  C_7 
REMARK    3  A    between atoms: C_7  and  C_8 
REMARK    4  A    between atoms: N_10  and  C_12 
REMARK    5  A    between atoms: C_12  and  C_13 
REMARK    6  A    between atoms: C_14  and  O_15 
ROOT
HETATM    1  C   UNL     1      40.063 -15.346   1.769  1.00  0.00     0.031 C 
HETATM    2  C   UNL     1      40.785 -16.684   1.934  1.00  0.00     0.241 C 
HETATM    3  N   UNL     1      41.600 -16.547   3.194  1.00  0.00    -0.067 N 
HETATM    4  H   UNL     1      41.383 -17.358   3.807  1.00  0.00     0.280 HD
HETATM    5  C   UNL     1      41.153 -15.308   3.925  1.00  0.00     0.235 C 
HETATM    6  C   UNL     1      39.862 -14.914   3.222  1.00  0.00     0.035 C 
ENDROOT
BRANCH   1   7
HETATM    7  C   UNL     1      40.858 -14.309   0.954  1.00  0.00     0.127 C 
BRANCH   7   8
HETATM    8  N   UNL     1      40.046 -13.780  -0.135  1.00  0.00    -0.376 N 
HETATM    9  H   UNL     1      39.151 -13.405   0.197  1.00  0.00     0.161 HD
BRANCH   8  10
HETATM   10  C   UNL     1      39.834 -14.406  -1.364  1.00  0.00     0.101 A 
HETATM   11  N   UNL     1      38.659 -14.388  -2.016  1.00  0.00    -0.347 N 
HETATM   12  C   UNL     1      38.451 -15.004  -3.198  1.00  0.00     0.007 A 
HETATM   13  H   UNL     1      37.886 -13.875  -1.614  1.00  0.00     0.167 HD
HETATM   14  C   UNL     1      37.115 -14.878  -3.859  1.00  0.00     0.068 C 
HETATM   15  C   UNL     1      39.486 -15.731  -3.784  1.00  0.00     0.025 A 
HETATM   16  C   UNL     1      40.709 -15.813  -3.136  1.00  0.00     0.006 A 
HETATM   17  C   UNL     1      40.881 -15.154  -1.924  1.00  0.00     0.048 A 
ENDBRANCH   8  10
ENDBRANCH   7   8
ENDBRANCH   1   7
BRANCH   3  18
HETATM   18  C   UNL     1      43.091 -16.679   3.002  1.00  0.00     0.276 C 
BRANCH  18  19
HETATM   19  C   UNL     1      43.653 -17.973   3.516  1.00  0.00     0.002 A 
HETATM   20  C   UNL     1      43.715 -19.109   2.696  1.00  0.00     0.091 A 
HETATM   21  C   UNL     1      44.285 -20.299   3.157  1.00  0.00     0.044 A 
HETATM   22 BR   UNL     1      44.364 -21.825   2.042  1.00  0.00    -0.048 Br
HETATM   23  C   UNL     1      44.799 -20.368   4.449  1.00  0.00     0.022 A 
HETATM   24  C   UNL     1      44.746 -19.247   5.276  1.00  0.00     0.002 A 
HETATM   25  C   UNL     1      44.181 -18.054   4.814  1.00  0.00     0.012 A 
BRANCH  20  26
HETATM   26  O   UNL     1      43.178 -19.010   1.434  1.00  0.00    -0.359 OA
HETATM   27  H   UNL     1      42.876 -19.916   1.196  1.00  0.00     0.218 HD
ENDBRANCH  20  26
ENDBRANCH  18  19
ENDBRANCH   3  18
TORSDOF 6
ENDMDL
MODEL 7
REMARK VINA RESULT:      -7.3      3.893      7.408
REMARK  6 active torsions:
REMARK  status: ('A' for Active; 'I' for Inactive)
REMARK    1  A    between atoms: C_5  and  N_6 
REMARK    2  A    between atoms: N_6  and  C_7 
REMARK    3  A    between atoms: C_7  and  C_8 
REMARK    4  A    between atoms: N_10  and  C_12 
REMARK    5  A    between atoms: C_12  and  C_13 
REMARK    6  A    between atoms: C_14  and  O_15 
ROOT
HETATM    1  C   UNL     1      42.437 -15.041   4.851  1.00  0.00     0.031 C 
HETATM    2  C   UNL     1      42.862 -16.236   3.995  1.00  0.00     0.241 C 
HETATM    3  N   UNL     1      42.964 -17.397   4.950  1.00  0.00    -0.067 N 
HETATM    4  H   UNL     1      42.403 -18.181   4.563  1.00  0.00     0.280 HD
HETATM    5  C   UNL     1      42.329 -17.003   6.258  1.00  0.00     0.235 C 
HETATM    6  C   UNL     1      41.589 -15.714   5.932  1.00  0.00     0.035 C 
ENDROOT
BRANCH   1   7
HETATM    7  C   UNL     1      43.618 -14.250   5.441  1.00  0.00     0.127 C 
BRANCH   7   8
HETATM    8  N   UNL     1      43.373 -13.929   6.842  1.00  0.00    -0.376 N 
HETATM    9  H   UNL     1      42.394 -13.674   7.014  1.00  0.00     0.161 HD
BRANCH   8  10
HETATM   10  C   UNL     1      44.185 -13.126   7.643  1.00  0.00     0.101 A 
HETATM   11  N   UNL     1      43.710 -12.254   8.548  1.00  0.00    -0.347 N 
HETATM   12  C   UNL     1      44.498 -11.469   9.314  1.00  0.00     0.007 A 
HETATM   13  H   UNL     1      42.711 -12.185   8.682  1.00  0.00     0.167 HD
HETATM   14  C   UNL     1      43.862 -10.568  10.325  1.00  0.00     0.068 C 
HETATM   15  C   UNL     1      45.881 -11.523   9.156  1.00  0.00     0.025 A 
HETATM   16  C   UNL     1      46.423 -12.379   8.210  1.00  0.00     0.006 A 
HETATM   17  C   UNL     1      45.575 -13.177   7.451  1.00  0.00     0.048 A 
ENDBRANCH   8  10
ENDBRANCH   7   8
ENDBRANCH   1   7
BRANCH   3  18
HETATM   18  C   UNL     1      44.339 -18.009   5.061  1.00  0.00     0.276 C 
BRANCH  18  19
HETATM   19  C   UNL     1      44.365 -19.487   4.792  1.00  0.00     0.002 A 
HETATM   20  C   UNL     1      44.324 -19.982   3.482  1.00  0.00     0.091 A 
HETATM   21  C   UNL     1      44.401 -21.355   3.229  1.00  0.00     0.044 A 
HETATM   22 BR   UNL     1      44.346 -22.013   1.456  1.00  0.00    -0.048 Br
HETATM   23  C   UNL     1      44.516 -22.250   4.289  1.00  0.00     0.022 A 
HETATM   24  C   UNL     1      44.558 -21.773   5.598  1.00  0.00     0.002 A 
HETATM   25  C   UNL     1      44.488 -20.399   5.851  1.00  0.00     0.012 A 
BRANCH  20  26
HETATM   26  O   UNL     1      44.189 -19.070   2.462  1.00  0.00    -0.359 OA
HETATM   27  H   UNL     1      43.371 -18.561   2.660  1.00  0.00     0.218 HD
ENDBRANCH  20  26
ENDBRANCH  18  19
ENDBRANCH   3  18
TORSDOF 6
ENDMDL
MODEL 8
REMARK VINA RESULT:      -7.2      2.782      4.150
REMARK  6 active torsions:
REMARK  status: ('A' for Active; 'I' for Inactive)
REMARK    1  A    between atoms: C_5  and  N_6 
REMARK    2  A    between atoms: N_6  and  C_7 
REMARK    3  A    between atoms: C_7  and  C_8 
REMARK    4  A    between atoms: N_10  and  C_12 
REMARK    5  A    between atoms: C_12  and  C_13 
REMARK    6  A    between atoms: C_14  and  O_15 
ROOT
HETATM    1  C   UNL     1      42.208 -16.097   3.308  1.00  0.00     0.031 C 
HETATM    2  C   UNL     1      41.874 -14.871   2.456  1.00  0.00     0.241 C 
HETATM    3  N   UNL     1      41.111 -15.403   1.270  1.00  0.00    -0.067 N 
HETATM    4  H   UNL     1      40.229 -14.862   1.187  1.00  0.00     0.280 HD
HETATM    5  C   UNL     1      40.729 -16.834   1.545  1.00  0.00     0.235 C 
HETATM    6  C   UNL     1      41.013 -17.010   3.030  1.00  0.00     0.035 C 
ENDROOT
BRANCH   1   7
HETATM    7  C   UNL     1      43.549 -16.759   2.942  1.00  0.00     0.127 C 
BRANCH   7   8
HETATM    8  N   UNL     1      43.863 -17.834   3.876  1.00  0.00    -0.376 N 
HETATM    9  H   UNL     1      44.614 -17.574   4.526  1.00  0.00     0.161 HD
BRANCH   8  10
HETATM   10  C   UNL     1      44.018 -19.179   3.539  1.00  0.00     0.101 A 
HETATM   11  N   UNL     1      44.505 -20.106   4.381  1.00  0.00    -0.347 N 
HETATM   12  C   UNL     1      44.665 -21.405   4.050  1.00  0.00     0.007 A 
HETATM   13  H   UNL     1      44.755 -19.829   5.321  1.00  0.00     0.167 HD
HETATM   14  C   UNL     1      45.172 -22.361   5.083  1.00  0.00     0.068 C 
HETATM   15  C   UNL     1      44.343 -21.829   2.762  1.00  0.00     0.025 A 
HETATM   16  C   UNL     1      43.869 -20.907   1.843  1.00  0.00     0.006 A 
HETATM   17  C   UNL     1      43.711 -19.581   2.230  1.00  0.00     0.048 A 
ENDBRANCH   8  10
ENDBRANCH   7   8
ENDBRANCH   1   7
BRANCH   3  18
HETATM   18  C   UNL     1      41.766 -15.158  -0.067  1.00  0.00     0.276 C 
BRANCH  18  19
HETATM   19  C   UNL     1      40.789 -14.975  -1.193  1.00  0.00     0.002 A 
HETATM   20  C   UNL     1      39.807 -13.977  -1.140  1.00  0.00     0.091 A 
HETATM   21  C   UNL     1      38.931 -13.772  -2.210  1.00  0.00     0.044 A 
HETATM   22 BR   UNL     1      37.609 -12.421  -2.129  1.00  0.00    -0.048 Br
HETATM   23  C   UNL     1      39.026 -14.570  -3.347  1.00  0.00     0.022 A 
HETATM   24  C   UNL     1      39.998 -15.567  -3.415  1.00  0.00     0.002 A 
HETATM   25  C   UNL     1      40.879 -15.768  -2.348  1.00  0.00     0.012 A 
BRANCH  20  26
HETATM   26  O   UNL     1      39.729 -13.222   0.007  1.00  0.00    -0.359 OA
HETATM   27  H   UNL     1      39.278 -13.788   0.674  1.00  0.00     0.218 HD
ENDBRANCH  20  26
ENDBRANCH  18  19
ENDBRANCH   3  18
TORSDOF 6
ENDMDL
MODEL 9
REMARK VINA RESULT:      -7.2      2.674      4.814
REMARK  6 active torsions:
REMARK  status: ('A' for Active; 'I' for Inactive)
REMARK    1  A    between atoms: C_5  and  N_6 
REMARK    2  A    between atoms: N_6  and  C_7 
REMARK    3  A    between atoms: C_7  and  C_8 
REMARK    4  A    between atoms: N_10  and  C_12 
REMARK    5  A    between atoms: C_12  and  C_13 
REMARK    6  A    between atoms: C_14  and  O_15 
ROOT
HETATM    1  C   UNL     1      40.539 -15.662   1.556  1.00  0.00     0.031 C 
HETATM    2  C   UNL     1      39.778 -14.706   2.477  1.00  0.00     0.241 C 
HETATM    3  N   UNL     1      40.810 -14.163   3.432  1.00  0.00    -0.067 N 
HETATM    4  H   UNL     1      40.744 -13.126   3.419  1.00  0.00     0.280 HD
HETATM    5  C   UNL     1      42.179 -14.525   2.919  1.00  0.00     0.235 C 
HETATM    6  C   UNL     1      41.922 -15.012   1.500  1.00  0.00     0.035 C 
ENDROOT
BRANCH   1   7
HETATM    7  C   UNL     1      40.593 -17.110   2.074  1.00  0.00     0.127 C 
BRANCH   7   8
HETATM    8  N   UNL     1      41.711 -17.829   1.474  1.00  0.00    -0.376 N 
HETATM    9  H   UNL     1      41.429 -18.355   0.640  1.00  0.00     0.161 HD
BRANCH   8  10
HETATM   10  C   UNL     1      42.656 -18.583   2.172  1.00  0.00     0.101 A 
HETATM   11  N   UNL     1      43.058 -19.808   1.794  1.00  0.00    -0.347 N 
HETATM   12  C   UNL     1      43.964 -20.541   2.476  1.00  0.00     0.007 A 
HETATM   13  H   UNL     1      42.678 -20.206   0.946  1.00  0.00     0.167 HD
HETATM   14  C   UNL     1      44.373 -21.875   1.937  1.00  0.00     0.068 C 
HETATM   15  C   UNL     1      44.506 -20.035   3.656  1.00  0.00     0.025 A 
HETATM   16  C   UNL     1      44.100 -18.790   4.110  1.00  0.00     0.006 A 
HETATM   17  C   UNL     1      43.172 -18.066   3.371  1.00  0.00     0.048 A 
ENDBRANCH   8  10
ENDBRANCH   7   8
ENDBRANCH   1   7
BRANCH   3  18
HETATM   18  C   UNL     1      40.560 -14.484   4.885  1.00  0.00     0.276 C 
BRANCH  18  19
HETATM   19  C   UNL     1      41.816 -14.728   5.673  1.00  0.00     0.002 A 
HETATM   20  C   UNL     1      42.067 -15.976   6.260  1.00  0.00     0.091 A 
HETATM   21  C   UNL     1      43.258 -16.220   6.949  1.00  0.00     0.044 A 
HETATM   22 BR   UNL     1      43.588 -17.908   7.738  1.00  0.00    -0.048 Br
HETATM   23  C   UNL     1      44.213 -15.214   7.062  1.00  0.00     0.022 A 
HETATM   24  C   UNL     1      43.978 -13.967   6.484  1.00  0.00     0.002 A 
HETATM   25  C   UNL     1      42.789 -13.725   5.788  1.00  0.00     0.012 A 
BRANCH  20  26
HETATM   26  O   UNL     1      41.092 -16.939   6.146  1.00  0.00    -0.359 OA
HETATM   27  H   UNL     1      40.950 -17.290   7.054  1.00  0.00     0.218 HD
ENDBRANCH  20  26
ENDBRANCH  18  19
ENDBRANCH   3  18
TORSDOF 6
ENDMDL
MODEL 10
REMARK VINA RESULT:      -7.1      3.191      6.274
REMARK  6 active torsions:
REMARK  status: ('A' for Active; 'I' for Inactive)
REMARK    1  A    between atoms: C_5  and  N_6 
REMARK    2  A    between atoms: N_6  and  C_7 
REMARK    3  A    between atoms: C_7  and  C_8 
REMARK    4  A    between atoms: N_10  and  C_12 
REMARK    5  A    between atoms: C_12  and  C_13 
REMARK    6  A    between atoms: C_14  and  O_15 
ROOT
HETATM    1  C   UNL     1      44.162 -16.730   7.183  1.00  0.00     0.031 C 
HETATM    2  C   UNL     1      42.893 -17.583   7.243  1.00  0.00     0.241 C 
HETATM    3  N   UNL     1      42.967 -18.497   6.048  1.00  0.00    -0.067 N 
HETATM    4  H   UNL     1      42.827 -19.471   6.380  1.00  0.00     0.280 HD
HETATM    5  C   UNL     1      44.356 -18.424   5.470  1.00  0.00     0.235 C 
HETATM    6  C   UNL     1      45.159 -17.694   6.537  1.00  0.00     0.035 C 
ENDROOT
BRANCH   1   7
HETATM    7  C   UNL     1      43.997 -15.430   6.375  1.00  0.00     0.127 C 
BRANCH   7   8
HETATM    8  N   UNL     1      43.630 -14.323   7.251  1.00  0.00    -0.376 N 
HETATM    9  H   UNL     1      42.806 -13.817   6.909  1.00  0.00     0.161 HD
BRANCH   8  10
HETATM   10  C   UNL     1      44.518 -13.399   7.802  1.00  0.00     0.101 A 
HETATM   11  N   UNL     1      44.197 -12.562   8.803  1.00  0.00    -0.347 N 
HETATM   12  C   UNL     1      45.053 -11.660   9.327  1.00  0.00     0.007 A 
HETATM   13  H   UNL     1      43.269 -12.613   9.203  1.00  0.00     0.167 HD
HETATM   14  C   UNL     1      44.603 -10.810  10.473  1.00  0.00     0.068 C 
HETATM   15  C   UNL     1      46.339 -11.548   8.800  1.00  0.00     0.025 A 
HETATM   16  C   UNL     1      46.712 -12.363   7.743  1.00  0.00     0.006 A 
HETATM   17  C   UNL     1      45.800 -13.285   7.241  1.00  0.00     0.048 A 
ENDBRANCH   8  10
ENDBRANCH   7   8
ENDBRANCH   1   7
BRANCH   3  18
HETATM   18  C   UNL     1      41.846 -18.331   5.052  1.00  0.00     0.276 C 
BRANCH  18  19
HETATM   19  C   UNL     1      42.295 -17.794   3.723  1.00  0.00     0.002 A 
HETATM   20  C   UNL     1      42.042 -16.464   3.360  1.00  0.00     0.091 A 
HETATM   21  C   UNL     1      42.504 -15.949   2.146  1.00  0.00     0.044 A 
HETATM   22 BR   UNL     1      42.159 -14.152   1.667  1.00  0.00    -0.048 Br
HETATM   23  C   UNL     1      43.223 -16.764   1.275  1.00  0.00     0.022 A 
HETATM   24  C   UNL     1      43.482 -18.089   1.621  1.00  0.00     0.002 A 
HETATM   25  C   UNL     1      43.026 -18.603   2.839  1.00  0.00     0.012 A 
BRANCH  20  26
HETATM   26  O   UNL     1      41.311 -15.695   4.235  1.00  0.00    -0.359 OA
HETATM   27  H   UNL     1      40.862 -16.326   4.841  1.00  0.00     0.218 HD
ENDBRANCH  20  26
ENDBRANCH  18  19
ENDBRANCH   3  18
TORSDOF 6
ENDMDL
