MODEL 1
REMARK VINA RESULT:      -9.5      0.000      0.000
REMARK  7 active torsions:
REMARK  status: ('A' for Active; 'I' for Inactive)
REMARK    1  A    between atoms: C_8  and  C_9 
REMARK    2  A    between atoms: N_10  and  C_11 
REMARK    3  A    between atoms: C_14  and  S_15 
REMARK    4  A    between atoms: S_15  and  C_16 
REMARK    5  A    between atoms: C_16  and  C_17 
REMARK       I    between atoms: C_17  and  N_18 
REMARK    6  A    between atoms: N_21  and  C_22 
REMARK    7  A    between atoms: C_25  and  O_26 
ROOT
HETATM    1  C   UNL     1      43.124 -15.388   3.393  1.00  0.00     0.167 A 
HETATM    2  N   UNL     1      42.044 -14.969   4.154  1.00  0.00    -0.302 N 
HETATM    3  C   UNL     1      42.296 -13.654   4.462  1.00  0.00     0.192 A 
HETATM    4  N   UNL     1      43.418 -13.273   3.897  1.00  0.00    -0.122 NA
HETATM    5  N   UNL     1      43.933 -14.353   3.230  1.00  0.00    -0.128 NA
ENDROOT
BRANCH   3   6
HETATM    6  S   UNL     1      41.411 -12.683   5.584  1.00  0.00    -0.081 SA
BRANCH   6   7
HETATM    7  C   UNL     1      39.961 -12.268   4.570  1.00  0.00     0.185 C 
BRANCH   7   8
HETATM    8  C   UNL     1      40.349 -11.587   3.259  1.00  0.00     0.229 C 
HETATM    9  N   UNL     1      40.085 -12.303   2.086  1.00  0.00    -0.348 N 
HETATM   10  C   UNL     1      40.280 -11.597   0.814  1.00  0.00     0.145 C 
HETATM   11  C   UNL     1      39.153 -13.441   2.022  1.00  0.00     0.145 C 
HETATM   12  C   UNL     1      40.533 -12.541  -0.373  1.00  0.00     0.143 C 
HETATM   13  N   UNL     1      39.490 -13.585  -0.436  1.00  0.00    -0.378 N 
HETATM   14  C   UNL     1      39.405 -14.369   0.816  1.00  0.00     0.143 C 
HETATM   15  O   UNL     1      40.887 -10.479   3.215  1.00  0.00    -0.273 OA
BRANCH  13  16
HETATM   16  C   UNL     1      39.388 -14.352  -1.606  1.00  0.00     0.030 A 
HETATM   17  C   UNL     1      40.432 -15.151  -2.104  1.00  0.00     0.032 A 
HETATM   18  C   UNL     1      40.297 -15.879  -3.294  1.00  0.00     0.039 A 
HETATM   19  C   UNL     1      39.109 -15.810  -4.009  1.00  0.00     0.065 A 
HETATM   20  C   UNL     1      38.061 -15.027  -3.554  1.00  0.00     0.039 A 
HETATM   21  C   UNL     1      38.206 -14.304  -2.366  1.00  0.00     0.032 A 
BRANCH  19  22
HETATM   22  O   UNL     1      38.937 -16.494  -5.174  1.00  0.00    -0.361 OA
HETATM   23  H   UNL     1      39.680 -17.109  -5.285  1.00  0.00     0.217 HD
ENDBRANCH  19  22
ENDBRANCH  13  16
ENDBRANCH   7   8
ENDBRANCH   6   7
ENDBRANCH   3   6
BRANCH   2  24
HETATM   24  C   UNL     1      40.945 -15.808   4.582  1.00  0.00     0.094 A 
HETATM   25  C   UNL     1      40.959 -17.273   4.941  1.00  0.00     0.028 A 
HETATM   26  C   UNL     1      40.826 -16.246   6.026  1.00  0.00     0.028 A 
ENDBRANCH   2  24
BRANCH   1  27
HETATM   27  C   UNL     1      43.417 -16.723   2.771  1.00  0.00     0.040 A 
HETATM   28  C   UNL     1      43.916 -17.877   3.464  1.00  0.00     0.006 A 
HETATM   29  C   UNL     1      44.287 -18.154   4.799  1.00  0.00     0.014 A 
HETATM   30  C   UNL     1      44.038 -18.906   2.528  1.00  0.00     0.043 A 
HETATM   31  C   UNL     1      44.756 -19.428   5.144  1.00  0.00     0.001 A 
HETATM   32  C   UNL     1      44.856 -20.429   4.183  1.00  0.00     0.002 A 
HETATM   33  C   UNL     1      44.498 -20.188   2.855  1.00  0.00     0.030 A 
HETATM   34  N   UNL     1      43.639 -18.398   1.316  1.00  0.00    -0.364 N 
HETATM   35  H   UNL     1      43.625 -18.924   0.453  1.00  0.00     0.165 HD
HETATM   36  C   UNL     1      43.282 -17.079   1.445  1.00  0.00     0.104 A 
ENDBRANCH   1  27
TORSDOF 7
ENDMDL
MODEL 2
REMARK VINA RESULT:      -9.2      1.600      2.516
REMARK  7 active torsions:
REMARK  status: ('A' for Active; 'I' for Inactive)
REMARK    1  A    between atoms: C_8  and  C_9 
REMARK    2  A    between atoms: N_10  and  C_11 
REMARK    3  A    between atoms: C_14  and  S_15 
REMARK    4  A    between atoms: S_15  and  C_16 
REMARK    5  A    between atoms: C_16  and  C_17 
REMARK       I    between atoms: C_17  and  N_18 
REMARK    6  A    between atoms: N_21  and  C_22 
REMARK    7  A    between atoms: C_25  and  O_26 
ROOT
HETATM    1  C   UNL     1      42.407 -16.742   5.069  1.00  0.00     0.167 A 
HETATM    2  N   UNL     1      42.670 -15.454   5.507  1.00  0.00    -0.302 N 
HETATM    3  C   UNL     1      41.508 -14.749   5.304  1.00  0.00     0.192 A 
HETATM    4  N   UNL     1      40.582 -15.547   4.825  1.00  0.00    -0.122 NA
HETATM    5  N   UNL     1      41.142 -16.789   4.680  1.00  0.00    -0.128 NA
ENDROOT
BRANCH   3   6
HETATM    6  S   UNL     1      41.317 -13.037   5.446  1.00  0.00    -0.081 SA
BRANCH   6   7
HETATM    7  C   UNL     1      42.111 -12.500   3.902  1.00  0.00     0.185 C 
BRANCH   7   8
HETATM    8  C   UNL     1      41.129 -11.806   2.960  1.00  0.00     0.229 C 
HETATM    9  N   UNL     1      40.754 -12.522   1.817  1.00  0.00    -0.348 N 
HETATM   10  C   UNL     1      39.678 -11.954   0.996  1.00  0.00     0.145 C 
HETATM   11  C   UNL     1      40.937 -13.975   1.674  1.00  0.00     0.145 C 
HETATM   12  C   UNL     1      39.709 -12.435  -0.464  1.00  0.00     0.143 C 
HETATM   13  N   UNL     1      39.774 -13.909  -0.522  1.00  0.00    -0.378 N 
HETATM   14  C   UNL     1      40.946 -14.447   0.206  1.00  0.00     0.143 C 
HETATM   15  O   UNL     1      40.696 -10.670   3.165  1.00  0.00    -0.273 OA
BRANCH  13  16
HETATM   16  C   UNL     1      39.519 -14.537  -1.750  1.00  0.00     0.030 A 
HETATM   17  C   UNL     1      38.341 -14.344  -2.491  1.00  0.00     0.032 A 
HETATM   18  C   UNL     1      38.114 -15.016  -3.700  1.00  0.00     0.039 A 
HETATM   19  C   UNL     1      39.069 -15.901  -4.182  1.00  0.00     0.065 A 
HETATM   20  C   UNL     1      40.239 -16.123  -3.475  1.00  0.00     0.039 A 
HETATM   21  C   UNL     1      40.455 -15.449  -2.269  1.00  0.00     0.032 A 
BRANCH  19  22
HETATM   22  O   UNL     1      38.888 -16.582  -5.348  1.00  0.00    -0.361 OA
HETATM   23  H   UNL     1      39.120 -15.997  -6.087  1.00  0.00     0.217 HD
ENDBRANCH  19  22
ENDBRANCH  13  16
ENDBRANCH   7   8
ENDBRANCH   6   7
ENDBRANCH   3   6
BRANCH   2  24
HETATM   24  C   UNL     1      43.949 -14.978   5.988  1.00  0.00     0.094 A 
HETATM   25  C   UNL     1      44.255 -13.741   6.794  1.00  0.00     0.028 A 
HETATM   26  C   UNL     1      44.310 -15.087   7.455  1.00  0.00     0.028 A 
ENDBRANCH   2  24
BRANCH   1  27
HETATM   27  C   UNL     1      43.286 -17.958   5.034  1.00  0.00     0.040 A 
HETATM   28  C   UNL     1      43.464 -18.829   3.906  1.00  0.00     0.006 A 
HETATM   29  C   UNL     1      42.941 -18.880   2.595  1.00  0.00     0.014 A 
HETATM   30  C   UNL     1      44.369 -19.824   4.286  1.00  0.00     0.043 A 
HETATM   31  C   UNL     1      43.335 -19.904   1.725  1.00  0.00     0.001 A 
HETATM   32  C   UNL     1      44.244 -20.874   2.138  1.00  0.00     0.002 A 
HETATM   33  C   UNL     1      44.780 -20.851   3.428  1.00  0.00     0.030 A 
HETATM   34  N   UNL     1      44.719 -19.574   5.590  1.00  0.00    -0.364 N 
HETATM   35  H   UNL     1      45.363 -20.139   6.127  1.00  0.00     0.165 HD
HETATM   36  C   UNL     1      44.059 -18.465   6.058  1.00  0.00     0.104 A 
ENDBRANCH   1  27
TORSDOF 7
ENDMDL
MODEL 3
REMARK VINA RESULT:      -9.1      4.881      8.868
REMARK  7 active torsions:
REMARK  status: ('A' for Active; 'I' for Inactive)
REMARK    1  A    between atoms: C_8  and  C_9 
REMARK    2  A    between atoms: N_10  and  C_11 
REMARK    3  A    between atoms: C_14  and  S_15 
REMARK    4  A    between atoms: S_15  and  C_16 
REMARK    5  A    between atoms: C_16  and  C_17 
REMARK       I    between atoms: C_17  and  N_18 
REMARK    6  A    between atoms: N_21  and  C_22 
REMARK    7  A    between atoms: C_25  and  O_26 
ROOT
HETATM    1  C   UNL     1      43.047 -15.986   3.831  1.00  0.00     0.167 A 
HETATM    2  N   UNL     1      41.777 -15.484   4.064  1.00  0.00    -0.302 N 
HETATM    3  C   UNL     1      41.740 -14.263   3.435  1.00  0.00     0.192 A 
HETATM    4  N   UNL     1      42.880 -14.045   2.820  1.00  0.00    -0.122 NA
HETATM    5  N   UNL     1      43.693 -15.119   3.066  1.00  0.00    -0.128 NA
ENDROOT
BRANCH   3   6
HETATM    6  S   UNL     1      40.490 -13.078   3.581  1.00  0.00    -0.081 SA
BRANCH   6   7
HETATM    7  C   UNL     1      41.147 -12.091   4.959  1.00  0.00     0.185 C 
BRANCH   7   8
HETATM    8  C   UNL     1      40.088 -11.810   6.023  1.00  0.00     0.229 C 
HETATM    9  N   UNL     1      40.556 -11.330   7.252  1.00  0.00    -0.348 N 
HETATM   10  C   UNL     1      39.549 -10.881   8.221  1.00  0.00     0.145 C 
HETATM   11  C   UNL     1      41.894 -10.745   7.439  1.00  0.00     0.145 C 
HETATM   12  C   UNL     1      40.045 -10.919   9.676  1.00  0.00     0.143 C 
HETATM   13  N   UNL     1      41.335 -10.211   9.801  1.00  0.00    -0.378 N 
HETATM   14  C   UNL     1      42.372 -10.772   8.905  1.00  0.00     0.143 C 
HETATM   15  O   UNL     1      38.886 -12.008   5.838  1.00  0.00    -0.273 OA
BRANCH  13  16
HETATM   16  C   UNL     1      41.795  -9.892  11.088  1.00  0.00     0.030 A 
HETATM   17  C   UNL     1      43.141  -9.994  11.479  1.00  0.00     0.032 A 
HETATM   18  C   UNL     1      43.552  -9.693  12.784  1.00  0.00     0.039 A 
HETATM   19  C   UNL     1      42.613  -9.290  13.722  1.00  0.00     0.065 A 
HETATM   20  C   UNL     1      41.275  -9.186  13.377  1.00  0.00     0.039 A 
HETATM   21  C   UNL     1      40.875  -9.490  12.072  1.00  0.00     0.032 A 
BRANCH  19  22
HETATM   22  O   UNL     1      42.965  -8.996  15.005  1.00  0.00    -0.361 OA
HETATM   23  H   UNL     1      43.808  -9.436  15.203  1.00  0.00     0.217 HD
ENDBRANCH  19  22
ENDBRANCH  13  16
ENDBRANCH   7   8
ENDBRANCH   6   7
ENDBRANCH   3   6
BRANCH   2  24
HETATM   24  C   UNL     1      40.764 -16.116   4.881  1.00  0.00     0.094 A 
HETATM   25  C   UNL     1      40.939 -16.957   6.121  1.00  0.00     0.028 A 
HETATM   26  C   UNL     1      40.414 -15.558   6.244  1.00  0.00     0.028 A 
ENDBRANCH   2  24
BRANCH   1  27
HETATM   27  C   UNL     1      43.680 -17.276   4.267  1.00  0.00     0.040 A 
HETATM   28  C   UNL     1      43.739 -18.482   3.490  1.00  0.00     0.006 A 
HETATM   29  C   UNL     1      43.276 -18.868   2.212  1.00  0.00     0.014 A 
HETATM   30  C   UNL     1      44.420 -19.436   4.251  1.00  0.00     0.043 A 
HETATM   31  C   UNL     1      43.507 -20.169   1.749  1.00  0.00     0.001 A 
HETATM   32  C   UNL     1      44.195 -21.088   2.534  1.00  0.00     0.002 A 
HETATM   33  C   UNL     1      44.667 -20.738   3.801  1.00  0.00     0.030 A 
HETATM   34  N   UNL     1      44.753 -18.838   5.442  1.00  0.00    -0.364 N 
HETATM   35  H   UNL     1      45.252 -19.298   6.191  1.00  0.00     0.165 HD
HETATM   36  C   UNL     1      44.295 -17.544   5.472  1.00  0.00     0.104 A 
ENDBRANCH   1  27
TORSDOF 7
ENDMDL
MODEL 4
REMARK VINA RESULT:      -8.9      5.260      8.923
REMARK  7 active torsions:
REMARK  status: ('A' for Active; 'I' for Inactive)
REMARK    1  A    between atoms: C_8  and  C_9 
REMARK    2  A    between atoms: N_10  and  C_11 
REMARK    3  A    between atoms: C_14  and  S_15 
REMARK    4  A    between atoms: S_15  and  C_16 
REMARK    5  A    between atoms: C_16  and  C_17 
REMARK       I    between atoms: C_17  and  N_18 
REMARK    6  A    between atoms: N_21  and  C_22 
REMARK    7  A    between atoms: C_25  and  O_26 
ROOT
HETATM    1  C   UNL     1      39.977 -10.813   8.872  1.00  0.00     0.167 A 
HETATM    2  N   UNL     1      40.457 -10.456   7.622  1.00  0.00    -0.302 N 
HETATM    3  C   UNL     1      39.890 -11.344   6.740  1.00  0.00     0.192 A 
HETATM    4  N   UNL     1      39.084 -12.156   7.384  1.00  0.00    -0.122 NA
HETATM    5  N   UNL     1      39.138 -11.825   8.712  1.00  0.00    -0.128 NA
ENDROOT
BRANCH   3   6
HETATM    6  S   UNL     1      40.305 -11.530   5.073  1.00  0.00    -0.081 SA
BRANCH   6   7
HETATM    7  C   UNL     1      40.441 -13.340   4.980  1.00  0.00     0.185 C 
BRANCH   7   8
HETATM    8  C   UNL     1      41.806 -13.841   5.446  1.00  0.00     0.229 C 
HETATM    9  N   UNL     1      42.217 -15.081   4.943  1.00  0.00    -0.348 N 
HETATM   10  C   UNL     1      43.595 -15.495   5.231  1.00  0.00     0.145 C 
HETATM   11  C   UNL     1      41.619 -15.713   3.756  1.00  0.00     0.145 C 
HETATM   12  C   UNL     1      43.798 -17.018   5.171  1.00  0.00     0.143 C 
HETATM   13  N   UNL     1      43.277 -17.560   3.899  1.00  0.00    -0.378 N 
HETATM   14  C   UNL     1      41.846 -17.238   3.697  1.00  0.00     0.143 C 
HETATM   15  O   UNL     1      42.512 -13.215   6.239  1.00  0.00    -0.273 OA
BRANCH  13  16
HETATM   16  C   UNL     1      43.631 -18.869   3.540  1.00  0.00     0.030 A 
HETATM   17  C   UNL     1      44.407 -19.714   4.352  1.00  0.00     0.032 A 
HETATM   18  C   UNL     1      44.762 -21.006   3.941  1.00  0.00     0.039 A 
HETATM   19  C   UNL     1      44.346 -21.468   2.700  1.00  0.00     0.065 A 
HETATM   20  C   UNL     1      43.586 -20.662   1.869  1.00  0.00     0.039 A 
HETATM   21  C   UNL     1      43.239 -19.374   2.288  1.00  0.00     0.032 A 
BRANCH  19  22
HETATM   22  O   UNL     1      44.674 -22.714   2.256  1.00  0.00    -0.361 OA
HETATM   23  H   UNL     1      44.185 -22.889   1.435  1.00  0.00     0.217 HD
ENDBRANCH  19  22
ENDBRANCH  13  16
ENDBRANCH   7   8
ENDBRANCH   6   7
ENDBRANCH   3   6
BRANCH   2  24
HETATM   24  C   UNL     1      41.424  -9.410   7.364  1.00  0.00     0.094 A 
HETATM   25  C   UNL     1      41.451  -8.406   6.239  1.00  0.00     0.028 A 
HETATM   26  C   UNL     1      41.077  -7.959   7.622  1.00  0.00     0.028 A 
ENDBRANCH   2  24
BRANCH   1  27
HETATM   27  C   UNL     1      40.243 -10.218  10.225  1.00  0.00     0.040 A 
HETATM   28  C   UNL     1      41.504 -10.236  10.913  1.00  0.00     0.006 A 
HETATM   29  C   UNL     1      42.785 -10.762  10.632  1.00  0.00     0.014 A 
HETATM   30  C   UNL     1      41.326  -9.568  12.127  1.00  0.00     0.043 A 
HETATM   31  C   UNL     1      43.824 -10.602  11.557  1.00  0.00     0.001 A 
HETATM   32  C   UNL     1      43.609  -9.923  12.752  1.00  0.00     0.002 A 
HETATM   33  C   UNL     1      42.355  -9.391  13.060  1.00  0.00     0.030 A 
HETATM   34  N   UNL     1      40.013  -9.167  12.178  1.00  0.00    -0.364 N 
HETATM   35  H   UNL     1      39.601  -8.660  12.949  1.00  0.00     0.165 HD
HETATM   36  C   UNL     1      39.347  -9.570  11.048  1.00  0.00     0.104 A 
ENDBRANCH   1  27
TORSDOF 7
ENDMDL
MODEL 5
REMARK VINA RESULT:      -8.9      5.160      9.193
REMARK  7 active torsions:
REMARK  status: ('A' for Active; 'I' for Inactive)
REMARK    1  A    between atoms: C_8  and  C_9 
REMARK    2  A    between atoms: N_10  and  C_11 
REMARK    3  A    between atoms: C_14  and  S_15 
REMARK    4  A    between atoms: S_15  and  C_16 
REMARK    5  A    between atoms: C_16  and  C_17 
REMARK       I    between atoms: C_17  and  N_18 
REMARK    6  A    between atoms: N_21  and  C_22 
REMARK    7  A    between atoms: C_25  and  O_26 
ROOT
HETATM    1  C   UNL     1      43.073 -15.365   2.971  1.00  0.00     0.167 A 
HETATM    2  N   UNL     1      41.820 -14.779   3.036  1.00  0.00    -0.302 N 
HETATM    3  C   UNL     1      42.040 -13.475   3.412  1.00  0.00     0.192 A 
HETATM    4  N   UNL     1      43.330 -13.258   3.524  1.00  0.00    -0.122 NA
HETATM    5  N   UNL     1      43.974 -14.434   3.248  1.00  0.00    -0.128 NA
ENDROOT
BRANCH   3   6
HETATM    6  S   UNL     1      40.832 -12.331   3.879  1.00  0.00    -0.081 SA
BRANCH   6   7
HETATM    7  C   UNL     1      41.443 -11.880   5.530  1.00  0.00     0.185 C 
BRANCH   7   8
HETATM    8  C   UNL     1      40.305 -11.654   6.524  1.00  0.00     0.229 C 
HETATM    9  N   UNL     1      40.672 -11.183   7.790  1.00  0.00    -0.348 N 
HETATM   10  C   UNL     1      39.586 -10.787   8.695  1.00  0.00     0.145 C 
HETATM   11  C   UNL     1      41.973 -10.559   8.078  1.00  0.00     0.145 C 
HETATM   12  C   UNL     1      39.983 -10.838  10.180  1.00  0.00     0.143 C 
HETATM   13  N   UNL     1      41.237 -10.090  10.406  1.00  0.00    -0.378 N 
HETATM   14  C   UNL     1      42.350 -10.599   9.573  1.00  0.00     0.143 C 
HETATM   15  O   UNL     1      39.125 -11.888   6.253  1.00  0.00    -0.273 OA
BRANCH  13  16
HETATM   16  C   UNL     1      41.597  -9.782  11.726  1.00  0.00     0.030 A 
HETATM   17  C   UNL     1      40.677  -9.375  12.707  1.00  0.00     0.032 A 
HETATM   18  C   UNL     1      41.085  -9.047  14.007  1.00  0.00     0.039 A 
HETATM   19  C   UNL     1      42.431  -9.118  14.341  1.00  0.00     0.065 A 
HETATM   20  C   UNL     1      43.368  -9.507  13.398  1.00  0.00     0.039 A 
HETATM   21  C   UNL     1      42.950  -9.830  12.104  1.00  0.00     0.032 A 
BRANCH  19  22
HETATM   22  O   UNL     1      42.874  -8.800  15.590  1.00  0.00    -0.361 OA
HETATM   23  H   UNL     1      43.449  -8.021  15.525  1.00  0.00     0.217 HD
ENDBRANCH  19  22
ENDBRANCH  13  16
ENDBRANCH   7   8
ENDBRANCH   6   7
ENDBRANCH   3   6
BRANCH   2  24
HETATM   24  C   UNL     1      40.563 -15.464   2.828  1.00  0.00     0.094 A 
HETATM   25  C   UNL     1      39.313 -14.960   2.150  1.00  0.00     0.028 A 
HETATM   26  C   UNL     1      40.178 -15.967   1.452  1.00  0.00     0.028 A 
ENDBRANCH   2  24
BRANCH   1  27
HETATM   27  C   UNL     1      43.475 -16.769   2.619  1.00  0.00     0.040 A 
HETATM   28  C   UNL     1      43.845 -17.792   3.556  1.00  0.00     0.006 A 
HETATM   29  C   UNL     1      43.974 -17.857   4.961  1.00  0.00     0.014 A 
HETATM   30  C   UNL     1      44.133 -18.946   2.822  1.00  0.00     0.043 A 
HETATM   31  C   UNL     1      44.377 -19.051   5.572  1.00  0.00     0.001 A 
HETATM   32  C   UNL     1      44.648 -20.181   4.806  1.00  0.00     0.002 A 
HETATM   33  C   UNL     1      44.529 -20.150   3.415  1.00  0.00     0.030 A 
HETATM   34  N   UNL     1      43.953 -18.635   1.496  1.00  0.00    -0.364 N 
HETATM   35  H   UNL     1      44.093 -19.284   0.734  1.00  0.00     0.165 HD
HETATM   36  C   UNL     1      43.576 -17.322   1.360  1.00  0.00     0.104 A 
ENDBRANCH   1  27
TORSDOF 7
ENDMDL
MODEL 6
REMARK VINA RESULT:      -8.9      1.939      2.703
REMARK  7 active torsions:
REMARK  status: ('A' for Active; 'I' for Inactive)
REMARK    1  A    between atoms: C_8  and  C_9 
REMARK    2  A    between atoms: N_10  and  C_11 
REMARK    3  A    between atoms: C_14  and  S_15 
REMARK    4  A    between atoms: S_15  and  C_16 
REMARK    5  A    between atoms: C_16  and  C_17 
REMARK       I    between atoms: C_17  and  N_18 
REMARK    6  A    between atoms: N_21  and  C_22 
REMARK    7  A    between atoms: C_25  and  O_26 
ROOT
HETATM    1  C   UNL     1      44.010 -17.165   6.297  1.00  0.00     0.167 A 
HETATM    2  N   UNL     1      43.108 -16.275   5.738  1.00  0.00    -0.302 N 
HETATM    3  C   UNL     1      43.583 -15.023   6.047  1.00  0.00     0.192 A 
HETATM    4  N   UNL     1      44.715 -15.127   6.703  1.00  0.00    -0.122 NA
HETATM    5  N   UNL     1      44.982 -16.461   6.857  1.00  0.00    -0.128 NA
ENDROOT
BRANCH   3   6
HETATM    6  S   UNL     1      42.746 -13.529   5.813  1.00  0.00    -0.081 SA
BRANCH   6   7
HETATM    7  C   UNL     1      43.027 -13.283   4.035  1.00  0.00     0.185 C 
BRANCH   7   8
HETATM    8  C   UNL     1      41.857 -12.571   3.359  1.00  0.00     0.229 C 
HETATM    9  N   UNL     1      41.389 -13.139   2.168  1.00  0.00    -0.348 N 
HETATM   10  C   UNL     1      40.155 -12.581   1.602  1.00  0.00     0.145 C 
HETATM   11  C   UNL     1      41.685 -14.521   1.757  1.00  0.00     0.145 C 
HETATM   12  C   UNL     1      40.018 -12.821   0.089  1.00  0.00     0.143 C 
HETATM   13  N   UNL     1      40.213 -14.251  -0.227  1.00  0.00    -0.378 N 
HETATM   14  C   UNL     1      41.524 -14.755   0.241  1.00  0.00     0.143 C 
HETATM   15  O   UNL     1      41.354 -11.539   3.808  1.00  0.00    -0.273 OA
BRANCH  13  16
HETATM   16  C   UNL     1      39.842 -14.706  -1.501  1.00  0.00     0.030 A 
HETATM   17  C   UNL     1      38.679 -14.284  -2.169  1.00  0.00     0.032 A 
HETATM   18  C   UNL     1      38.331 -14.787  -3.429  1.00  0.00     0.039 A 
HETATM   19  C   UNL     1      39.145 -15.732  -4.038  1.00  0.00     0.065 A 
HETATM   20  C   UNL     1      40.295 -16.179  -3.408  1.00  0.00     0.039 A 
HETATM   21  C   UNL     1      40.633 -15.671  -2.150  1.00  0.00     0.032 A 
BRANCH  19  22
HETATM   22  O   UNL     1      38.842 -16.255  -5.259  1.00  0.00    -0.361 OA
HETATM   23  H   UNL     1      38.969 -15.566  -5.931  1.00  0.00     0.217 HD
ENDBRANCH  19  22
ENDBRANCH  13  16
ENDBRANCH   7   8
ENDBRANCH   6   7
ENDBRANCH   3   6
BRANCH   2  24
HETATM   24  C   UNL     1      41.886 -16.640   5.054  1.00  0.00     0.094 A 
HETATM   25  C   UNL     1      41.129 -17.944   5.102  1.00  0.00     0.028 A 
HETATM   26  C   UNL     1      40.579 -16.743   5.813  1.00  0.00     0.028 A 
ENDBRANCH   2  24
BRANCH   1  27
HETATM   27  C   UNL     1      44.025 -18.666   6.296  1.00  0.00     0.040 A 
HETATM   28  C   UNL     1      44.285 -19.499   5.155  1.00  0.00     0.006 A 
HETATM   29  C   UNL     1      44.565 -19.262   3.791  1.00  0.00     0.014 A 
HETATM   30  C   UNL     1      44.216 -20.827   5.584  1.00  0.00     0.043 A 
HETATM   31  C   UNL     1      44.765 -20.340   2.921  1.00  0.00     0.001 A 
HETATM   32  C   UNL     1      44.697 -21.649   3.388  1.00  0.00     0.002 A 
HETATM   33  C   UNL     1      44.422 -21.918   4.730  1.00  0.00     0.030 A 
HETATM   34  N   UNL     1      43.921 -20.803   6.925  1.00  0.00    -0.364 N 
HETATM   35  H   UNL     1      43.808 -21.627   7.500  1.00  0.00     0.165 HD
HETATM   36  C   UNL     1      43.783 -19.509   7.361  1.00  0.00     0.104 A 
ENDBRANCH   1  27
TORSDOF 7
ENDMDL
MODEL 7
REMARK VINA RESULT:      -8.9      2.475      7.255
REMARK  7 active torsions:
REMARK  status: ('A' for Active; 'I' for Inactive)
REMARK    1  A    between atoms: C_8  and  C_9 
REMARK    2  A    between atoms: N_10  and  C_11 
REMARK    3  A    between atoms: C_14  and  S_15 
REMARK    4  A    between atoms: S_15  and  C_16 
REMARK    5  A    between atoms: C_16  and  C_17 
REMARK       I    between atoms: C_17  and  N_18 
REMARK    6  A    between atoms: N_21  and  C_22 
REMARK    7  A    between atoms: C_25  and  O_26 
ROOT
HETATM    1  C   UNL     1      39.710 -11.987  -0.117  1.00  0.00     0.167 A 
HETATM    2  N   UNL     1      39.535 -12.203   1.240  1.00  0.00    -0.302 N 
HETATM    3  C   UNL     1      40.378 -11.319   1.868  1.00  0.00     0.192 A 
HETATM    4  N   UNL     1      40.992 -10.579   0.973  1.00  0.00    -0.122 NA
HETATM    5  N   UNL     1      40.574 -10.994  -0.263  1.00  0.00    -0.128 NA
ENDROOT
BRANCH   3   6
HETATM    6  S   UNL     1      40.758 -11.294   3.553  1.00  0.00    -0.081 SA
BRANCH   6   7
HETATM    7  C   UNL     1      41.976 -12.641   3.624  1.00  0.00     0.185 C 
BRANCH   7   8
HETATM    8  C   UNL     1      41.509 -13.795   4.509  1.00  0.00     0.229 C 
HETATM    9  N   UNL     1      42.053 -15.053   4.227  1.00  0.00    -0.348 N 
HETATM   10  C   UNL     1      41.761 -16.135   5.175  1.00  0.00     0.145 C 
HETATM   11  C   UNL     1      43.272 -15.249   3.425  1.00  0.00     0.145 C 
HETATM   12  C   UNL     1      41.876 -17.537   4.552  1.00  0.00     0.143 C 
HETATM   13  N   UNL     1      43.175 -17.694   3.866  1.00  0.00    -0.378 N 
HETATM   14  C   UNL     1      43.385 -16.665   2.822  1.00  0.00     0.143 C 
HETATM   15  O   UNL     1      40.683 -13.652   5.413  1.00  0.00    -0.273 OA
BRANCH  13  16
HETATM   16  C   UNL     1      43.577 -18.985   3.493  1.00  0.00     0.030 A 
HETATM   17  C   UNL     1      44.421 -19.791   4.275  1.00  0.00     0.032 A 
HETATM   18  C   UNL     1      44.822 -21.065   3.849  1.00  0.00     0.039 A 
HETATM   19  C   UNL     1      44.385 -21.547   2.623  1.00  0.00     0.065 A 
HETATM   20  C   UNL     1      43.559 -20.777   1.821  1.00  0.00     0.039 A 
HETATM   21  C   UNL     1      43.165 -19.507   2.254  1.00  0.00     0.032 A 
BRANCH  19  22
HETATM   22  O   UNL     1      44.757 -22.775   2.165  1.00  0.00    -0.361 OA
HETATM   23  H   UNL     1      44.495 -22.850   1.233  1.00  0.00     0.217 HD
ENDBRANCH  19  22
ENDBRANCH  13  16
ENDBRANCH   7   8
ENDBRANCH   6   7
ENDBRANCH   3   6
BRANCH   2  24
HETATM   24  C   UNL     1      38.690 -13.223   1.823  1.00  0.00     0.094 A 
HETATM   25  C   UNL     1      37.851 -14.266   1.128  1.00  0.00     0.028 A 
HETATM   26  C   UNL     1      39.119 -14.675   1.818  1.00  0.00     0.028 A 
ENDBRANCH   2  24
BRANCH   1  27
HETATM   27  C   UNL     1      39.067 -12.651  -1.301  1.00  0.00     0.040 A 
HETATM   28  C   UNL     1      39.523 -13.857  -1.933  1.00  0.00     0.006 A 
HETATM   29  C   UNL     1      40.604 -14.742  -1.726  1.00  0.00     0.014 A 
HETATM   30  C   UNL     1      38.642 -14.138  -2.980  1.00  0.00     0.043 A 
HETATM   31  C   UNL     1      40.764 -15.857  -2.558  1.00  0.00     0.001 A 
HETATM   32  C   UNL     1      39.861 -16.107  -3.588  1.00  0.00     0.002 A 
HETATM   33  C   UNL     1      38.781 -15.252  -3.817  1.00  0.00     0.030 A 
HETATM   34  N   UNL     1      37.697 -13.142  -2.990  1.00  0.00    -0.364 N 
HETATM   35  H   UNL     1      36.932 -13.088  -3.648  1.00  0.00     0.165 HD
HETATM   36  C   UNL     1      37.953 -12.230  -1.997  1.00  0.00     0.104 A 
ENDBRANCH   1  27
TORSDOF 7
ENDMDL
MODEL 8
REMARK VINA RESULT:      -8.8      5.079      9.109
REMARK  7 active torsions:
REMARK  status: ('A' for Active; 'I' for Inactive)
REMARK    1  A    between atoms: C_8  and  C_9 
REMARK    2  A    between atoms: N_10  and  C_11 
REMARK    3  A    between atoms: C_14  and  S_15 
REMARK    4  A    between atoms: S_15  and  C_16 
REMARK    5  A    between atoms: C_16  and  C_17 
REMARK       I    between atoms: C_17  and  N_18 
REMARK    6  A    between atoms: N_21  and  C_22 
REMARK    7  A    between atoms: C_25  and  O_26 
ROOT
HETATM    1  C   UNL     1      42.951 -16.049   4.977  1.00  0.00     0.167 A 
HETATM    2  N   UNL     1      41.919 -15.510   4.225  1.00  0.00    -0.302 N 
HETATM    3  C   UNL     1      41.993 -14.151   4.415  1.00  0.00     0.192 A 
HETATM    4  N   UNL     1      43.018 -13.866   5.184  1.00  0.00    -0.122 NA
HETATM    5  N   UNL     1      43.615 -15.047   5.533  1.00  0.00    -0.128 NA
ENDROOT
BRANCH   3   6
HETATM    6  S   UNL     1      40.819 -12.987   3.911  1.00  0.00    -0.081 SA
BRANCH   6   7
HETATM    7  C   UNL     1      41.141 -11.669   5.119  1.00  0.00     0.185 C 
BRANCH   7   8
HETATM    8  C   UNL     1      40.067 -11.606   6.204  1.00  0.00     0.229 C 
HETATM    9  N   UNL     1      40.486 -11.170   7.467  1.00  0.00    -0.348 N 
HETATM   10  C   UNL     1      39.441 -10.928   8.469  1.00  0.00     0.145 C 
HETATM   11  C   UNL     1      41.742 -10.440   7.698  1.00  0.00     0.145 C 
HETATM   12  C   UNL     1      39.954 -11.019   9.916  1.00  0.00     0.143 C 
HETATM   13  N   UNL     1      41.148 -10.168  10.096  1.00  0.00    -0.378 N 
HETATM   14  C   UNL     1      42.236 -10.523   9.157  1.00  0.00     0.143 C 
HETATM   15  O   UNL     1      38.897 -11.937   6.005  1.00  0.00    -0.273 OA
BRANCH  13  16
HETATM   16  C   UNL     1      41.579  -9.897  11.404  1.00  0.00     0.030 A 
HETATM   17  C   UNL     1      40.714  -9.519  12.444  1.00  0.00     0.032 A 
HETATM   18  C   UNL     1      41.192  -9.228  13.729  1.00  0.00     0.039 A 
HETATM   19  C   UNL     1      42.553  -9.307  13.987  1.00  0.00     0.065 A 
HETATM   20  C   UNL     1      43.438  -9.668  12.985  1.00  0.00     0.039 A 
HETATM   21  C   UNL     1      42.951  -9.955  11.706  1.00  0.00     0.032 A 
BRANCH  19  22
HETATM   22  O   UNL     1      43.063  -9.025  15.219  1.00  0.00    -0.361 OA
HETATM   23  H   UNL     1      43.622  -8.234  15.149  1.00  0.00     0.217 HD
ENDBRANCH  19  22
ENDBRANCH  13  16
ENDBRANCH   7   8
ENDBRANCH   6   7
ENDBRANCH   3   6
BRANCH   2  24
HETATM   24  C   UNL     1      40.940 -16.272   3.480  1.00  0.00     0.094 A 
HETATM   25  C   UNL     1      39.935 -15.784   2.466  1.00  0.00     0.028 A 
HETATM   26  C   UNL     1      41.139 -16.551   2.005  1.00  0.00     0.028 A 
ENDBRANCH   2  24
BRANCH   1  27
HETATM   27  C   UNL     1      43.372 -17.477   5.171  1.00  0.00     0.040 A 
HETATM   28  C   UNL     1      43.773 -18.379   4.128  1.00  0.00     0.006 A 
HETATM   29  C   UNL     1      43.890 -18.289   2.723  1.00  0.00     0.014 A 
HETATM   30  C   UNL     1      44.096 -19.597   4.732  1.00  0.00     0.043 A 
HETATM   31  C   UNL     1      44.318 -19.399   1.985  1.00  0.00     0.001 A 
HETATM   32  C   UNL     1      44.638 -20.594   2.624  1.00  0.00     0.002 A 
HETATM   33  C   UNL     1      44.534 -20.715   4.011  1.00  0.00     0.030 A 
HETATM   34  N   UNL     1      43.893 -19.445   6.082  1.00  0.00    -0.364 N 
HETATM   35  H   UNL     1      44.046 -20.171   6.767  1.00  0.00     0.165 HD
HETATM   36  C   UNL     1      43.438 -18.179   6.356  1.00  0.00     0.104 A 
ENDBRANCH   1  27
TORSDOF 7
ENDMDL
MODEL 9
REMARK VINA RESULT:      -8.7      2.626      6.665
REMARK  7 active torsions:
REMARK  status: ('A' for Active; 'I' for Inactive)
REMARK    1  A    between atoms: C_8  and  C_9 
REMARK    2  A    between atoms: N_10  and  C_11 
REMARK    3  A    between atoms: C_14  and  S_15 
REMARK    4  A    between atoms: S_15  and  C_16 
REMARK    5  A    between atoms: C_16  and  C_17 
REMARK       I    between atoms: C_17  and  N_18 
REMARK    6  A    between atoms: N_21  and  C_22 
REMARK    7  A    between atoms: C_25  and  O_26 
ROOT
HETATM    1  C   UNL     1      41.904 -13.993   1.670  1.00  0.00     0.167 A 
HETATM    2  N   UNL     1      41.134 -13.158   2.463  1.00  0.00    -0.302 N 
HETATM    3  C   UNL     1      41.995 -12.639   3.400  1.00  0.00     0.192 A 
HETATM    4  N   UNL     1      43.212 -13.078   3.175  1.00  0.00    -0.122 NA
HETATM    5  N   UNL     1      43.155 -13.920   2.097  1.00  0.00    -0.128 NA
ENDROOT
BRANCH   3   6
HETATM    6  S   UNL     1      41.551 -11.718   4.793  1.00  0.00    -0.081 SA
BRANCH   6   7
HETATM    7  C   UNL     1      41.883 -12.938   6.099  1.00  0.00     0.185 C 
BRANCH   7   8
HETATM    8  C   UNL     1      40.994 -14.174   5.973  1.00  0.00     0.229 C 
HETATM    9  N   UNL     1      41.607 -15.330   5.477  1.00  0.00    -0.348 N 
HETATM   10  C   UNL     1      40.824 -16.571   5.519  1.00  0.00     0.145 C 
HETATM   11  C   UNL     1      43.065 -15.523   5.438  1.00  0.00     0.145 C 
HETATM   12  C   UNL     1      41.285 -17.617   4.490  1.00  0.00     0.143 C 
HETATM   13  N   UNL     1      42.741 -17.839   4.594  1.00  0.00    -0.378 N 
HETATM   14  C   UNL     1      43.513 -16.588   4.416  1.00  0.00     0.143 C 
HETATM   15  O   UNL     1      39.797 -14.168   6.265  1.00  0.00    -0.273 OA
BRANCH  13  16
HETATM   16  C   UNL     1      43.291 -18.954   3.944  1.00  0.00     0.030 A 
HETATM   17  C   UNL     1      44.208 -19.831   4.548  1.00  0.00     0.032 A 
HETATM   18  C   UNL     1      44.756 -20.917   3.852  1.00  0.00     0.039 A 
HETATM   19  C   UNL     1      44.393 -21.135   2.530  1.00  0.00     0.065 A 
HETATM   20  C   UNL     1      43.498 -20.288   1.898  1.00  0.00     0.039 A 
HETATM   21  C   UNL     1      42.959 -19.207   2.602  1.00  0.00     0.032 A 
BRANCH  19  22
HETATM   22  O   UNL     1      44.906 -22.173   1.811  1.00  0.00    -0.361 OA
HETATM   23  H   UNL     1      44.171 -22.685   1.439  1.00  0.00     0.217 HD
ENDBRANCH  19  22
ENDBRANCH  13  16
ENDBRANCH   7   8
ENDBRANCH   6   7
ENDBRANCH   3   6
BRANCH   2  24
HETATM   24  C   UNL     1      39.703 -12.973   2.343  1.00  0.00     0.094 A 
HETATM   25  C   UNL     1      38.843 -11.869   2.904  1.00  0.00     0.028 A 
HETATM   26  C   UNL     1      39.138 -11.903   1.434  1.00  0.00     0.028 A 
ENDBRANCH   2  24
BRANCH   1  27
HETATM   27  C   UNL     1      41.523 -14.838   0.489  1.00  0.00     0.040 A 
HETATM   28  C   UNL     1      41.294 -14.356  -0.845  1.00  0.00     0.006 A 
HETATM   29  C   UNL     1      41.315 -13.086  -1.463  1.00  0.00     0.014 A 
HETATM   30  C   UNL     1      40.976 -15.461  -1.639  1.00  0.00     0.043 A 
HETATM   31  C   UNL     1      41.026 -12.968  -2.827  1.00  0.00     0.001 A 
HETATM   32  C   UNL     1      40.722 -14.094  -3.587  1.00  0.00     0.002 A 
HETATM   33  C   UNL     1      40.692 -15.364  -3.006  1.00  0.00     0.030 A 
HETATM   34  N   UNL     1      41.004 -16.566  -0.822  1.00  0.00    -0.364 N 
HETATM   35  H   UNL     1      40.810 -17.508  -1.131  1.00  0.00     0.165 HD
HETATM   36  C   UNL     1      41.312 -16.201   0.464  1.00  0.00     0.104 A 
ENDBRANCH   1  27
TORSDOF 7
ENDMDL
MODEL 10
REMARK VINA RESULT:      -8.5      3.086      7.525
REMARK  7 active torsions:
REMARK  status: ('A' for Active; 'I' for Inactive)
REMARK    1  A    between atoms: C_8  and  C_9 
REMARK    2  A    between atoms: N_10  and  C_11 
REMARK    3  A    between atoms: C_14  and  S_15 
REMARK    4  A    between atoms: S_15  and  C_16 
REMARK    5  A    between atoms: C_16  and  C_17 
REMARK       I    between atoms: C_17  and  N_18 
REMARK    6  A    between atoms: N_21  and  C_22 
REMARK    7  A    between atoms: C_25  and  O_26 
ROOT
HETATM    1  C   UNL     1      41.552 -12.584   0.471  1.00  0.00     0.167 A 
HETATM    2  N   UNL     1      40.388 -12.273   1.156  1.00  0.00    -0.302 N 
HETATM    3  C   UNL     1      40.742 -12.227   2.484  1.00  0.00     0.192 A 
HETATM    4  N   UNL     1      42.031 -12.443   2.607  1.00  0.00    -0.122 NA
HETATM    5  N   UNL     1      42.535 -12.664   1.354  1.00  0.00    -0.128 NA
ENDROOT
BRANCH   3   6
HETATM    6  S   UNL     1      39.657 -12.115   3.824  1.00  0.00    -0.081 SA
BRANCH   6   7
HETATM    7  C   UNL     1      39.530 -13.870   4.278  1.00  0.00     0.185 C 
BRANCH   7   8
HETATM    8  C   UNL     1      40.758 -14.358   5.043  1.00  0.00     0.229 C 
HETATM    9  N   UNL     1      41.373 -15.516   4.554  1.00  0.00    -0.348 N 
HETATM   10  C   UNL     1      42.655 -15.898   5.160  1.00  0.00     0.145 C 
HETATM   11  C   UNL     1      41.153 -16.042   3.197  1.00  0.00     0.145 C 
HETATM   12  C   UNL     1      42.974 -17.396   5.014  1.00  0.00     0.143 C 
HETATM   13  N   UNL     1      42.843 -17.818   3.605  1.00  0.00    -0.378 N 
HETATM   14  C   UNL     1      41.495 -17.539   3.059  1.00  0.00     0.143 C 
HETATM   15  O   UNL     1      41.187 -13.791   6.050  1.00  0.00    -0.273 OA
BRANCH  13  16
HETATM   16  C   UNL     1      43.371 -19.064   3.234  1.00  0.00     0.030 A 
HETATM   17  C   UNL     1      43.034 -19.725   2.041  1.00  0.00     0.032 A 
HETATM   18  C   UNL     1      43.562 -20.984   1.723  1.00  0.00     0.039 A 
HETATM   19  C   UNL     1      44.435 -21.603   2.607  1.00  0.00     0.065 A 
HETATM   20  C   UNL     1      44.784 -20.986   3.796  1.00  0.00     0.039 A 
HETATM   21  C   UNL     1      44.251 -19.730   4.104  1.00  0.00     0.032 A 
BRANCH  19  22
HETATM   22  O   UNL     1      44.966 -22.830   2.344  1.00  0.00    -0.361 OA
HETATM   23  H   UNL     1      45.350 -23.183   3.163  1.00  0.00     0.217 HD
ENDBRANCH  19  22
ENDBRANCH  13  16
ENDBRANCH   7   8
ENDBRANCH   6   7
ENDBRANCH   3   6
BRANCH   2  24
HETATM   24  C   UNL     1      39.079 -12.125   0.559  1.00  0.00     0.094 A 
HETATM   25  C   UNL     1      38.578 -12.649  -0.764  1.00  0.00     0.028 A 
HETATM   26  C   UNL     1      38.117 -13.293   0.510  1.00  0.00     0.028 A 
ENDBRANCH   2  24
BRANCH   1  27
HETATM   27  C   UNL     1      41.795 -12.774  -0.998  1.00  0.00     0.040 A 
HETATM   28  C   UNL     1      42.013 -11.722  -1.952  1.00  0.00     0.006 A 
HETATM   29  C   UNL     1      42.056 -10.311  -1.888  1.00  0.00     0.014 A 
HETATM   30  C   UNL     1      42.211 -12.323  -3.198  1.00  0.00     0.043 A 
HETATM   31  C   UNL     1      42.292  -9.566  -3.049  1.00  0.00     0.001 A 
HETATM   32  C   UNL     1      42.491 -10.202  -4.271  1.00  0.00     0.002 A 
HETATM   33  C   UNL     1      42.456 -11.594  -4.368  1.00  0.00     0.030 A 
HETATM   34  N   UNL     1      42.110 -13.680  -3.012  1.00  0.00    -0.364 N 
HETATM   35  H   UNL     1      42.208 -14.366  -3.747  1.00  0.00     0.165 HD
HETATM   36  C   UNL     1      41.840 -13.963  -1.696  1.00  0.00     0.104 A 
ENDBRANCH   1  27
TORSDOF 7
ENDMDL
