MODEL 1
REMARK VINA RESULT:      -8.5      0.000      0.000
REMARK  4 active torsions:
REMARK  status: ('A' for Active; 'I' for Inactive)
REMARK    1  A    between atoms: N_4  and  C_5 
REMARK    2  A    between atoms: C_16  and  C_17 
REMARK    3  A    between atoms: C_24  and  C_25 
REMARK    4  A    between atoms: C_25  and  O_26 
ROOT
HETATM    1  C   UNL     1      44.414 -16.074   7.008  1.00  0.00     0.073 C 
HETATM    2  C   UNL     1      43.964 -16.961   5.906  1.00  0.00     0.065 A 
HETATM    3  N   UNL     1      44.549 -18.143   5.712  1.00  0.00    -0.170 NA
HETATM    4  N   UNL     1      43.891 -18.705   4.650  1.00  0.00    -0.215 N 
HETATM    5  C   UNL     1      42.915 -17.839   4.151  1.00  0.00     0.165 A 
HETATM    6  C   UNL     1      42.933 -16.721   4.973  1.00  0.00     0.039 A 
HETATM    7  N   UNL     1      42.081 -18.023   3.102  1.00  0.00    -0.216 NA
HETATM    8  C   UNL     1      41.198 -17.016   2.905  1.00  0.00     0.137 A 
HETATM    9 CL   UNL     1      40.169 -17.355   1.563  1.00  0.00    -0.062 Cl
HETATM   10  C   UNL     1      41.084 -15.854   3.668  1.00  0.00     0.011 A 
HETATM   11  C   UNL     1      42.000 -15.701   4.727  1.00  0.00     0.030 A 
ENDROOT
BRANCH  10  12
HETATM   12  C   UNL     1      40.010 -14.806   3.436  1.00  0.00     0.164 C 
HETATM   13  N   UNL     1      39.491 -14.366   4.724  1.00  0.00    -0.330 N 
HETATM   14  C   UNL     1      39.792 -13.184   5.314  1.00  0.00     0.321 C 
HETATM   15  H   UNL     1      39.048 -15.041   5.334  1.00  0.00     0.165 HD
HETATM   16  O   UNL     1      39.503 -12.958   6.483  1.00  0.00    -0.247 OA
HETATM   17  N   UNL     1      40.407 -12.258   4.527  1.00  0.00    -0.312 N 
HETATM   18  C   UNL     1      40.702 -12.419   3.192  1.00  0.00     0.024 C 
HETATM   19  H   UNL     1      40.566 -11.365   4.981  1.00  0.00     0.170 HD
HETATM   20  C   UNL     1      41.217 -11.198   2.481  1.00  0.00     0.069 C 
HETATM   21  C   UNL     1      40.492 -13.626   2.631  1.00  0.00     0.067 C 
BRANCH  21  22
HETATM   22  C   UNL     1      40.767 -13.848   1.191  1.00  0.00     0.293 C 
HETATM   23  O   UNL     1      41.870 -14.080   0.723  1.00  0.00    -0.259 OA
BRANCH  22  24
HETATM   24  O   UNL     1      39.615 -13.728   0.488  1.00  0.00    -0.323 OA
HETATM   25  C   UNL     1      39.771 -13.890  -0.924  1.00  0.00     0.213 C 
ENDBRANCH  22  24
ENDBRANCH  21  22
ENDBRANCH  10  12
BRANCH   4  26
HETATM   26  C   UNL     1      44.237 -20.026   4.231  1.00  0.00     0.060 A 
HETATM   27  C   UNL     1      44.583 -20.983   5.202  1.00  0.00     0.031 A 
HETATM   28  C   UNL     1      44.901 -22.292   4.832  1.00  0.00     0.002 A 
HETATM   29  C   UNL     1      44.883 -22.659   3.489  1.00  0.00     0.000 A 
HETATM   30  C   UNL     1      44.547 -21.718   2.518  1.00  0.00     0.002 A 
HETATM   31  C   UNL     1      44.224 -20.406   2.883  1.00  0.00     0.031 A 
ENDBRANCH   4  26
TORSDOF 4
ENDMDL
MODEL 2
REMARK VINA RESULT:      -8.4      1.463      1.854
REMARK  4 active torsions:
REMARK  status: ('A' for Active; 'I' for Inactive)
REMARK    1  A    between atoms: N_4  and  C_5 
REMARK    2  A    between atoms: C_16  and  C_17 
REMARK    3  A    between atoms: C_24  and  C_25 
REMARK    4  A    between atoms: C_25  and  O_26 
ROOT
HETATM    1  C   UNL     1      44.146 -15.630   7.374  1.00  0.00     0.073 C 
HETATM    2  C   UNL     1      43.608 -16.236   6.131  1.00  0.00     0.065 A 
HETATM    3  N   UNL     1      44.137 -17.360   5.647  1.00  0.00    -0.170 NA
HETATM    4  N   UNL     1      43.405 -17.654   4.527  1.00  0.00    -0.215 N 
HETATM    5  C   UNL     1      42.440 -16.673   4.288  1.00  0.00     0.165 A 
HETATM    6  C   UNL     1      42.541 -15.767   5.334  1.00  0.00     0.039 A 
HETATM    7  N   UNL     1      41.548 -16.596   3.274  1.00  0.00    -0.216 NA
HETATM    8  C   UNL     1      40.696 -15.548   3.355  1.00  0.00     0.137 A 
HETATM    9 CL   UNL     1      39.588 -15.552   2.033  1.00  0.00    -0.062 Cl
HETATM   10  C   UNL     1      40.665 -14.583   4.361  1.00  0.00     0.011 A 
HETATM   11  C   UNL     1      41.638 -14.694   5.374  1.00  0.00     0.030 A 
ENDROOT
BRANCH  10  12
HETATM   12  C   UNL     1      39.621 -13.481   4.429  1.00  0.00     0.164 C 
HETATM   13  N   UNL     1      39.126 -13.381   5.794  1.00  0.00    -0.330 N 
HETATM   14  C   UNL     1      39.467 -12.405   6.670  1.00  0.00     0.321 C 
HETATM   15  H   UNL     1      38.667 -14.180   6.213  1.00  0.00     0.165 HD
HETATM   16  O   UNL     1      39.194 -12.485   7.861  1.00  0.00    -0.247 OA
HETATM   17  N   UNL     1      40.105 -11.322   6.144  1.00  0.00    -0.312 N 
HETATM   18  C   UNL     1      40.385 -11.133   4.809  1.00  0.00     0.024 C 
HETATM   19  H   UNL     1      40.294 -10.584   6.814  1.00  0.00     0.170 HD
HETATM   20  C   UNL     1      40.931  -9.784   4.436  1.00  0.00     0.069 C 
HETATM   21  C   UNL     1      40.134 -12.145   3.954  1.00  0.00     0.067 C 
BRANCH  21  22
HETATM   22  C   UNL     1      40.391 -11.989   2.503  1.00  0.00     0.293 C 
HETATM   23  O   UNL     1      39.537 -11.731   1.670  1.00  0.00    -0.259 OA
BRANCH  22  24
HETATM   24  O   UNL     1      41.706 -12.201   2.252  1.00  0.00    -0.323 OA
HETATM   25  C   UNL     1      41.966 -12.866   1.014  1.00  0.00     0.213 C 
ENDBRANCH  22  24
ENDBRANCH  21  22
ENDBRANCH  10  12
BRANCH   4  26
HETATM   26  C   UNL     1      43.679 -18.857   3.806  1.00  0.00     0.060 A 
HETATM   27  C   UNL     1      44.459 -19.856   4.416  1.00  0.00     0.031 A 
HETATM   28  C   UNL     1      44.725 -21.057   3.754  1.00  0.00     0.002 A 
HETATM   29  C   UNL     1      44.221 -21.271   2.474  1.00  0.00     0.000 A 
HETATM   30  C   UNL     1      43.452 -20.286   1.858  1.00  0.00     0.002 A 
HETATM   31  C   UNL     1      43.179 -19.083   2.518  1.00  0.00     0.031 A 
ENDBRANCH   4  26
TORSDOF 4
ENDMDL
MODEL 3
REMARK VINA RESULT:      -7.9      2.467      3.064
REMARK  4 active torsions:
REMARK  status: ('A' for Active; 'I' for Inactive)
REMARK    1  A    between atoms: N_4  and  C_5 
REMARK    2  A    between atoms: C_16  and  C_17 
REMARK    3  A    between atoms: C_24  and  C_25 
REMARK    4  A    between atoms: C_25  and  O_26 
ROOT
HETATM    1  C   UNL     1      40.900 -15.908   5.483  1.00  0.00     0.073 C 
HETATM    2  C   UNL     1      41.467 -16.596   4.296  1.00  0.00     0.065 A 
HETATM    3  N   UNL     1      42.173 -17.717   4.443  1.00  0.00    -0.170 NA
HETATM    4  N   UNL     1      42.523 -18.095   3.173  1.00  0.00    -0.215 N 
HETATM    5  C   UNL     1      42.066 -17.171   2.232  1.00  0.00     0.165 A 
HETATM    6  C   UNL     1      41.357 -16.212   2.942  1.00  0.00     0.039 A 
HETATM    7  N   UNL     1      42.232 -17.181   0.889  1.00  0.00    -0.216 NA
HETATM    8  C   UNL     1      41.611 -16.169   0.240  1.00  0.00     0.137 A 
HETATM    9 CL   UNL     1      41.863 -16.284  -1.462  1.00  0.00    -0.062 Cl
HETATM   10  C   UNL     1      40.845 -15.159   0.822  1.00  0.00     0.011 A 
HETATM   11  C   UNL     1      40.733 -15.179   2.226  1.00  0.00     0.030 A 
ENDROOT
BRANCH  10  12
HETATM   12  C   UNL     1      40.108 -14.102   0.017  1.00  0.00     0.164 C 
HETATM   13  N   UNL     1      38.688 -14.428  -0.004  1.00  0.00    -0.330 N 
HETATM   14  C   UNL     1      37.741 -13.793   0.729  1.00  0.00     0.321 C 
HETATM   15  H   UNL     1      38.387 -15.302  -0.413  1.00  0.00     0.165 HD
HETATM   16  O   UNL     1      36.605 -14.241   0.838  1.00  0.00    -0.247 OA
HETATM   17  N   UNL     1      38.116 -12.621   1.313  1.00  0.00    -0.312 N 
HETATM   18  C   UNL     1      39.351 -12.026   1.181  1.00  0.00     0.024 C 
HETATM   19  H   UNL     1      37.369 -12.143   1.805  1.00  0.00     0.170 HD
HETATM   20  C   UNL     1      39.482 -10.647   1.764  1.00  0.00     0.069 C 
HETATM   21  C   UNL     1      40.321 -12.703   0.534  1.00  0.00     0.067 C 
BRANCH  21  22
HETATM   22  C   UNL     1      41.661 -12.100   0.340  1.00  0.00     0.293 C 
HETATM   23  O   UNL     1      42.568 -12.147   1.154  1.00  0.00    -0.259 OA
BRANCH  22  24
HETATM   24  O   UNL     1      41.705 -11.475  -0.862  1.00  0.00    -0.323 OA
HETATM   25  C   UNL     1      42.684 -12.002  -1.761  1.00  0.00     0.213 C 
ENDBRANCH  22  24
ENDBRANCH  21  22
ENDBRANCH  10  12
BRANCH   4  26
HETATM   26  C   UNL     1      43.236 -19.318   2.977  1.00  0.00     0.060 A 
HETATM   27  C   UNL     1      44.173 -19.725   3.945  1.00  0.00     0.031 A 
HETATM   28  C   UNL     1      44.868 -20.928   3.801  1.00  0.00     0.002 A 
HETATM   29  C   UNL     1      44.642 -21.734   2.689  1.00  0.00     0.000 A 
HETATM   30  C   UNL     1      43.722 -21.338   1.722  1.00  0.00     0.002 A 
HETATM   31  C   UNL     1      43.018 -20.136   1.861  1.00  0.00     0.031 A 
ENDBRANCH   4  26
TORSDOF 4
ENDMDL
MODEL 4
REMARK VINA RESULT:      -7.6      2.666      3.995
REMARK  4 active torsions:
REMARK  status: ('A' for Active; 'I' for Inactive)
REMARK    1  A    between atoms: N_4  and  C_5 
REMARK    2  A    between atoms: C_16  and  C_17 
REMARK    3  A    between atoms: C_24  and  C_25 
REMARK    4  A    between atoms: C_25  and  O_26 
ROOT
HETATM    1  C   UNL     1      40.174 -14.507   4.755  1.00  0.00     0.073 C 
HETATM    2  C   UNL     1      40.816 -15.342   3.708  1.00  0.00     0.065 A 
HETATM    3  N   UNL     1      41.591 -16.370   4.052  1.00  0.00    -0.170 NA
HETATM    4  N   UNL     1      41.997 -16.931   2.869  1.00  0.00    -0.215 N 
HETATM    5  C   UNL     1      41.503 -16.212   1.779  1.00  0.00     0.165 A 
HETATM    6  C   UNL     1      40.714 -15.200   2.308  1.00  0.00     0.039 A 
HETATM    7  N   UNL     1      41.702 -16.436   0.460  1.00  0.00    -0.216 NA
HETATM    8  C   UNL     1      41.031 -15.592  -0.359  1.00  0.00     0.137 A 
HETATM    9 CL   UNL     1      41.333 -15.974  -2.014  1.00  0.00    -0.062 Cl
HETATM   10  C   UNL     1      40.185 -14.556   0.033  1.00  0.00     0.011 A 
HETATM   11  C   UNL     1      40.040 -14.348   1.419  1.00  0.00     0.030 A 
ENDROOT
BRANCH  10  12
HETATM   12  C   UNL     1      39.399 -13.703  -0.948  1.00  0.00     0.164 C 
HETATM   13  N   UNL     1      38.058 -13.490  -0.422  1.00  0.00    -0.330 N 
HETATM   14  C   UNL     1      37.624 -12.334   0.137  1.00  0.00     0.321 C 
HETATM   15  H   UNL     1      37.459 -14.288  -0.256  1.00  0.00     0.165 HD
HETATM   16  O   UNL     1      36.566 -12.275   0.753  1.00  0.00    -0.247 OA
HETATM   17  N   UNL     1      38.415 -11.241  -0.050  1.00  0.00    -0.312 N 
HETATM   18  C   UNL     1      39.580 -11.218  -0.784  1.00  0.00     0.024 C 
HETATM   19  H   UNL     1      38.034 -10.381   0.329  1.00  0.00     0.170 HD
HETATM   20  C   UNL     1      40.191  -9.863  -1.005  1.00  0.00     0.069 C 
HETATM   21  C   UNL     1      40.062 -12.385  -1.256  1.00  0.00     0.067 C 
BRANCH  21  22
HETATM   22  C   UNL     1      41.297 -12.416  -2.074  1.00  0.00     0.293 C 
HETATM   23  O   UNL     1      42.430 -12.402  -1.622  1.00  0.00    -0.259 OA
BRANCH  22  24
HETATM   24  O   UNL     1      40.967 -12.437  -3.388  1.00  0.00    -0.323 OA
HETATM   25  C   UNL     1      41.624 -11.438  -4.173  1.00  0.00     0.213 C 
ENDBRANCH  22  24
ENDBRANCH  21  22
ENDBRANCH  10  12
BRANCH   4  26
HETATM   26  C   UNL     1      42.795 -18.116   2.893  1.00  0.00     0.060 A 
HETATM   27  C   UNL     1      43.640 -18.349   3.993  1.00  0.00     0.031 A 
HETATM   28  C   UNL     1      44.414 -19.510   4.063  1.00  0.00     0.002 A 
HETATM   29  C   UNL     1      44.358 -20.447   3.036  1.00  0.00     0.000 A 
HETATM   30  C   UNL     1      43.529 -20.224   1.939  1.00  0.00     0.002 A 
HETATM   31  C   UNL     1      42.749 -19.065   1.864  1.00  0.00     0.031 A 
ENDBRANCH   4  26
TORSDOF 4
ENDMDL
MODEL 5
REMARK VINA RESULT:      -7.6      2.713      4.419
REMARK  4 active torsions:
REMARK  status: ('A' for Active; 'I' for Inactive)
REMARK    1  A    between atoms: N_4  and  C_5 
REMARK    2  A    between atoms: C_16  and  C_17 
REMARK    3  A    between atoms: C_24  and  C_25 
REMARK    4  A    between atoms: C_25  and  O_26 
ROOT
HETATM    1  C   UNL     1      43.887 -17.354   1.035  1.00  0.00     0.073 C 
HETATM    2  C   UNL     1      43.406 -16.892   2.361  1.00  0.00     0.065 A 
HETATM    3  N   UNL     1      43.712 -17.577   3.463  1.00  0.00    -0.170 NA
HETATM    4  N   UNL     1      43.143 -16.879   4.495  1.00  0.00    -0.215 N 
HETATM    5  C   UNL     1      42.437 -15.772   4.021  1.00  0.00     0.165 A 
HETATM    6  C   UNL     1      42.624 -15.753   2.646  1.00  0.00     0.039 A 
HETATM    7  N   UNL     1      41.725 -14.861   4.724  1.00  0.00    -0.216 NA
HETATM    8  C   UNL     1      41.202 -13.861   3.976  1.00  0.00     0.137 A 
HETATM    9 CL   UNL     1      40.336 -12.744   4.964  1.00  0.00    -0.062 Cl
HETATM   10  C   UNL     1      41.335 -13.702   2.597  1.00  0.00     0.011 A 
HETATM   11  C   UNL     1      42.060 -14.698   1.913  1.00  0.00     0.030 A 
ENDROOT
BRANCH  10  12
HETATM   12  C   UNL     1      40.789 -12.504   1.839  1.00  0.00     0.164 C 
HETATM   13  N   UNL     1      41.901 -11.768   1.252  1.00  0.00    -0.330 N 
HETATM   14  C   UNL     1      42.237 -11.796  -0.061  1.00  0.00     0.321 C 
HETATM   15  H   UNL     1      42.608 -11.373   1.858  1.00  0.00     0.165 HD
HETATM   16  O   UNL     1      43.299 -11.335  -0.463  1.00  0.00    -0.247 OA
HETATM   17  N   UNL     1      41.317 -12.340  -0.906  1.00  0.00    -0.312 N 
HETATM   18  C   UNL     1      40.079 -12.816  -0.535  1.00  0.00     0.024 C 
HETATM   19  H   UNL     1      41.573 -12.292  -1.886  1.00  0.00     0.170 HD
HETATM   20  C   UNL     1      39.160 -13.202  -1.660  1.00  0.00     0.069 C 
HETATM   21  C   UNL     1      39.785 -12.878   0.779  1.00  0.00     0.067 C 
BRANCH  21  22
HETATM   22  C   UNL     1      38.458 -13.357   1.234  1.00  0.00     0.293 C 
HETATM   23  O   UNL     1      38.077 -14.514   1.164  1.00  0.00    -0.259 OA
BRANCH  22  24
HETATM   24  O   UNL     1      37.739 -12.311   1.708  1.00  0.00    -0.323 OA
HETATM   25  C   UNL     1      36.782 -11.790   0.783  1.00  0.00     0.213 C 
ENDBRANCH  22  24
ENDBRANCH  21  22
ENDBRANCH  10  12
BRANCH   4  26
HETATM   26  C   UNL     1      43.351 -17.320   5.839  1.00  0.00     0.060 A 
HETATM   27  C   UNL     1      43.662 -18.672   6.074  1.00  0.00     0.031 A 
HETATM   28  C   UNL     1      43.899 -19.133   7.371  1.00  0.00     0.002 A 
HETATM   29  C   UNL     1      43.823 -18.254   8.447  1.00  0.00     0.000 A 
HETATM   30  C   UNL     1      43.510 -16.914   8.227  1.00  0.00     0.002 A 
HETATM   31  C   UNL     1      43.275 -16.445   6.929  1.00  0.00     0.031 A 
ENDBRANCH   4  26
TORSDOF 4
ENDMDL
MODEL 6
REMARK VINA RESULT:      -7.5      3.004      5.158
REMARK  4 active torsions:
REMARK  status: ('A' for Active; 'I' for Inactive)
REMARK    1  A    between atoms: N_4  and  C_5 
REMARK    2  A    between atoms: C_16  and  C_17 
REMARK    3  A    between atoms: C_24  and  C_25 
REMARK    4  A    between atoms: C_25  and  O_26 
ROOT
HETATM    1  C   UNL     1      43.626 -17.762   0.742  1.00  0.00     0.073 C 
HETATM    2  C   UNL     1      43.130 -16.983   1.905  1.00  0.00     0.065 A 
HETATM    3  N   UNL     1      43.435 -17.361   3.146  1.00  0.00    -0.170 NA
HETATM    4  N   UNL     1      42.851 -16.430   3.964  1.00  0.00    -0.215 N 
HETATM    5  C   UNL     1      42.137 -15.488   3.220  1.00  0.00     0.165 A 
HETATM    6  C   UNL     1      42.335 -15.818   1.886  1.00  0.00     0.039 A 
HETATM    7  N   UNL     1      41.411 -14.436   3.664  1.00  0.00    -0.216 NA
HETATM    8  C   UNL     1      40.885 -13.666   2.684  1.00  0.00     0.137 A 
HETATM    9 CL   UNL     1      39.999 -12.344   3.350  1.00  0.00    -0.062 Cl
HETATM   10  C   UNL     1      41.027 -13.861   1.310  1.00  0.00     0.011 A 
HETATM   11  C   UNL     1      41.766 -14.990   0.906  1.00  0.00     0.030 A 
ENDROOT
BRANCH  10  12
HETATM   12  C   UNL     1      40.475 -12.902   0.269  1.00  0.00     0.164 C 
HETATM   13  N   UNL     1      41.529 -12.577  -0.681  1.00  0.00    -0.330 N 
HETATM   14  C   UNL     1      41.617 -13.078  -1.937  1.00  0.00     0.321 C 
HETATM   15  H   UNL     1      42.370 -12.122  -0.350  1.00  0.00     0.165 HD
HETATM   16  O   UNL     1      42.629 -12.942  -2.614  1.00  0.00    -0.247 OA
HETATM   17  N   UNL     1      40.510 -13.715  -2.410  1.00  0.00    -0.312 N 
HETATM   18  C   UNL     1      39.318 -13.848  -1.732  1.00  0.00     0.024 C 
HETATM   19  H   UNL     1      40.587 -14.026  -3.372  1.00  0.00     0.170 HD
HETATM   20  C   UNL     1      38.177 -14.428  -2.518  1.00  0.00     0.069 C 
HETATM   21  C   UNL     1      39.263 -13.437  -0.450  1.00  0.00     0.067 C 
BRANCH  21  22
HETATM   22  C   UNL     1      37.999 -13.531   0.320  1.00  0.00     0.293 C 
HETATM   23  O   UNL     1      37.687 -14.474   1.029  1.00  0.00    -0.259 OA
BRANCH  22  24
HETATM   24  O   UNL     1      37.247 -12.428   0.090  1.00  0.00    -0.323 OA
HETATM   25  C   UNL     1      37.156 -11.538   1.204  1.00  0.00     0.213 C 
ENDBRANCH  22  24
ENDBRANCH  21  22
ENDBRANCH  10  12
BRANCH   4  26
HETATM   26  C   UNL     1      43.053 -16.512   5.376  1.00  0.00     0.060 A 
HETATM   27  C   UNL     1      42.551 -17.625   6.075  1.00  0.00     0.031 A 
HETATM   28  C   UNL     1      42.753 -17.753   7.451  1.00  0.00     0.002 A 
HETATM   29  C   UNL     1      43.452 -16.770   8.146  1.00  0.00     0.000 A 
HETATM   30  C   UNL     1      43.948 -15.661   7.466  1.00  0.00     0.002 A 
HETATM   31  C   UNL     1      43.753 -15.528   6.086  1.00  0.00     0.031 A 
ENDBRANCH   4  26
TORSDOF 4
ENDMDL
MODEL 7
REMARK VINA RESULT:      -7.5      2.932      6.975
REMARK  4 active torsions:
REMARK  status: ('A' for Active; 'I' for Inactive)
REMARK    1  A    between atoms: N_4  and  C_5 
REMARK    2  A    between atoms: C_16  and  C_17 
REMARK    3  A    between atoms: C_24  and  C_25 
REMARK    4  A    between atoms: C_25  and  O_26 
ROOT
HETATM    1  C   UNL     1      39.057 -12.324   3.127  1.00  0.00     0.073 C 
HETATM    2  C   UNL     1      39.698 -13.238   2.149  1.00  0.00     0.065 A 
HETATM    3  N   UNL     1      39.223 -13.333   0.907  1.00  0.00    -0.170 NA
HETATM    4  N   UNL     1      40.043 -14.227   0.271  1.00  0.00    -0.215 N 
HETATM    5  C   UNL     1      41.011 -14.727   1.144  1.00  0.00     0.165 A 
HETATM    6  C   UNL     1      40.817 -14.073   2.353  1.00  0.00     0.039 A 
HETATM    7  N   UNL     1      41.978 -15.641   0.899  1.00  0.00    -0.216 NA
HETATM    8  C   UNL     1      42.807 -15.873   1.943  1.00  0.00     0.137 A 
HETATM    9 CL   UNL     1      44.013 -17.032   1.523  1.00  0.00    -0.062 Cl
HETATM   10  C   UNL     1      42.747 -15.269   3.198  1.00  0.00     0.011 A 
HETATM   11  C   UNL     1      41.700 -14.349   3.408  1.00  0.00     0.030 A 
ENDROOT
BRANCH  10  12
HETATM   12  C   UNL     1      43.768 -15.520   4.295  1.00  0.00     0.164 C 
HETATM   13  N   UNL     1      43.978 -14.285   5.038  1.00  0.00    -0.330 N 
HETATM   14  C   UNL     1      43.478 -14.032   6.271  1.00  0.00     0.321 C 
HETATM   15  H   UNL     1      44.334 -13.471   4.553  1.00  0.00     0.165 HD
HETATM   16  O   UNL     1      43.503 -12.908   6.757  1.00  0.00    -0.247 OA
HETATM   17  N   UNL     1      42.972 -15.102   6.946  1.00  0.00    -0.312 N 
HETATM   18  C   UNL     1      42.970 -16.401   6.491  1.00  0.00     0.024 C 
HETATM   19  H   UNL     1      42.659 -14.890   7.888  1.00  0.00     0.170 HD
HETATM   20  C   UNL     1      42.526 -17.443   7.479  1.00  0.00     0.069 C 
HETATM   21  C   UNL     1      43.377 -16.637   5.228  1.00  0.00     0.067 C 
BRANCH  21  22
HETATM   22  C   UNL     1      43.420 -18.019   4.694  1.00  0.00     0.293 C 
HETATM   23  O   UNL     1      42.473 -18.597   4.187  1.00  0.00    -0.259 OA
BRANCH  22  24
HETATM   24  O   UNL     1      44.658 -18.537   4.883  1.00  0.00    -0.323 OA
HETATM   25  C   UNL     1      44.680 -19.957   5.049  1.00  0.00     0.213 C 
ENDBRANCH  22  24
ENDBRANCH  21  22
ENDBRANCH  10  12
BRANCH   4  26
HETATM   26  C   UNL     1      39.841 -14.499  -1.118  1.00  0.00     0.060 A 
HETATM   27  C   UNL     1      40.812 -15.237  -1.818  1.00  0.00     0.031 A 
HETATM   28  C   UNL     1      40.636 -15.545  -3.169  1.00  0.00     0.002 A 
HETATM   29  C   UNL     1      39.493 -15.116  -3.837  1.00  0.00     0.000 A 
HETATM   30  C   UNL     1      38.527 -14.379  -3.155  1.00  0.00     0.002 A 
HETATM   31  C   UNL     1      38.696 -14.070  -1.801  1.00  0.00     0.031 A 
ENDBRANCH   4  26
TORSDOF 4
ENDMDL
MODEL 8
REMARK VINA RESULT:      -7.2      2.981      7.802
REMARK  4 active torsions:
REMARK  status: ('A' for Active; 'I' for Inactive)
REMARK    1  A    between atoms: N_4  and  C_5 
REMARK    2  A    between atoms: C_16  and  C_17 
REMARK    3  A    between atoms: C_24  and  C_25 
REMARK    4  A    between atoms: C_25  and  O_26 
ROOT
HETATM    1  C   UNL     1      39.449 -11.321   7.005  1.00  0.00     0.073 C 
HETATM    2  C   UNL     1      39.480 -11.810   5.604  1.00  0.00     0.065 A 
HETATM    3  N   UNL     1      38.573 -11.384   4.724  1.00  0.00    -0.170 NA
HETATM    4  N   UNL     1      38.897 -12.000   3.543  1.00  0.00    -0.215 N 
HETATM    5  C   UNL     1      39.990 -12.852   3.706  1.00  0.00     0.165 A 
HETATM    6  C   UNL     1      40.395 -12.716   5.027  1.00  0.00     0.039 A 
HETATM    7  N   UNL     1      40.586 -13.646   2.786  1.00  0.00    -0.216 NA
HETATM    8  C   UNL     1      41.672 -14.312   3.241  1.00  0.00     0.137 A 
HETATM    9 CL   UNL     1      42.370 -15.275   1.991  1.00  0.00    -0.062 Cl
HETATM   10  C   UNL     1      42.205 -14.247   4.528  1.00  0.00     0.011 A 
HETATM   11  C   UNL     1      41.525 -13.429   5.453  1.00  0.00     0.030 A 
ENDROOT
BRANCH  10  12
HETATM   12  C   UNL     1      43.481 -14.961   4.940  1.00  0.00     0.164 C 
HETATM   13  N   UNL     1      44.282 -14.063   5.762  1.00  0.00    -0.330 N 
HETATM   14  C   UNL     1      44.406 -14.155   7.109  1.00  0.00     0.321 C 
HETATM   15  H   UNL     1      44.606 -13.190   5.368  1.00  0.00     0.165 HD
HETATM   16  O   UNL     1      44.912 -13.256   7.770  1.00  0.00    -0.247 OA
HETATM   17  N   UNL     1      43.961 -15.310   7.677  1.00  0.00    -0.312 N 
HETATM   18  C   UNL     1      43.443 -16.386   6.991  1.00  0.00     0.024 C 
HETATM   19  H   UNL     1      44.121 -15.371   8.676  1.00  0.00     0.170 HD
HETATM   20  C   UNL     1      43.186 -17.622   7.806  1.00  0.00     0.069 C 
HETATM   21  C   UNL     1      43.229 -16.258   5.666  1.00  0.00     0.067 C 
BRANCH  21  22
HETATM   22  C   UNL     1      42.698 -17.392   4.874  1.00  0.00     0.293 C 
HETATM   23  O   UNL     1      41.542 -17.781   4.907  1.00  0.00    -0.259 OA
BRANCH  22  24
HETATM   24  O   UNL     1      43.698 -17.935   4.137  1.00  0.00    -0.323 OA
HETATM   25  C   UNL     1      44.107 -19.234   4.572  1.00  0.00     0.213 C 
ENDBRANCH  22  24
ENDBRANCH  21  22
ENDBRANCH  10  12
BRANCH   4  26
HETATM   26  C   UNL     1      38.147 -11.693   2.365  1.00  0.00     0.060 A 
HETATM   27  C   UNL     1      37.895 -12.715   1.431  1.00  0.00     0.031 A 
HETATM   28  C   UNL     1      37.143 -12.459   0.282  1.00  0.00     0.002 A 
HETATM   29  C   UNL     1      36.640 -11.183   0.050  1.00  0.00     0.000 A 
HETATM   30  C   UNL     1      36.888 -10.162   0.965  1.00  0.00     0.002 A 
HETATM   31  C   UNL     1      37.638 -10.412   2.120  1.00  0.00     0.031 A 
ENDBRANCH   4  26
TORSDOF 4
ENDMDL
MODEL 9
REMARK VINA RESULT:      -7.0      6.252      9.533
REMARK  4 active torsions:
REMARK  status: ('A' for Active; 'I' for Inactive)
REMARK    1  A    between atoms: N_4  and  C_5 
REMARK    2  A    between atoms: C_16  and  C_17 
REMARK    3  A    between atoms: C_24  and  C_25 
REMARK    4  A    between atoms: C_25  and  O_26 
ROOT
HETATM    1  C   UNL     1      44.967 -11.844   8.867  1.00  0.00     0.073 C 
HETATM    2  C   UNL     1      43.852 -11.241   9.639  1.00  0.00     0.065 A 
HETATM    3  N   UNL     1      43.950 -11.099  10.961  1.00  0.00    -0.170 NA
HETATM    4  N   UNL     1      42.780 -10.500  11.349  1.00  0.00    -0.215 N 
HETATM    5  C   UNL     1      41.928 -10.311  10.259  1.00  0.00     0.165 A 
HETATM    6  C   UNL     1      42.622 -10.759   9.143  1.00  0.00     0.039 A 
HETATM    7  N   UNL     1      40.685  -9.778  10.242  1.00  0.00    -0.216 NA
HETATM    8  C   UNL     1      40.137  -9.674   9.009  1.00  0.00     0.137 A 
HETATM    9 CL   UNL     1      38.567  -8.965   9.092  1.00  0.00    -0.062 Cl
HETATM   10  C   UNL     1      40.729 -10.054   7.805  1.00  0.00     0.011 A 
HETATM   11  C   UNL     1      42.011 -10.633   7.886  1.00  0.00     0.030 A 
ENDROOT
BRANCH  10  12
HETATM   12  C   UNL     1      40.083  -9.827   6.449  1.00  0.00     0.164 C 
HETATM   13  N   UNL     1      40.606  -8.593   5.877  1.00  0.00    -0.330 N 
HETATM   14  C   UNL     1      41.520  -8.533   4.878  1.00  0.00     0.321 C 
HETATM   15  H   UNL     1      40.460  -7.720   6.367  1.00  0.00     0.165 HD
HETATM   16  O   UNL     1      42.080  -7.484   4.582  1.00  0.00    -0.247 OA
HETATM   17  N   UNL     1      41.756  -9.695   4.207  1.00  0.00    -0.312 N 
HETATM   18  C   UNL     1      41.117 -10.892   4.440  1.00  0.00     0.024 C 
HETATM   19  H   UNL     1      42.400  -9.603   3.429  1.00  0.00     0.170 HD
HETATM   20  C   UNL     1      41.407 -11.993   3.459  1.00  0.00     0.069 C 
HETATM   21  C   UNL     1      40.281 -10.977   5.494  1.00  0.00     0.067 C 
BRANCH  21  22
HETATM   22  C   UNL     1      39.546 -12.232   5.777  1.00  0.00     0.293 C 
HETATM   23  O   UNL     1      38.344 -12.380   5.632  1.00  0.00    -0.259 OA
BRANCH  22  24
HETATM   24  O   UNL     1      40.411 -13.167   6.240  1.00  0.00    -0.323 OA
HETATM   25  C   UNL     1      40.186 -14.481   5.724  1.00  0.00     0.213 C 
ENDBRANCH  22  24
ENDBRANCH  21  22
ENDBRANCH  10  12
BRANCH   4  26
HETATM   26  C   UNL     1      42.599 -10.141  12.720  1.00  0.00     0.060 A 
HETATM   27  C   UNL     1      43.472  -9.204  13.302  1.00  0.00     0.031 A 
HETATM   28  C   UNL     1      43.308  -8.807  14.632  1.00  0.00     0.002 A 
HETATM   29  C   UNL     1      42.277  -9.345  15.396  1.00  0.00     0.000 A 
HETATM   30  C   UNL     1      41.410 -10.278  14.832  1.00  0.00     0.002 A 
HETATM   31  C   UNL     1      41.566 -10.677  13.500  1.00  0.00     0.031 A 
ENDBRANCH   4  26
TORSDOF 4
ENDMDL
MODEL 10
REMARK VINA RESULT:      -7.0      3.729      7.388
REMARK  4 active torsions:
REMARK  status: ('A' for Active; 'I' for Inactive)
REMARK    1  A    between atoms: N_4  and  C_5 
REMARK    2  A    between atoms: C_16  and  C_17 
REMARK    3  A    between atoms: C_24  and  C_25 
REMARK    4  A    between atoms: C_25  and  O_26 
ROOT
HETATM    1  C   UNL     1      40.158  -9.454   3.300  1.00  0.00     0.073 C 
HETATM    2  C   UNL     1      40.394 -10.399   4.421  1.00  0.00     0.065 A 
HETATM    3  N   UNL     1      40.614  -9.938   5.653  1.00  0.00    -0.170 NA
HETATM    4  N   UNL     1      40.767 -11.052   6.435  1.00  0.00    -0.215 N 
HETATM    5  C   UNL     1      40.686 -12.217   5.669  1.00  0.00     0.165 A 
HETATM    6  C   UNL     1      40.417 -11.809   4.370  1.00  0.00     0.039 A 
HETATM    7  N   UNL     1      40.811 -13.502   6.072  1.00  0.00    -0.216 NA
HETATM    8  C   UNL     1      40.619 -14.417   5.094  1.00  0.00     0.137 A 
HETATM    9 CL   UNL     1      40.777 -16.020   5.712  1.00  0.00    -0.062 Cl
HETATM   10  C   UNL     1      40.314 -14.151   3.759  1.00  0.00     0.011 A 
HETATM   11  C   UNL     1      40.229 -12.794   3.389  1.00  0.00     0.030 A 
ENDROOT
BRANCH  10  12
HETATM   12  C   UNL     1      40.029 -15.237   2.736  1.00  0.00     0.164 C 
HETATM   13  N   UNL     1      38.665 -15.081   2.249  1.00  0.00    -0.330 N 
HETATM   14  C   UNL     1      38.332 -14.570   1.038  1.00  0.00     0.321 C 
HETATM   15  H   UNL     1      37.896 -15.152   2.902  1.00  0.00     0.165 HD
HETATM   16  O   UNL     1      37.177 -14.264   0.766  1.00  0.00    -0.247 OA
HETATM   17  N   UNL     1      39.347 -14.442   0.139  1.00  0.00    -0.312 N 
HETATM   18  C   UNL     1      40.652 -14.825   0.353  1.00  0.00     0.024 C 
HETATM   19  H   UNL     1      39.055 -14.112  -0.774  1.00  0.00     0.170 HD
HETATM   20  C   UNL     1      41.561 -14.757  -0.843  1.00  0.00     0.069 C 
HETATM   21  C   UNL     1      41.003 -15.241   1.586  1.00  0.00     0.067 C 
BRANCH  21  22
HETATM   22  C   UNL     1      42.388 -15.690   1.865  1.00  0.00     0.293 C 
HETATM   23  O   UNL     1      43.261 -14.987   2.347  1.00  0.00    -0.259 OA
BRANCH  22  24
HETATM   24  O   UNL     1      42.530 -16.981   1.481  1.00  0.00    -0.323 OA
HETATM   25  C   UNL     1      43.883 -17.377   1.246  1.00  0.00     0.213 C 
ENDBRANCH  22  24
ENDBRANCH  21  22
ENDBRANCH  10  12
BRANCH   4  26
HETATM   26  C   UNL     1      40.948 -10.899   7.845  1.00  0.00     0.060 A 
HETATM   27  C   UNL     1      39.833 -11.021   8.694  1.00  0.00     0.031 A 
HETATM   28  C   UNL     1      39.976 -10.905  10.078  1.00  0.00     0.002 A 
HETATM   29  C   UNL     1      41.230 -10.660  10.630  1.00  0.00     0.000 A 
HETATM   30  C   UNL     1      42.340 -10.532   9.799  1.00  0.00     0.002 A 
HETATM   31  C   UNL     1      42.204 -10.651   8.411  1.00  0.00     0.031 A 
ENDBRANCH   4  26
TORSDOF 4
ENDMDL
