MODEL 1
REMARK VINA RESULT:      -7.5      0.000      0.000
REMARK  8 active torsions:
REMARK  status: ('A' for Active; 'I' for Inactive)
REMARK    1  A    between atoms: C_2  and  N_3 
REMARK    2  A    between atoms: N_3  and  C_5 
REMARK    3  A    between atoms: N_3  and  C_29 
REMARK    4  A    between atoms: C_5  and  C_6 
REMARK    5  A    between atoms: C_6  and  N_7 
REMARK       I    between atoms: N_7  and  C_8 
REMARK    6  A    between atoms: C_8  and  C_9 
REMARK    7  A    between atoms: C_9  and  O_10 
REMARK    8  A    between atoms: N_11  and  C_12 
ROOT
HETATM    1  C   UNL     1      41.369 -15.299   3.948  1.00  0.00     0.256 C 
HETATM    2  N   UNL     1      41.334 -14.101   3.101  1.00  0.00    -0.254 N 
HETATM    3  C   UNL     1      42.518 -13.441   2.815  1.00  0.00     0.330 C 
HETATM    4  O   UNL     1      42.694 -12.710   1.840  1.00  0.00    -0.246 OA
HETATM    5  N   UNL     1      43.563 -13.628   3.676  1.00  0.00    -0.308 N 
HETATM    6  C   UNL     1      43.491 -14.352   4.860  1.00  0.00     0.048 A 
HETATM    7  C   UNL     1      42.388 -15.178   5.065  1.00  0.00     0.034 A 
HETATM    8  C   UNL     1      44.524 -14.274   5.791  1.00  0.00     0.030 A 
HETATM    9  C   UNL     1      44.449 -15.027   6.961  1.00  0.00     0.002 A 
HETATM   10  C   UNL     1      43.351 -15.855   7.189  1.00  0.00     0.001 A 
HETATM   11  C   UNL     1      42.327 -15.937   6.245  1.00  0.00     0.015 A 
HETATM   12  H   UNL     1      44.354 -13.015   3.509  1.00  0.00     0.170 HD
ENDROOT
BRANCH   1  13
HETATM   13  C   UNL     1      41.700 -16.557   3.029  1.00  0.00     0.279 C 
HETATM   14  N   UNL     1      42.474 -16.361   1.889  1.00  0.00    -0.355 N 
HETATM   15  H   UNL     1      43.041 -15.516   1.884  1.00  0.00     0.162 HD
HETATM   16  O   UNL     1      41.222 -17.672   3.255  1.00  0.00    -0.268 OA
BRANCH  14  17
HETATM   17  C   UNL     1      43.049 -17.514   1.201  1.00  0.00     0.150 C 
BRANCH  17  18
HETATM   18  C   UNL     1      44.192 -18.200   1.969  1.00  0.00     0.254 C 
BRANCH  18  19
HETATM   19  N   UNL     1      43.695 -19.434   2.719  1.00  0.00    -0.070 N 
HETATM   20  H   UNL     1      42.779 -19.148   3.100  1.00  0.00     0.279 HD
BRANCH  19  21
HETATM   21  C   UNL     1      44.562 -19.778   3.916  1.00  0.00     0.230 C 
HETATM   22  C   UNL     1      44.388 -18.750   5.020  1.00  0.00     0.034 C 
ENDBRANCH  19  21
BRANCH  19  23
HETATM   23  C   UNL     1      43.397 -20.640   1.853  1.00  0.00     0.230 C 
HETATM   24  C   UNL     1      44.232 -21.852   2.229  1.00  0.00     0.034 C 
ENDBRANCH  19  23
ENDBRANCH  18  19
ENDBRANCH  17  18
ENDBRANCH  14  17
ENDBRANCH   1  13
BRANCH   1  25
HETATM   25  O   UNL     1      40.109 -15.481   4.589  1.00  0.00    -0.359 OA
HETATM   26  H   UNL     1      39.883 -16.423   4.503  1.00  0.00     0.213 HD
ENDBRANCH   1  25
BRANCH   2  27
HETATM   27  C   UNL     1      40.114 -13.600   2.541  1.00  0.00     0.043 A 
HETATM   28  C   UNL     1      39.498 -12.423   2.986  1.00  0.00     0.031 A 
HETATM   29  C   UNL     1      38.337 -11.944   2.363  1.00  0.00     0.026 A 
HETATM   30  C   UNL     1      37.789 -12.631   1.284  1.00  0.00     0.034 A 
HETATM   31 CL   UNL     1      36.380 -12.024   0.509  1.00  0.00    -0.084 Cl
HETATM   32  C   UNL     1      38.378 -13.807   0.834  1.00  0.00     0.026 A 
HETATM   33  C   UNL     1      39.525 -14.293   1.469  1.00  0.00     0.031 A 
ENDBRANCH   2  27
TORSDOF 8
ENDMDL
MODEL 2
REMARK VINA RESULT:      -7.4      3.446      6.675
REMARK  8 active torsions:
REMARK  status: ('A' for Active; 'I' for Inactive)
REMARK    1  A    between atoms: C_2  and  N_3 
REMARK    2  A    between atoms: N_3  and  C_5 
REMARK    3  A    between atoms: N_3  and  C_29 
REMARK    4  A    between atoms: C_5  and  C_6 
REMARK    5  A    between atoms: C_6  and  N_7 
REMARK       I    between atoms: N_7  and  C_8 
REMARK    6  A    between atoms: C_8  and  C_9 
REMARK    7  A    between atoms: C_9  and  O_10 
REMARK    8  A    between atoms: N_11  and  C_12 
ROOT
HETATM    1  C   UNL     1      41.864 -14.633   4.121  1.00  0.00     0.256 C 
HETATM    2  N   UNL     1      41.779 -15.811   4.992  1.00  0.00    -0.254 N 
HETATM    3  C   UNL     1      40.743 -15.901   5.908  1.00  0.00     0.330 C 
HETATM    4  O   UNL     1      40.324 -16.953   6.388  1.00  0.00    -0.246 OA
HETATM    5  N   UNL     1      40.142 -14.735   6.290  1.00  0.00    -0.308 N 
HETATM    6  C   UNL     1      40.558 -13.467   5.900  1.00  0.00     0.048 A 
HETATM    7  C   UNL     1      41.455 -13.361   4.840  1.00  0.00     0.034 A 
HETATM    8  C   UNL     1      40.050 -12.338   6.538  1.00  0.00     0.030 A 
HETATM    9  C   UNL     1      40.457 -11.073   6.117  1.00  0.00     0.002 A 
HETATM   10  C   UNL     1      41.359 -10.945   5.062  1.00  0.00     0.001 A 
HETATM   11  C   UNL     1      41.853 -12.081   4.421  1.00  0.00     0.015 A 
HETATM   12  H   UNL     1      39.494 -14.835   7.063  1.00  0.00     0.170 HD
ENDROOT
BRANCH   1  13
HETATM   13  C   UNL     1      40.933 -14.877   2.852  1.00  0.00     0.279 C 
HETATM   14  N   UNL     1      41.524 -14.910   1.592  1.00  0.00    -0.355 N 
HETATM   15  H   UNL     1      42.523 -15.099   1.581  1.00  0.00     0.162 HD
HETATM   16  O   UNL     1      39.705 -14.951   2.950  1.00  0.00    -0.268 OA
BRANCH  14  17
HETATM   17  C   UNL     1      40.766 -15.429   0.455  1.00  0.00     0.150 C 
BRANCH  17  18
HETATM   18  C   UNL     1      40.552 -14.409  -0.677  1.00  0.00     0.254 C 
BRANCH  18  19
HETATM   19  N   UNL     1      39.113 -14.441  -1.187  1.00  0.00    -0.070 N 
HETATM   20  H   UNL     1      38.758 -15.363  -0.889  1.00  0.00     0.279 HD
BRANCH  19  21
HETATM   21  C   UNL     1      39.031 -14.428  -2.702  1.00  0.00     0.230 C 
HETATM   22  C   UNL     1      37.644 -14.832  -3.170  1.00  0.00     0.034 C 
ENDBRANCH  19  21
BRANCH  19  23
HETATM   23  C   UNL     1      38.178 -13.438  -0.547  1.00  0.00     0.230 C 
HETATM   24  C   UNL     1      37.382 -14.028   0.604  1.00  0.00     0.034 C 
ENDBRANCH  19  23
ENDBRANCH  18  19
ENDBRANCH  17  18
ENDBRANCH  14  17
ENDBRANCH   1  13
BRANCH   1  25
HETATM   25  O   UNL     1      43.212 -14.428   3.705  1.00  0.00    -0.359 OA
HETATM   26  H   UNL     1      43.659 -13.947   4.422  1.00  0.00     0.213 HD
ENDBRANCH   1  25
BRANCH   2  27
HETATM   27  C   UNL     1      42.724 -16.884   4.915  1.00  0.00     0.043 A 
HETATM   28  C   UNL     1      43.748 -17.068   5.853  1.00  0.00     0.031 A 
HETATM   29  C   UNL     1      44.609 -18.171   5.766  1.00  0.00     0.026 A 
HETATM   30  C   UNL     1      44.448 -19.105   4.746  1.00  0.00     0.034 A 
HETATM   31 CL   UNL     1      45.491 -20.467   4.659  1.00  0.00    -0.084 Cl
HETATM   32  C   UNL     1      43.445 -18.935   3.798  1.00  0.00     0.026 A 
HETATM   33  C   UNL     1      42.599 -17.824   3.876  1.00  0.00     0.031 A 
ENDBRANCH   2  27
TORSDOF 8
ENDMDL
MODEL 3
REMARK VINA RESULT:      -7.3      2.443      3.240
REMARK  8 active torsions:
REMARK  status: ('A' for Active; 'I' for Inactive)
REMARK    1  A    between atoms: C_2  and  N_3 
REMARK    2  A    between atoms: N_3  and  C_5 
REMARK    3  A    between atoms: N_3  and  C_29 
REMARK    4  A    between atoms: C_5  and  C_6 
REMARK    5  A    between atoms: C_6  and  N_7 
REMARK       I    between atoms: N_7  and  C_8 
REMARK    6  A    between atoms: C_8  and  C_9 
REMARK    7  A    between atoms: C_9  and  O_10 
REMARK    8  A    between atoms: N_11  and  C_12 
ROOT
HETATM    1  C   UNL     1      41.116 -14.866   2.086  1.00  0.00     0.256 C 
HETATM    2  N   UNL     1      41.233 -13.952   0.943  1.00  0.00    -0.254 N 
HETATM    3  C   UNL     1      41.975 -12.790   1.080  1.00  0.00     0.330 C 
HETATM    4  O   UNL     1      42.480 -12.168   0.146  1.00  0.00    -0.246 OA
HETATM    5  N   UNL     1      42.163 -12.314   2.347  1.00  0.00    -0.308 N 
HETATM    6  C   UNL     1      41.587 -12.856   3.489  1.00  0.00     0.048 A 
HETATM    7  C   UNL     1      41.010 -14.122   3.403  1.00  0.00     0.034 A 
HETATM    8  C   UNL     1      41.627 -12.157   4.693  1.00  0.00     0.030 A 
HETATM    9  C   UNL     1      41.068 -12.727   5.836  1.00  0.00     0.002 A 
HETATM   10  C   UNL     1      40.480 -13.989   5.769  1.00  0.00     0.001 A 
HETATM   11  C   UNL     1      40.455 -14.688   4.562  1.00  0.00     0.015 A 
HETATM   12  H   UNL     1      42.583 -11.391   2.386  1.00  0.00     0.170 HD
ENDROOT
BRANCH   1  13
HETATM   13  C   UNL     1      42.386 -15.828   2.093  1.00  0.00     0.279 C 
HETATM   14  N   UNL     1      42.272 -17.082   1.501  1.00  0.00    -0.355 N 
HETATM   15  H   UNL     1      41.514 -17.184   0.831  1.00  0.00     0.162 HD
HETATM   16  O   UNL     1      43.429 -15.524   2.678  1.00  0.00    -0.268 OA
BRANCH  14  17
HETATM   17  C   UNL     1      43.478 -17.857   1.218  1.00  0.00     0.150 C 
BRANCH  17  18
HETATM   18  C   UNL     1      43.418 -19.315   1.705  1.00  0.00     0.254 C 
BRANCH  18  19
HETATM   19  N   UNL     1      44.347 -19.541   2.896  1.00  0.00    -0.070 N 
HETATM   20  H   UNL     1      45.221 -19.060   2.631  1.00  0.00     0.279 HD
BRANCH  19  21
HETATM   21  C   UNL     1      44.711 -21.002   3.084  1.00  0.00     0.230 C 
HETATM   22  C   UNL     1      44.066 -21.861   2.011  1.00  0.00     0.034 C 
ENDBRANCH  19  21
BRANCH  19  23
HETATM   23  C   UNL     1      43.915 -18.880   4.187  1.00  0.00     0.230 C 
HETATM   24  C   UNL     1      44.789 -19.269   5.366  1.00  0.00     0.034 C 
ENDBRANCH  19  23
ENDBRANCH  18  19
ENDBRANCH  17  18
ENDBRANCH  14  17
ENDBRANCH   1  13
BRANCH   1  25
HETATM   25  O   UNL     1      39.921 -15.636   1.976  1.00  0.00    -0.359 OA
HETATM   26  H   UNL     1      39.339 -15.357   2.702  1.00  0.00     0.213 HD
ENDBRANCH   1  25
BRANCH   2  27
HETATM   27  C   UNL     1      40.619 -14.231  -0.321  1.00  0.00     0.043 A 
HETATM   28  C   UNL     1      41.177 -15.102  -1.265  1.00  0.00     0.031 A 
HETATM   29  C   UNL     1      40.505 -15.388  -2.461  1.00  0.00     0.026 A 
HETATM   30  C   UNL     1      39.263 -14.812  -2.719  1.00  0.00     0.034 A 
HETATM   31 CL   UNL     1      38.433 -15.186  -4.176  1.00  0.00    -0.084 Cl
HETATM   32  C   UNL     1      38.697 -13.936  -1.801  1.00  0.00     0.026 A 
HETATM   33  C   UNL     1      39.378 -13.638  -0.616  1.00  0.00     0.031 A 
ENDBRANCH   2  27
TORSDOF 8
ENDMDL
MODEL 4
REMARK VINA RESULT:      -7.2      2.869      5.127
REMARK  8 active torsions:
REMARK  status: ('A' for Active; 'I' for Inactive)
REMARK    1  A    between atoms: C_2  and  N_3 
REMARK    2  A    between atoms: N_3  and  C_5 
REMARK    3  A    between atoms: N_3  and  C_29 
REMARK    4  A    between atoms: C_5  and  C_6 
REMARK    5  A    between atoms: C_6  and  N_7 
REMARK       I    between atoms: N_7  and  C_8 
REMARK    6  A    between atoms: C_8  and  C_9 
REMARK    7  A    between atoms: C_9  and  O_10 
REMARK    8  A    between atoms: N_11  and  C_12 
ROOT
HETATM    1  C   UNL     1      41.037 -14.244   0.719  1.00  0.00     0.256 C 
HETATM    2  N   UNL     1      39.734 -14.055   1.368  1.00  0.00    -0.254 N 
HETATM    3  C   UNL     1      38.577 -14.284   0.641  1.00  0.00     0.330 C 
HETATM    4  O   UNL     1      37.483 -14.555   1.134  1.00  0.00    -0.246 OA
HETATM    5  N   UNL     1      38.670 -14.213  -0.721  1.00  0.00    -0.308 N 
HETATM    6  C   UNL     1      39.812 -13.836  -1.417  1.00  0.00     0.048 A 
HETATM    7  C   UNL     1      41.023 -13.796  -0.729  1.00  0.00     0.034 A 
HETATM    8  C   UNL     1      39.738 -13.546  -2.778  1.00  0.00     0.030 A 
HETATM    9  C   UNL     1      40.898 -13.195  -3.467  1.00  0.00     0.002 A 
HETATM   10  C   UNL     1      42.119 -13.143  -2.796  1.00  0.00     0.001 A 
HETATM   11  C   UNL     1      42.185 -13.447  -1.436  1.00  0.00     0.015 A 
HETATM   12  H   UNL     1      37.776 -14.242  -1.200  1.00  0.00     0.170 HD
ENDROOT
BRANCH   1  13
HETATM   13  C   UNL     1      41.430 -15.785   0.819  1.00  0.00     0.279 C 
HETATM   14  N   UNL     1      42.741 -16.155   0.536  1.00  0.00    -0.355 N 
HETATM   15  H   UNL     1      43.431 -15.410   0.600  1.00  0.00     0.162 HD
HETATM   16  O   UNL     1      40.590 -16.657   1.057  1.00  0.00    -0.268 OA
BRANCH  14  17
HETATM   17  C   UNL     1      43.210 -17.487   0.910  1.00  0.00     0.150 C 
BRANCH  17  18
HETATM   18  C   UNL     1      43.837 -17.564   2.313  1.00  0.00     0.254 C 
BRANCH  18  19
HETATM   19  N   UNL     1      43.395 -18.826   3.050  1.00  0.00    -0.070 N 
HETATM   20  H   UNL     1      42.535 -19.119   2.561  1.00  0.00     0.279 HD
BRANCH  19  21
HETATM   21  C   UNL     1      42.992 -18.553   4.487  1.00  0.00     0.230 C 
HETATM   22  C   UNL     1      41.708 -17.743   4.541  1.00  0.00     0.034 C 
ENDBRANCH  19  21
BRANCH  19  23
HETATM   23  C   UNL     1      44.334 -20.008   2.927  1.00  0.00     0.230 C 
HETATM   24  C   UNL     1      43.824 -21.063   1.961  1.00  0.00     0.034 C 
ENDBRANCH  19  23
ENDBRANCH  18  19
ENDBRANCH  17  18
ENDBRANCH  14  17
ENDBRANCH   1  13
BRANCH   1  25
HETATM   25  O   UNL     1      42.025 -13.445   1.364  1.00  0.00    -0.359 OA
HETATM   26  H   UNL     1      42.536 -14.039   1.939  1.00  0.00     0.213 HD
ENDBRANCH   1  25
BRANCH   2  27
HETATM   27  C   UNL     1      39.617 -13.658   2.739  1.00  0.00     0.043 A 
HETATM   28  C   UNL     1      39.938 -14.503   3.809  1.00  0.00     0.031 A 
HETATM   29  C   UNL     1      39.864 -14.044   5.131  1.00  0.00     0.026 A 
HETATM   30  C   UNL     1      39.478 -12.732   5.395  1.00  0.00     0.034 A 
HETATM   31 CL   UNL     1      39.413 -12.169   7.017  1.00  0.00    -0.084 Cl
HETATM   32  C   UNL     1      39.143 -11.881   4.349  1.00  0.00     0.026 A 
HETATM   33  C   UNL     1      39.200 -12.347   3.031  1.00  0.00     0.031 A 
ENDBRANCH   2  27
TORSDOF 8
ENDMDL
MODEL 5
REMARK VINA RESULT:      -6.9      3.107      6.317
REMARK  8 active torsions:
REMARK  status: ('A' for Active; 'I' for Inactive)
REMARK    1  A    between atoms: C_2  and  N_3 
REMARK    2  A    between atoms: N_3  and  C_5 
REMARK    3  A    between atoms: N_3  and  C_29 
REMARK    4  A    between atoms: C_5  and  C_6 
REMARK    5  A    between atoms: C_6  and  N_7 
REMARK       I    between atoms: N_7  and  C_8 
REMARK    6  A    between atoms: C_8  and  C_9 
REMARK    7  A    between atoms: C_9  and  O_10 
REMARK    8  A    between atoms: N_11  and  C_12 
ROOT
HETATM    1  C   UNL     1      42.896 -14.556   3.928  1.00  0.00     0.256 C 
HETATM    2  N   UNL     1      41.572 -13.952   4.125  1.00  0.00    -0.254 N 
HETATM    3  C   UNL     1      40.468 -14.778   4.270  1.00  0.00     0.330 C 
HETATM    4  O   UNL     1      39.419 -14.451   4.823  1.00  0.00    -0.246 OA
HETATM    5  N   UNL     1      40.565 -16.046   3.769  1.00  0.00    -0.308 N 
HETATM    6  C   UNL     1      41.649 -16.530   3.047  1.00  0.00     0.048 A 
HETATM    7  C   UNL     1      42.834 -15.797   3.060  1.00  0.00     0.034 A 
HETATM    8  C   UNL     1      41.549 -17.740   2.363  1.00  0.00     0.030 A 
HETATM    9  C   UNL     1      42.654 -18.224   1.665  1.00  0.00     0.002 A 
HETATM   10  C   UNL     1      43.847 -17.504   1.660  1.00  0.00     0.001 A 
HETATM   11  C   UNL     1      43.942 -16.299   2.358  1.00  0.00     0.015 A 
HETATM   12  H   UNL     1      39.690 -16.560   3.768  1.00  0.00     0.170 HD
ENDROOT
BRANCH   1  13
HETATM   13  C   UNL     1      43.506 -14.907   5.357  1.00  0.00     0.279 C 
HETATM   14  N   UNL     1      44.264 -13.941   6.011  1.00  0.00    -0.355 N 
HETATM   15  H   UNL     1      44.117 -12.984   5.701  1.00  0.00     0.162 HD
HETATM   16  O   UNL     1      43.393 -16.032   5.854  1.00  0.00    -0.268 OA
BRANCH  14  17
HETATM   17  C   UNL     1      44.575 -14.108   7.429  1.00  0.00     0.150 C 
BRANCH  17  18
HETATM   18  C   UNL     1      44.964 -12.804   8.146  1.00  0.00     0.254 C 
BRANCH  18  19
HETATM   19  N   UNL     1      43.883 -12.371   9.135  1.00  0.00    -0.070 N 
HETATM   20  H   UNL     1      43.190 -13.135   9.104  1.00  0.00     0.279 HD
BRANCH  19  21
HETATM   21  C   UNL     1      43.151 -11.119   8.689  1.00  0.00     0.230 C 
HETATM   22  C   UNL     1      42.124 -10.697   9.725  1.00  0.00     0.034 C 
ENDBRANCH  19  21
BRANCH  19  23
HETATM   23  C   UNL     1      44.323 -12.301  10.582  1.00  0.00     0.230 C 
HETATM   24  C   UNL     1      45.561 -11.444  10.778  1.00  0.00     0.034 C 
ENDBRANCH  19  23
ENDBRANCH  18  19
ENDBRANCH  17  18
ENDBRANCH  14  17
ENDBRANCH   1  13
BRANCH   1  25
HETATM   25  O   UNL     1      43.751 -13.644   3.243  1.00  0.00    -0.359 OA
HETATM   26  H   UNL     1      44.502 -13.465   3.833  1.00  0.00     0.213 HD
ENDBRANCH   1  25
BRANCH   2  27
HETATM   27  C   UNL     1      41.383 -12.534   4.190  1.00  0.00     0.043 A 
HETATM   28  C   UNL     1      41.005 -11.763   3.084  1.00  0.00     0.031 A 
HETATM   29  C   UNL     1      40.774 -10.387   3.216  1.00  0.00     0.026 A 
HETATM   30  C   UNL     1      40.911  -9.771   4.458  1.00  0.00     0.034 A 
HETATM   31 CL   UNL     1      40.602  -8.089   4.618  1.00  0.00    -0.084 Cl
HETATM   32  C   UNL     1      41.297 -10.516   5.566  1.00  0.00     0.026 A 
HETATM   33  C   UNL     1      41.545 -11.886   5.428  1.00  0.00     0.031 A 
ENDBRANCH   2  27
TORSDOF 8
ENDMDL
MODEL 6
REMARK VINA RESULT:      -6.9      3.284      6.823
REMARK  8 active torsions:
REMARK  status: ('A' for Active; 'I' for Inactive)
REMARK    1  A    between atoms: C_2  and  N_3 
REMARK    2  A    between atoms: N_3  and  C_5 
REMARK    3  A    between atoms: N_3  and  C_29 
REMARK    4  A    between atoms: C_5  and  C_6 
REMARK    5  A    between atoms: C_6  and  N_7 
REMARK       I    between atoms: N_7  and  C_8 
REMARK    6  A    between atoms: C_8  and  C_9 
REMARK    7  A    between atoms: C_9  and  O_10 
REMARK    8  A    between atoms: N_11  and  C_12 
ROOT
HETATM    1  C   UNL     1      41.813 -14.876   3.986  1.00  0.00     0.256 C 
HETATM    2  N   UNL     1      41.782 -16.001   4.929  1.00  0.00    -0.254 N 
HETATM    3  C   UNL     1      40.796 -16.039   5.902  1.00  0.00     0.330 C 
HETATM    4  O   UNL     1      40.410 -17.063   6.466  1.00  0.00    -0.246 OA
HETATM    5  N   UNL     1      40.208 -14.854   6.245  1.00  0.00    -0.308 N 
HETATM    6  C   UNL     1      40.594 -13.611   5.759  1.00  0.00     0.048 A 
HETATM    7  C   UNL     1      41.434 -13.566   4.648  1.00  0.00     0.034 A 
HETATM    8  C   UNL     1      40.113 -12.447   6.354  1.00  0.00     0.030 A 
HETATM    9  C   UNL     1      40.489 -11.208   5.838  1.00  0.00     0.002 A 
HETATM   10  C   UNL     1      41.334 -11.141   4.731  1.00  0.00     0.001 A 
HETATM   11  C   UNL     1      41.801 -12.312   4.133  1.00  0.00     0.015 A 
HETATM   12  H   UNL     1      39.602 -14.910   7.056  1.00  0.00     0.170 HD
ENDROOT
BRANCH   1  13
HETATM   13  C   UNL     1      40.818 -15.199   2.784  1.00  0.00     0.279 C 
HETATM   14  N   UNL     1      39.494 -14.786   2.890  1.00  0.00    -0.355 N 
HETATM   15  H   UNL     1      39.319 -14.040   3.558  1.00  0.00     0.162 HD
HETATM   16  O   UNL     1      41.170 -15.873   1.812  1.00  0.00    -0.268 OA
BRANCH  14  17
HETATM   17  C   UNL     1      38.642 -14.789   1.703  1.00  0.00     0.150 C 
BRANCH  17  18
HETATM   18  C   UNL     1      38.846 -13.575   0.779  1.00  0.00     0.254 C 
BRANCH  18  19
HETATM   19  N   UNL     1      39.263 -12.338   1.572  1.00  0.00    -0.070 N 
HETATM   20  H   UNL     1      39.759 -12.718   2.394  1.00  0.00     0.279 HD
BRANCH  19  21
HETATM   21  C   UNL     1      38.076 -11.565   2.116  1.00  0.00     0.230 C 
HETATM   22  C   UNL     1      38.500 -10.184   2.583  1.00  0.00     0.034 C 
ENDBRANCH  19  21
BRANCH  19  23
HETATM   23  C   UNL     1      40.273 -11.442   0.887  1.00  0.00     0.230 C 
HETATM   24  C   UNL     1      41.572 -12.160   0.567  1.00  0.00     0.034 C 
ENDBRANCH  19  23
ENDBRANCH  18  19
ENDBRANCH  17  18
ENDBRANCH  14  17
ENDBRANCH   1  13
BRANCH   1  25
HETATM   25  O   UNL     1      43.136 -14.693   3.488  1.00  0.00    -0.359 OA
HETATM   26  H   UNL     1      43.208 -13.763   3.215  1.00  0.00     0.213 HD
ENDBRANCH   1  25
BRANCH   2  27
HETATM   27  C   UNL     1      42.729 -17.074   4.866  1.00  0.00     0.043 A 
HETATM   28  C   UNL     1      43.798 -17.202   5.762  1.00  0.00     0.031 A 
HETATM   29  C   UNL     1      44.660 -18.304   5.695  1.00  0.00     0.026 A 
HETATM   30  C   UNL     1      44.456 -19.294   4.737  1.00  0.00     0.034 A 
HETATM   31 CL   UNL     1      45.502 -20.656   4.676  1.00  0.00    -0.084 Cl
HETATM   32  C   UNL     1      43.408 -19.181   3.831  1.00  0.00     0.026 A 
HETATM   33  C   UNL     1      42.559 -18.070   3.888  1.00  0.00     0.031 A 
ENDBRANCH   2  27
TORSDOF 8
ENDMDL
MODEL 7
REMARK VINA RESULT:      -6.9      3.577      6.898
REMARK  8 active torsions:
REMARK  status: ('A' for Active; 'I' for Inactive)
REMARK    1  A    between atoms: C_2  and  N_3 
REMARK    2  A    between atoms: N_3  and  C_5 
REMARK    3  A    between atoms: N_3  and  C_29 
REMARK    4  A    between atoms: C_5  and  C_6 
REMARK    5  A    between atoms: C_6  and  N_7 
REMARK       I    between atoms: N_7  and  C_8 
REMARK    6  A    between atoms: C_8  and  C_9 
REMARK    7  A    between atoms: C_9  and  O_10 
REMARK    8  A    between atoms: N_11  and  C_12 
ROOT
HETATM    1  C   UNL     1      42.266 -15.943   2.896  1.00  0.00     0.256 C 
HETATM    2  N   UNL     1      42.016 -17.210   3.593  1.00  0.00    -0.254 N 
HETATM    3  C   UNL     1      41.018 -17.267   4.553  1.00  0.00     0.330 C 
HETATM    4  O   UNL     1      40.445 -18.297   4.906  1.00  0.00    -0.246 OA
HETATM    5  N   UNL     1      40.642 -16.090   5.136  1.00  0.00    -0.308 N 
HETATM    6  C   UNL     1      41.252 -14.863   4.905  1.00  0.00     0.048 A 
HETATM    7  C   UNL     1      42.110 -14.746   3.813  1.00  0.00     0.034 A 
HETATM    8  C   UNL     1      40.972 -13.775   5.729  1.00  0.00     0.030 A 
HETATM    9  C   UNL     1      41.572 -12.545   5.468  1.00  0.00     0.002 A 
HETATM   10  C   UNL     1      42.439 -12.408   4.384  1.00  0.00     0.001 A 
HETATM   11  C   UNL     1      42.704 -13.499   3.556  1.00  0.00     0.015 A 
HETATM   12  H   UNL     1      40.019 -16.199   5.929  1.00  0.00     0.170 HD
ENDROOT
BRANCH   1  13
HETATM   13  C   UNL     1      41.255 -15.836   1.669  1.00  0.00     0.279 C 
HETATM   14  N   UNL     1      41.736 -15.365   0.451  1.00  0.00    -0.355 N 
HETATM   15  H   UNL     1      42.744 -15.424   0.325  1.00  0.00     0.162 HD
HETATM   16  O   UNL     1      40.051 -16.078   1.794  1.00  0.00    -0.268 OA
BRANCH  14  17
HETATM   17  C   UNL     1      40.934 -15.541  -0.757  1.00  0.00     0.150 C 
BRANCH  17  18
HETATM   18  C   UNL     1      40.101 -14.307  -1.145  1.00  0.00     0.254 C 
BRANCH  18  19
HETATM   19  N   UNL     1      39.068 -14.649  -2.216  1.00  0.00    -0.070 N 
HETATM   20  H   UNL     1      38.625 -15.516  -1.874  1.00  0.00     0.279 HD
BRANCH  19  21
HETATM   21  C   UNL     1      39.702 -14.996  -3.550  1.00  0.00     0.230 C 
HETATM   22  C   UNL     1      39.006 -16.188  -4.184  1.00  0.00     0.034 C 
ENDBRANCH  19  21
BRANCH  19  23
HETATM   23  C   UNL     1      37.930 -13.659  -2.356  1.00  0.00     0.230 C 
HETATM   24  C   UNL     1      37.970 -12.567  -1.301  1.00  0.00     0.034 C 
ENDBRANCH  19  23
ENDBRANCH  18  19
ENDBRANCH  17  18
ENDBRANCH  14  17
ENDBRANCH   1  13
BRANCH   1  25
HETATM   25  O   UNL     1      43.610 -15.901   2.425  1.00  0.00    -0.359 OA
HETATM   26  H   UNL     1      44.050 -15.171   2.893  1.00  0.00     0.213 HD
ENDBRANCH   1  25
BRANCH   2  27
HETATM   27  C   UNL     1      42.759 -18.399   3.302  1.00  0.00     0.043 A 
HETATM   28  C   UNL     1      42.619 -19.113   2.105  1.00  0.00     0.031 A 
HETATM   29  C   UNL     1      43.415 -20.236   1.844  1.00  0.00     0.026 A 
HETATM   30  C   UNL     1      44.365 -20.650   2.774  1.00  0.00     0.034 A 
HETATM   31 CL   UNL     1      45.355 -22.014   2.436  1.00  0.00    -0.084 Cl
HETATM   32  C   UNL     1      44.512 -19.963   3.973  1.00  0.00     0.026 A 
HETATM   33  C   UNL     1      43.704 -18.853   4.239  1.00  0.00     0.031 A 
ENDBRANCH   2  27
TORSDOF 8
ENDMDL
MODEL 8
REMARK VINA RESULT:      -6.9      2.868      4.608
REMARK  8 active torsions:
REMARK  status: ('A' for Active; 'I' for Inactive)
REMARK    1  A    between atoms: C_2  and  N_3 
REMARK    2  A    between atoms: N_3  and  C_5 
REMARK    3  A    between atoms: N_3  and  C_29 
REMARK    4  A    between atoms: C_5  and  C_6 
REMARK    5  A    between atoms: C_6  and  N_7 
REMARK       I    between atoms: N_7  and  C_8 
REMARK    6  A    between atoms: C_8  and  C_9 
REMARK    7  A    between atoms: C_9  and  O_10 
REMARK    8  A    between atoms: N_11  and  C_12 
ROOT
HETATM    1  C   UNL     1      42.581 -14.318   4.032  1.00  0.00     0.256 C 
HETATM    2  N   UNL     1      41.411 -13.648   4.614  1.00  0.00    -0.254 N 
HETATM    3  C   UNL     1      40.222 -14.350   4.733  1.00  0.00     0.330 C 
HETATM    4  O   UNL     1      39.326 -14.076   5.532  1.00  0.00    -0.246 OA
HETATM    5  N   UNL     1      40.044 -15.426   3.910  1.00  0.00    -0.308 N 
HETATM    6  C   UNL     1      40.924 -15.805   2.904  1.00  0.00     0.048 A 
HETATM    7  C   UNL     1      42.200 -15.247   2.896  1.00  0.00     0.034 A 
HETATM    8  C   UNL     1      40.538 -16.751   1.957  1.00  0.00     0.030 A 
HETATM    9  C   UNL     1      41.442 -17.140   0.970  1.00  0.00     0.002 A 
HETATM   10  C   UNL     1      42.722 -16.589   0.940  1.00  0.00     0.001 A 
HETATM   11  C   UNL     1      43.104 -15.651   1.900  1.00  0.00     0.015 A 
HETATM   12  H   UNL     1      39.107 -15.815   3.931  1.00  0.00     0.170 HD
ENDROOT
BRANCH   1  13
HETATM   13  C   UNL     1      43.322 -15.128   5.187  1.00  0.00     0.279 C 
HETATM   14  N   UNL     1      43.001 -16.470   5.368  1.00  0.00    -0.355 N 
HETATM   15  H   UNL     1      42.568 -16.929   4.570  1.00  0.00     0.162 HD
HETATM   16  O   UNL     1      44.103 -14.579   5.969  1.00  0.00    -0.268 OA
BRANCH  14  17
HETATM   17  C   UNL     1      43.863 -17.312   6.193  1.00  0.00     0.150 C 
BRANCH  17  18
HETATM   18  C   UNL     1      43.717 -18.819   5.922  1.00  0.00     0.254 C 
BRANCH  18  19
HETATM   19  N   UNL     1      44.330 -19.203   4.577  1.00  0.00    -0.070 N 
HETATM   20  H   UNL     1      44.960 -18.418   4.351  1.00  0.00     0.279 HD
BRANCH  19  21
HETATM   21  C   UNL     1      43.302 -19.254   3.461  1.00  0.00     0.230 C 
HETATM   22  C   UNL     1      43.901 -19.862   2.205  1.00  0.00     0.034 C 
ENDBRANCH  19  21
BRANCH  19  23
HETATM   23  C   UNL     1      45.223 -20.425   4.599  1.00  0.00     0.230 C 
HETATM   24  C   UNL     1      44.624 -21.575   5.389  1.00  0.00     0.034 C 
ENDBRANCH  19  23
ENDBRANCH  18  19
ENDBRANCH  17  18
ENDBRANCH  14  17
ENDBRANCH   1  13
BRANCH   1  25
HETATM   25  O   UNL     1      43.465 -13.353   3.468  1.00  0.00    -0.359 OA
HETATM   26  H   UNL     1      43.044 -13.025   2.656  1.00  0.00     0.213 HD
ENDBRANCH   1  25
BRANCH   2  27
HETATM   27  C   UNL     1      41.461 -12.295   5.080  1.00  0.00     0.043 A 
HETATM   28  C   UNL     1      41.132 -11.198   4.275  1.00  0.00     0.031 A 
HETATM   29  C   UNL     1      41.139  -9.898   4.799  1.00  0.00     0.026 A 
HETATM   30  C   UNL     1      41.467  -9.685   6.136  1.00  0.00     0.034 A 
HETATM   31 CL   UNL     1      41.449  -8.091   6.778  1.00  0.00    -0.084 Cl
HETATM   32  C   UNL     1      41.808 -10.759   6.949  1.00  0.00     0.026 A 
HETATM   33  C   UNL     1      41.818 -12.053   6.419  1.00  0.00     0.031 A 
ENDBRANCH   2  27
TORSDOF 8
ENDMDL
MODEL 9
REMARK VINA RESULT:      -6.7      3.364      7.538
REMARK  8 active torsions:
REMARK  status: ('A' for Active; 'I' for Inactive)
REMARK    1  A    between atoms: C_2  and  N_3 
REMARK    2  A    between atoms: N_3  and  C_5 
REMARK    3  A    between atoms: N_3  and  C_29 
REMARK    4  A    between atoms: C_5  and  C_6 
REMARK    5  A    between atoms: C_6  and  N_7 
REMARK       I    between atoms: N_7  and  C_8 
REMARK    6  A    between atoms: C_8  and  C_9 
REMARK    7  A    between atoms: C_9  and  O_10 
REMARK    8  A    between atoms: N_11  and  C_12 
ROOT
HETATM    1  C   UNL     1      40.680 -15.334   3.347  1.00  0.00     0.256 C 
HETATM    2  N   UNL     1      42.147 -15.357   3.282  1.00  0.00    -0.254 N 
HETATM    3  C   UNL     1      42.823 -14.219   2.874  1.00  0.00     0.330 C 
HETATM    4  O   UNL     1      43.995 -13.965   3.150  1.00  0.00    -0.246 OA
HETATM    5  N   UNL     1      42.128 -13.315   2.120  1.00  0.00    -0.308 N 
HETATM    6  C   UNL     1      40.831 -13.502   1.659  1.00  0.00     0.048 A 
HETATM    7  C   UNL     1      40.072 -14.530   2.214  1.00  0.00     0.034 A 
HETATM    8  C   UNL     1      40.302 -12.648   0.693  1.00  0.00     0.030 A 
HETATM    9  C   UNL     1      38.990 -12.833   0.260  1.00  0.00     0.002 A 
HETATM   10  C   UNL     1      38.216 -13.860   0.798  1.00  0.00     0.001 A 
HETATM   11  C   UNL     1      38.749 -14.702   1.775  1.00  0.00     0.015 A 
HETATM   12  H   UNL     1      42.700 -12.576   1.725  1.00  0.00     0.170 HD
ENDROOT
BRANCH   1  13
HETATM   13  C   UNL     1      40.248 -14.726   4.754  1.00  0.00     0.279 C 
HETATM   14  N   UNL     1      39.907 -13.379   4.819  1.00  0.00    -0.355 N 
HETATM   15  H   UNL     1      39.644 -12.950   3.934  1.00  0.00     0.162 HD
HETATM   16  O   UNL     1      40.289 -15.394   5.791  1.00  0.00    -0.268 OA
BRANCH  14  17
HETATM   17  C   UNL     1      39.221 -12.865   6.002  1.00  0.00     0.150 C 
BRANCH  17  18
HETATM   18  C   UNL     1      39.996 -11.770   6.754  1.00  0.00     0.254 C 
BRANCH  18  19
HETATM   19  N   UNL     1      39.822 -10.408   6.085  1.00  0.00    -0.070 N 
HETATM   20  H   UNL     1      39.069 -10.558   5.395  1.00  0.00     0.279 HD
BRANCH  19  21
HETATM   21  C   UNL     1      41.044  -9.988   5.289  1.00  0.00     0.230 C 
HETATM   22  C   UNL     1      40.763 -10.045   3.798  1.00  0.00     0.034 C 
ENDBRANCH  19  21
BRANCH  19  23
HETATM   23  C   UNL     1      39.311  -9.305   6.987  1.00  0.00     0.230 C 
HETATM   24  C   UNL     1      38.454  -8.293   6.248  1.00  0.00     0.034 C 
ENDBRANCH  19  23
ENDBRANCH  18  19
ENDBRANCH  17  18
ENDBRANCH  14  17
ENDBRANCH   1  13
BRANCH   1  25
HETATM   25  O   UNL     1      40.164 -16.656   3.207  1.00  0.00    -0.359 OA
HETATM   26  H   UNL     1      39.478 -16.619   2.519  1.00  0.00     0.213 HD
ENDBRANCH   1  25
BRANCH   2  27
HETATM   27  C   UNL     1      42.907 -16.515   3.647  1.00  0.00     0.043 A 
HETATM   28  C   UNL     1      43.255 -16.815   4.970  1.00  0.00     0.031 A 
HETATM   29  C   UNL     1      43.948 -17.993   5.278  1.00  0.00     0.026 A 
HETATM   30  C   UNL     1      44.290 -18.888   4.268  1.00  0.00     0.034 A 
HETATM   31 CL   UNL     1      45.117 -20.343   4.657  1.00  0.00    -0.084 Cl
HETATM   32  C   UNL     1      43.964 -18.605   2.947  1.00  0.00     0.026 A 
HETATM   33  C   UNL     1      43.289 -17.419   2.639  1.00  0.00     0.031 A 
ENDBRANCH   2  27
TORSDOF 8
ENDMDL
MODEL 10
REMARK VINA RESULT:      -6.7      3.286      6.109
REMARK  8 active torsions:
REMARK  status: ('A' for Active; 'I' for Inactive)
REMARK    1  A    between atoms: C_2  and  N_3 
REMARK    2  A    between atoms: N_3  and  C_5 
REMARK    3  A    between atoms: N_3  and  C_29 
REMARK    4  A    between atoms: C_5  and  C_6 
REMARK    5  A    between atoms: C_6  and  N_7 
REMARK       I    between atoms: N_7  and  C_8 
REMARK    6  A    between atoms: C_8  and  C_9 
REMARK    7  A    between atoms: C_9  and  O_10 
REMARK    8  A    between atoms: N_11  and  C_12 
ROOT
HETATM    1  C   UNL     1      42.074 -13.923   4.539  1.00  0.00     0.256 C 
HETATM    2  N   UNL     1      41.219 -13.810   3.351  1.00  0.00    -0.254 N 
HETATM    3  C   UNL     1      40.218 -14.746   3.148  1.00  0.00     0.330 C 
HETATM    4  O   UNL     1      39.214 -14.558   2.462  1.00  0.00    -0.246 OA
HETATM    5  N   UNL     1      40.357 -15.956   3.767  1.00  0.00    -0.308 N 
HETATM    6  C   UNL     1      41.471 -16.345   4.501  1.00  0.00     0.048 A 
HETATM    7  C   UNL     1      42.388 -15.366   4.881  1.00  0.00     0.034 A 
HETATM    8  C   UNL     1      41.633 -17.677   4.875  1.00  0.00     0.030 A 
HETATM    9  C   UNL     1      42.742 -18.045   5.634  1.00  0.00     0.002 A 
HETATM   10  C   UNL     1      43.675 -17.083   6.019  1.00  0.00     0.001 A 
HETATM   11  C   UNL     1      43.498 -15.749   5.651  1.00  0.00     0.015 A 
HETATM   12  H   UNL     1      39.680 -16.653   3.474  1.00  0.00     0.170 HD
ENDROOT
BRANCH   1  13
HETATM   13  C   UNL     1      41.337 -13.211   5.758  1.00  0.00     0.279 C 
HETATM   14  N   UNL     1      42.030 -12.244   6.480  1.00  0.00    -0.355 N 
HETATM   15  H   UNL     1      42.824 -11.825   6.001  1.00  0.00     0.162 HD
HETATM   16  O   UNL     1      40.210 -13.552   6.127  1.00  0.00    -0.268 OA
BRANCH  14  17
HETATM   17  C   UNL     1      41.302 -11.364   7.391  1.00  0.00     0.150 C 
BRANCH  17  18
HETATM   18  C   UNL     1      42.203 -10.543   8.328  1.00  0.00     0.254 C 
BRANCH  18  19
HETATM   19  N   UNL     1      42.930 -11.441   9.326  1.00  0.00    -0.070 N 
HETATM   20  H   UNL     1      42.566 -12.386   9.131  1.00  0.00     0.279 HD
BRANCH  19  21
HETATM   21  C   UNL     1      42.560 -11.135  10.766  1.00  0.00     0.230 C 
HETATM   22  C   UNL     1      43.778 -10.683  11.552  1.00  0.00     0.034 C 
ENDBRANCH  19  21
BRANCH  19  23
HETATM   23  C   UNL     1      44.427 -11.551   9.125  1.00  0.00     0.230 C 
HETATM   24  C   UNL     1      44.834 -12.852   8.454  1.00  0.00     0.034 C 
ENDBRANCH  19  23
ENDBRANCH  18  19
ENDBRANCH  17  18
ENDBRANCH  14  17
ENDBRANCH   1  13
BRANCH   1  25
HETATM   25  O   UNL     1      43.332 -13.298   4.297  1.00  0.00    -0.359 OA
HETATM   26  H   UNL     1      43.145 -12.387   4.016  1.00  0.00     0.213 HD
ENDBRANCH   1  25
BRANCH   2  27
HETATM   27  C   UNL     1      41.374 -12.751   2.399  1.00  0.00     0.043 A 
HETATM   28  C   UNL     1      42.020 -12.919   1.168  1.00  0.00     0.031 A 
HETATM   29  C   UNL     1      42.090 -11.865   0.246  1.00  0.00     0.026 A 
HETATM   30  C   UNL     1      41.507 -10.637   0.544  1.00  0.00     0.034 A 
HETATM   31 CL   UNL     1      41.576  -9.357  -0.600  1.00  0.00    -0.084 Cl
HETATM   32  C   UNL     1      40.872 -10.444   1.765  1.00  0.00     0.026 A 
HETATM   33  C   UNL     1      40.818 -11.492   2.691  1.00  0.00     0.031 A 
ENDBRANCH   2  27
TORSDOF 8
ENDMDL
