MODEL 1
REMARK VINA RESULT:      -9.1      0.000      0.000
REMARK  4 active torsions:
REMARK  status: ('A' for Active; 'I' for Inactive)
REMARK    1  A    between atoms: C_9  and  C_10 
REMARK    2  A    between atoms: C_10  and  C_11 
REMARK       I    between atoms: C_11  and  N_12 
REMARK    3  A    between atoms: N_12  and  C_13 
REMARK    4  A    between atoms: C_15  and  C_16 
ROOT
HETATM    1  C   UNL     1      42.152 -17.190   0.783  1.00  0.00     0.227 C 
HETATM    2  N   UNL     1      42.157 -16.037   0.036  1.00  0.00    -0.327 N 
HETATM    3  O   UNL     1      41.141 -17.780   1.163  1.00  0.00    -0.273 OA
HETATM    4  H   UNL     1      43.082 -15.679  -0.210  1.00  0.00     0.169 HD
ENDROOT
BRANCH   1   5
HETATM    5  C   UNL     1      43.503 -17.779   1.146  1.00  0.00     0.165 C 
BRANCH   5   6
HETATM    6  C   UNL     1      43.818 -18.257   2.552  1.00  0.00     0.074 A 
HETATM    7  C   UNL     1      44.083 -19.708   2.755  1.00  0.00     0.006 A 
HETATM    8  C   UNL     1      44.072 -20.645   1.713  1.00  0.00     0.014 A 
HETATM    9  C   UNL     1      44.359 -20.136   4.053  1.00  0.00     0.046 A 
HETATM   10  C   UNL     1      44.325 -21.993   1.980  1.00  0.00     0.001 A 
HETATM   11  C   UNL     1      44.593 -22.415   3.282  1.00  0.00     0.001 A 
HETATM   12  C   UNL     1      44.613 -21.486   4.321  1.00  0.00     0.018 A 
HETATM   13  C   UNL     1      44.389 -19.148   5.140  1.00  0.00     0.272 A 
HETATM   14  O   UNL     1      44.624 -19.472   6.298  1.00  0.00    -0.266 OA
HETATM   15  N   UNL     1      44.142 -17.845   4.780  1.00  0.00    -0.243 N 
HETATM   16  N   UNL     1      43.862 -17.397   3.528  1.00  0.00    -0.175 NA
HETATM   17  H   UNL     1      44.166 -17.158   5.528  1.00  0.00     0.192 HD
ENDBRANCH   5   6
ENDBRANCH   1   5
BRANCH   2  18
HETATM   18  C   UNL     1      41.060 -15.282  -0.421  1.00  0.00     0.035 A 
HETATM   19  C   UNL     1      40.165 -14.609   0.415  1.00  0.00     0.047 A 
HETATM   20  C   UNL     1      39.086 -13.865  -0.110  1.00  0.00     0.071 A 
HETATM   21  C   UNL     1      38.920 -13.811  -1.498  1.00  0.00     0.049 A 
HETATM   22 CL   UNL     1      37.635 -12.929  -2.239  1.00  0.00    -0.083 Cl
HETATM   23  C   UNL     1      39.809 -14.482  -2.340  1.00  0.00     0.027 A 
HETATM   24  C   UNL     1      40.872 -15.212  -1.804  1.00  0.00     0.031 A 
BRANCH  20  25
HETATM   25  C   UNL     1      38.145 -13.150   0.820  1.00  0.00     0.419 C 
HETATM   26  F   UNL     1      38.500 -13.246   2.134  1.00  0.00    -0.166 F 
HETATM   27  F   UNL     1      38.066 -11.812   0.570  1.00  0.00    -0.166 F 
HETATM   28  F   UNL     1      36.871 -13.627   0.758  1.00  0.00    -0.166 F 
ENDBRANCH  20  25
ENDBRANCH   2  18
TORSDOF 4
ENDMDL
MODEL 2
REMARK VINA RESULT:      -9.0      4.930      8.886
REMARK  4 active torsions:
REMARK  status: ('A' for Active; 'I' for Inactive)
REMARK    1  A    between atoms: C_9  and  C_10 
REMARK    2  A    between atoms: C_10  and  C_11 
REMARK       I    between atoms: C_11  and  N_12 
REMARK    3  A    between atoms: N_12  and  C_13 
REMARK    4  A    between atoms: C_15  and  C_16 
ROOT
HETATM    1  C   UNL     1      42.033 -15.890   2.366  1.00  0.00     0.227 C 
HETATM    2  N   UNL     1      43.133 -16.670   2.104  1.00  0.00    -0.327 N 
HETATM    3  O   UNL     1      41.221 -16.094   3.269  1.00  0.00    -0.273 OA
HETATM    4  H   UNL     1      43.716 -16.357   1.326  1.00  0.00     0.169 HD
ENDROOT
BRANCH   1   5
HETATM    5  C   UNL     1      41.824 -14.677   1.477  1.00  0.00     0.165 C 
BRANCH   5   6
HETATM    6  C   UNL     1      41.553 -14.811  -0.011  1.00  0.00     0.074 A 
HETATM    7  C   UNL     1      41.833 -13.636  -0.882  1.00  0.00     0.006 A 
HETATM    8  C   UNL     1      42.348 -12.427  -0.399  1.00  0.00     0.014 A 
HETATM    9  C   UNL     1      41.568 -13.769  -2.244  1.00  0.00     0.046 A 
HETATM   10  C   UNL     1      42.581 -11.364  -1.277  1.00  0.00     0.001 A 
HETATM   11  C   UNL     1      42.307 -11.501  -2.637  1.00  0.00     0.001 A 
HETATM   12  C   UNL     1      41.801 -12.706  -3.124  1.00  0.00     0.018 A 
HETATM   13  C   UNL     1      41.046 -15.046  -2.751  1.00  0.00     0.272 A 
HETATM   14  O   UNL     1      40.795 -15.213  -3.938  1.00  0.00    -0.266 OA
HETATM   15  N   UNL     1      40.862 -16.036  -1.817  1.00  0.00    -0.243 N 
HETATM   16  N   UNL     1      41.102 -15.938  -0.482  1.00  0.00    -0.175 NA
HETATM   17  H   UNL     1      40.506 -16.923  -2.163  1.00  0.00     0.192 HD
ENDBRANCH   5   6
ENDBRANCH   1   5
BRANCH   2  18
HETATM   18  C   UNL     1      43.551 -17.845   2.758  1.00  0.00     0.035 A 
HETATM   19  C   UNL     1      43.569 -19.110   2.166  1.00  0.00     0.047 A 
HETATM   20  C   UNL     1      44.006 -20.249   2.878  1.00  0.00     0.071 A 
HETATM   21  C   UNL     1      44.424 -20.092   4.204  1.00  0.00     0.049 A 
HETATM   22 CL   UNL     1      44.976 -21.419   5.159  1.00  0.00    -0.083 Cl
HETATM   23  C   UNL     1      44.408 -18.830   4.803  1.00  0.00     0.027 A 
HETATM   24  C   UNL     1      43.975 -17.715   4.083  1.00  0.00     0.031 A 
BRANCH  20  25
HETATM   25  C   UNL     1      44.016 -21.595   2.208  1.00  0.00     0.419 C 
HETATM   26  F   UNL     1      45.099 -21.795   1.403  1.00  0.00    -0.166 F 
HETATM   27  F   UNL     1      44.036 -22.630   3.094  1.00  0.00    -0.166 F 
HETATM   28  F   UNL     1      42.933 -21.798   1.406  1.00  0.00    -0.166 F 
ENDBRANCH  20  25
ENDBRANCH   2  18
TORSDOF 4
ENDMDL
MODEL 3
REMARK VINA RESULT:      -9.0      1.814      2.318
REMARK  4 active torsions:
REMARK  status: ('A' for Active; 'I' for Inactive)
REMARK    1  A    between atoms: C_9  and  C_10 
REMARK    2  A    between atoms: C_10  and  C_11 
REMARK       I    between atoms: C_11  and  N_12 
REMARK    3  A    between atoms: N_12  and  C_13 
REMARK    4  A    between atoms: C_15  and  C_16 
ROOT
HETATM    1  C   UNL     1      42.251 -17.309   0.961  1.00  0.00     0.227 C 
HETATM    2  N   UNL     1      42.361 -16.104   0.310  1.00  0.00    -0.327 N 
HETATM    3  O   UNL     1      41.190 -17.867   1.240  1.00  0.00    -0.273 OA
HETATM    4  H   UNL     1      43.316 -15.784   0.142  1.00  0.00     0.169 HD
ENDROOT
BRANCH   1   5
HETATM    5  C   UNL     1      43.546 -18.001   1.347  1.00  0.00     0.165 C 
BRANCH   5   6
HETATM    6  C   UNL     1      43.853 -18.385   2.783  1.00  0.00     0.074 A 
HETATM    7  C   UNL     1      44.139 -19.816   3.080  1.00  0.00     0.006 A 
HETATM    8  C   UNL     1      44.153 -20.816   2.099  1.00  0.00     0.014 A 
HETATM    9  C   UNL     1      44.407 -20.157   4.405  1.00  0.00     0.046 A 
HETATM   10  C   UNL     1      44.424 -22.141   2.453  1.00  0.00     0.001 A 
HETATM   11  C   UNL     1      44.685 -22.475   3.782  1.00  0.00     0.001 A 
HETATM   12  C   UNL     1      44.679 -21.483   4.761  1.00  0.00     0.018 A 
HETATM   13  C   UNL     1      44.410 -19.102   5.428  1.00  0.00     0.272 A 
HETATM   14  O   UNL     1      44.638 -19.348   6.607  1.00  0.00    -0.266 OA
HETATM   15  N   UNL     1      44.147 -17.829   4.984  1.00  0.00    -0.243 N 
HETATM   16  N   UNL     1      43.873 -17.464   3.704  1.00  0.00    -0.175 NA
HETATM   17  H   UNL     1      44.152 -17.095   5.687  1.00  0.00     0.192 HD
ENDBRANCH   5   6
ENDBRANCH   1   5
BRANCH   2  18
HETATM   18  C   UNL     1      41.333 -15.255  -0.143  1.00  0.00     0.035 A 
HETATM   19  C   UNL     1      40.869 -15.215  -1.460  1.00  0.00     0.047 A 
HETATM   20  C   UNL     1      39.829 -14.341  -1.847  1.00  0.00     0.071 A 
HETATM   21  C   UNL     1      39.263 -13.503  -0.881  1.00  0.00     0.049 A 
HETATM   22 CL   UNL     1      37.988 -12.401  -1.252  1.00  0.00    -0.083 Cl
HETATM   23  C   UNL     1      39.722 -13.536   0.437  1.00  0.00     0.027 A 
HETATM   24  C   UNL     1      40.750 -14.408   0.803  1.00  0.00     0.031 A 
BRANCH  20  25
HETATM   25  C   UNL     1      39.353 -14.328  -3.273  1.00  0.00     0.419 C 
HETATM   26  F   UNL     1      38.027 -14.624  -3.408  1.00  0.00    -0.166 F 
HETATM   27  F   UNL     1      39.509 -13.115  -3.874  1.00  0.00    -0.166 F 
HETATM   28  F   UNL     1      40.002 -15.232  -4.060  1.00  0.00    -0.166 F 
ENDBRANCH  20  25
ENDBRANCH   2  18
TORSDOF 4
ENDMDL
MODEL 4
REMARK VINA RESULT:      -8.8      4.667      8.695
REMARK  4 active torsions:
REMARK  status: ('A' for Active; 'I' for Inactive)
REMARK    1  A    between atoms: C_9  and  C_10 
REMARK    2  A    between atoms: C_10  and  C_11 
REMARK       I    between atoms: C_11  and  N_12 
REMARK    3  A    between atoms: N_12  and  C_13 
REMARK    4  A    between atoms: C_15  and  C_16 
ROOT
HETATM    1  C   UNL     1      42.737 -15.102   2.212  1.00  0.00     0.227 C 
HETATM    2  N   UNL     1      42.488 -16.445   2.064  1.00  0.00    -0.327 N 
HETATM    3  O   UNL     1      43.581 -14.620   2.969  1.00  0.00    -0.273 OA
HETATM    4  H   UNL     1      41.764 -16.682   1.384  1.00  0.00     0.169 HD
ENDROOT
BRANCH   1   5
HETATM    5  C   UNL     1      41.914 -14.153   1.361  1.00  0.00     0.165 C 
BRANCH   5   6
HETATM    6  C   UNL     1      41.591 -14.452  -0.091  1.00  0.00     0.074 A 
HETATM    7  C   UNL     1      41.900 -13.408  -1.107  1.00  0.00     0.006 A 
HETATM    8  C   UNL     1      42.486 -12.176  -0.789  1.00  0.00     0.014 A 
HETATM    9  C   UNL     1      41.587 -13.691  -2.436  1.00  0.00     0.046 A 
HETATM   10  C   UNL     1      42.743 -11.241  -1.796  1.00  0.00     0.001 A 
HETATM   11  C   UNL     1      42.421 -11.528  -3.122  1.00  0.00     0.001 A 
HETATM   12  C   UNL     1      41.844 -12.756  -3.445  1.00  0.00     0.018 A 
HETATM   13  C   UNL     1      40.990 -14.991  -2.768  1.00  0.00     0.272 A 
HETATM   14  O   UNL     1      40.695 -15.289  -3.920  1.00  0.00    -0.266 OA
HETATM   15  N   UNL     1      40.788 -15.851  -1.716  1.00  0.00    -0.243 N 
HETATM   16  N   UNL     1      41.073 -15.603  -0.410  1.00  0.00    -0.175 NA
HETATM   17  H   UNL     1      40.379 -16.753  -1.941  1.00  0.00     0.192 HD
ENDBRANCH   5   6
ENDBRANCH   1   5
BRANCH   2  18
HETATM   18  C   UNL     1      43.091 -17.528   2.731  1.00  0.00     0.035 A 
HETATM   19  C   UNL     1      43.138 -17.668   4.120  1.00  0.00     0.047 A 
HETATM   20  C   UNL     1      43.755 -18.785   4.726  1.00  0.00     0.071 A 
HETATM   21  C   UNL     1      44.328 -19.762   3.906  1.00  0.00     0.049 A 
HETATM   22 CL   UNL     1      45.104 -21.164   4.548  1.00  0.00    -0.083 Cl
HETATM   23  C   UNL     1      44.286 -19.629   2.517  1.00  0.00     0.027 A 
HETATM   24  C   UNL     1      43.670 -18.520   1.934  1.00  0.00     0.031 A 
BRANCH  20  25
HETATM   25  C   UNL     1      43.784 -18.904   6.225  1.00  0.00     0.419 C 
HETATM   26  F   UNL     1      43.011 -17.976   6.860  1.00  0.00    -0.166 F 
HETATM   27  F   UNL     1      43.332 -20.110   6.671  1.00  0.00    -0.166 F 
HETATM   28  F   UNL     1      45.033 -18.746   6.747  1.00  0.00    -0.166 F 
ENDBRANCH  20  25
ENDBRANCH   2  18
TORSDOF 4
ENDMDL
MODEL 5
REMARK VINA RESULT:      -8.6      4.757      9.013
REMARK  4 active torsions:
REMARK  status: ('A' for Active; 'I' for Inactive)
REMARK    1  A    between atoms: C_9  and  C_10 
REMARK    2  A    between atoms: C_10  and  C_11 
REMARK       I    between atoms: C_11  and  N_12 
REMARK    3  A    between atoms: N_12  and  C_13 
REMARK    4  A    between atoms: C_15  and  C_16 
ROOT
HETATM    1  C   UNL     1      41.384 -16.408   2.280  1.00  0.00     0.227 C 
HETATM    2  N   UNL     1      42.697 -16.812   2.248  1.00  0.00    -0.327 N 
HETATM    3  O   UNL     1      40.478 -16.995   2.872  1.00  0.00    -0.273 OA
HETATM    4  H   UNL     1      43.328 -16.205   1.722  1.00  0.00     0.169 HD
ENDROOT
BRANCH   1   5
HETATM    5  C   UNL     1      41.041 -15.129   1.538  1.00  0.00     0.165 C 
BRANCH   5   6
HETATM    6  C   UNL     1      40.911 -15.089   0.026  1.00  0.00     0.074 A 
HETATM    7  C   UNL     1      40.194 -13.936  -0.585  1.00  0.00     0.006 A 
HETATM    8  C   UNL     1      39.651 -12.884   0.164  1.00  0.00     0.014 A 
HETATM    9  C   UNL     1      40.071 -13.918  -1.974  1.00  0.00     0.046 A 
HETATM   10  C   UNL     1      38.986 -11.836  -0.479  1.00  0.00     0.001 A 
HETATM   11  C   UNL     1      38.861 -11.828  -1.868  1.00  0.00     0.001 A 
HETATM   12  C   UNL     1      39.406 -12.869  -2.619  1.00  0.00     0.018 A 
HETATM   13  C   UNL     1      40.659 -15.013  -2.758  1.00  0.00     0.272 A 
HETATM   14  O   UNL     1      40.577 -15.046  -3.980  1.00  0.00    -0.266 OA
HETATM   15  N   UNL     1      41.305 -15.990  -2.041  1.00  0.00    -0.243 N 
HETATM   16  N   UNL     1      41.435 -16.043  -0.689  1.00  0.00    -0.175 NA
HETATM   17  H   UNL     1      41.717 -16.748  -2.579  1.00  0.00     0.192 HD
ENDBRANCH   5   6
ENDBRANCH   1   5
BRANCH   2  18
HETATM   18  C   UNL     1      43.277 -17.954   2.832  1.00  0.00     0.035 A 
HETATM   19  C   UNL     1      43.345 -19.205   2.216  1.00  0.00     0.047 A 
HETATM   20  C   UNL     1      43.947 -20.310   2.858  1.00  0.00     0.071 A 
HETATM   21  C   UNL     1      44.481 -20.133   4.138  1.00  0.00     0.049 A 
HETATM   22 CL   UNL     1      45.238 -21.418   5.006  1.00  0.00    -0.083 Cl
HETATM   23  C   UNL     1      44.417 -18.885   4.762  1.00  0.00     0.027 A 
HETATM   24  C   UNL     1      43.820 -17.803   4.112  1.00  0.00     0.031 A 
BRANCH  20  25
HETATM   25  C   UNL     1      44.005 -21.642   2.162  1.00  0.00     0.419 C 
HETATM   26  F   UNL     1      42.933 -21.880   1.352  1.00  0.00    -0.166 F 
HETATM   27  F   UNL     1      45.096 -21.773   1.356  1.00  0.00    -0.166 F 
HETATM   28  F   UNL     1      44.039 -22.694   3.027  1.00  0.00    -0.166 F 
ENDBRANCH  20  25
ENDBRANCH   2  18
TORSDOF 4
ENDMDL
MODEL 6
REMARK VINA RESULT:      -8.4      4.886      9.000
REMARK  4 active torsions:
REMARK  status: ('A' for Active; 'I' for Inactive)
REMARK    1  A    between atoms: C_9  and  C_10 
REMARK    2  A    between atoms: C_10  and  C_11 
REMARK       I    between atoms: C_11  and  N_12 
REMARK    3  A    between atoms: N_12  and  C_13 
REMARK    4  A    between atoms: C_15  and  C_16 
ROOT
HETATM    1  C   UNL     1      41.715 -16.847   0.955  1.00  0.00     0.227 C 
HETATM    2  N   UNL     1      42.937 -16.981   1.569  1.00  0.00    -0.327 N 
HETATM    3  O   UNL     1      40.798 -17.667   1.021  1.00  0.00    -0.273 OA
HETATM    4  H   UNL     1      43.585 -16.204   1.426  1.00  0.00     0.169 HD
ENDROOT
BRANCH   1   5
HETATM    5  C   UNL     1      41.486 -15.582   0.148  1.00  0.00     0.165 C 
BRANCH   5   6
HETATM    6  C   UNL     1      40.205 -14.777   0.264  1.00  0.00     0.074 A 
HETATM    7  C   UNL     1      39.616 -14.213  -0.982  1.00  0.00     0.006 A 
HETATM    8  C   UNL     1      40.178 -14.403  -2.251  1.00  0.00     0.014 A 
HETATM    9  C   UNL     1      38.446 -13.466  -0.859  1.00  0.00     0.046 A 
HETATM   10  C   UNL     1      39.572 -13.838  -3.377  1.00  0.00     0.001 A 
HETATM   11  C   UNL     1      38.405 -13.086  -3.246  1.00  0.00     0.001 A 
HETATM   12  C   UNL     1      37.838 -12.900  -1.986  1.00  0.00     0.018 A 
HETATM   13  C   UNL     1      37.849 -13.285   0.471  1.00  0.00     0.272 A 
HETATM   14  O   UNL     1      36.823 -12.636   0.634  1.00  0.00    -0.266 OA
HETATM   15  N   UNL     1      38.506 -13.888   1.515  1.00  0.00    -0.243 N 
HETATM   16  N   UNL     1      39.652 -14.615   1.432  1.00  0.00    -0.175 NA
HETATM   17  H   UNL     1      38.095 -13.770   2.437  1.00  0.00     0.192 HD
ENDBRANCH   5   6
ENDBRANCH   1   5
BRANCH   2  18
HETATM   18  C   UNL     1      43.411 -18.047   2.357  1.00  0.00     0.035 A 
HETATM   19  C   UNL     1      43.548 -19.360   1.902  1.00  0.00     0.047 A 
HETATM   20  C   UNL     1      44.037 -20.383   2.744  1.00  0.00     0.071 A 
HETATM   21  C   UNL     1      44.384 -20.060   4.060  1.00  0.00     0.049 A 
HETATM   22 CL   UNL     1      44.990 -21.237   5.168  1.00  0.00    -0.083 Cl
HETATM   23  C   UNL     1      44.248 -18.750   4.523  1.00  0.00     0.027 A 
HETATM   24  C   UNL     1      43.766 -17.750   3.676  1.00  0.00     0.031 A 
BRANCH  20  25
HETATM   25  C   UNL     1      44.175 -21.786   2.219  1.00  0.00     0.419 C 
HETATM   26  F   UNL     1      45.359 -22.014   1.581  1.00  0.00    -0.166 F 
HETATM   27  F   UNL     1      44.112 -22.729   3.200  1.00  0.00    -0.166 F 
HETATM   28  F   UNL     1      43.212 -22.111   1.312  1.00  0.00    -0.166 F 
ENDBRANCH  20  25
ENDBRANCH   2  18
TORSDOF 4
ENDMDL
MODEL 7
REMARK VINA RESULT:      -8.4      4.687      8.236
REMARK  4 active torsions:
REMARK  status: ('A' for Active; 'I' for Inactive)
REMARK    1  A    between atoms: C_9  and  C_10 
REMARK    2  A    between atoms: C_10  and  C_11 
REMARK       I    between atoms: C_11  and  N_12 
REMARK    3  A    between atoms: N_12  and  C_13 
REMARK    4  A    between atoms: C_15  and  C_16 
ROOT
HETATM    1  C   UNL     1      40.604 -16.150   1.993  1.00  0.00     0.227 C 
HETATM    2  N   UNL     1      41.927 -16.111   2.362  1.00  0.00    -0.327 N 
HETATM    3  O   UNL     1      39.867 -17.129   2.110  1.00  0.00    -0.273 OA
HETATM    4  H   UNL     1      42.397 -15.216   2.211  1.00  0.00     0.169 HD
ENDROOT
BRANCH   1   5
HETATM    5  C   UNL     1      40.016 -14.877   1.411  1.00  0.00     0.165 C 
BRANCH   5   6
HETATM    6  C   UNL     1      40.893 -13.758   0.879  1.00  0.00     0.074 A 
HETATM    7  C   UNL     1      41.226 -13.760  -0.573  1.00  0.00     0.006 A 
HETATM    8  C   UNL     1      40.758 -14.731  -1.467  1.00  0.00     0.014 A 
HETATM    9  C   UNL     1      42.042 -12.734  -1.046  1.00  0.00     0.046 A 
HETATM   10  C   UNL     1      41.117 -14.672  -2.817  1.00  0.00     0.001 A 
HETATM   11  C   UNL     1      41.939 -13.646  -3.282  1.00  0.00     0.001 A 
HETATM   12  C   UNL     1      42.402 -12.673  -2.397  1.00  0.00     0.018 A 
HETATM   13  C   UNL     1      42.515 -11.706  -0.109  1.00  0.00     0.272 A 
HETATM   14  O   UNL     1      43.236 -10.785  -0.473  1.00  0.00    -0.266 OA
HETATM   15  N   UNL     1      42.099 -11.839   1.194  1.00  0.00    -0.243 N 
HETATM   16  N   UNL     1      41.313 -12.831   1.690  1.00  0.00    -0.175 NA
HETATM   17  H   UNL     1      42.421 -11.128   1.845  1.00  0.00     0.192 HD
ENDBRANCH   5   6
ENDBRANCH   1   5
BRANCH   2  18
HETATM   18  C   UNL     1      42.716 -17.140   2.908  1.00  0.00     0.035 A 
HETATM   19  C   UNL     1      43.222 -17.138   4.210  1.00  0.00     0.047 A 
HETATM   20  C   UNL     1      44.004 -18.208   4.698  1.00  0.00     0.071 A 
HETATM   21  C   UNL     1      44.273 -19.285   3.847  1.00  0.00     0.049 A 
HETATM   22 CL   UNL     1      45.218 -20.640   4.346  1.00  0.00    -0.083 Cl
HETATM   23  C   UNL     1      43.772 -19.295   2.543  1.00  0.00     0.027 A 
HETATM   24  C   UNL     1      42.998 -18.229   2.078  1.00  0.00     0.031 A 
BRANCH  20  25
HETATM   25  C   UNL     1      44.529 -18.173   6.107  1.00  0.00     0.419 C 
HETATM   26  F   UNL     1      45.891 -18.158   6.181  1.00  0.00    -0.166 F 
HETATM   27  F   UNL     1      44.123 -17.069   6.797  1.00  0.00    -0.166 F 
HETATM   28  F   UNL     1      44.142 -19.250   6.846  1.00  0.00    -0.166 F 
ENDBRANCH  20  25
ENDBRANCH   2  18
TORSDOF 4
ENDMDL
MODEL 8
REMARK VINA RESULT:      -8.4      4.581      8.841
REMARK  4 active torsions:
REMARK  status: ('A' for Active; 'I' for Inactive)
REMARK    1  A    between atoms: C_9  and  C_10 
REMARK    2  A    between atoms: C_10  and  C_11 
REMARK       I    between atoms: C_11  and  N_12 
REMARK    3  A    between atoms: N_12  and  C_13 
REMARK    4  A    between atoms: C_15  and  C_16 
ROOT
HETATM    1  C   UNL     1      41.700 -15.686   2.346  1.00  0.00     0.227 C 
HETATM    2  N   UNL     1      41.628 -17.058   2.348  1.00  0.00    -0.327 N 
HETATM    3  O   UNL     1      42.582 -15.025   2.897  1.00  0.00    -0.273 OA
HETATM    4  H   UNL     1      40.840 -17.454   1.832  1.00  0.00     0.169 HD
ENDROOT
BRANCH   1   5
HETATM    5  C   UNL     1      40.614 -14.942   1.592  1.00  0.00     0.165 C 
BRANCH   5   6
HETATM    6  C   UNL     1      40.545 -14.943   0.075  1.00  0.00     0.074 A 
HETATM    7  C   UNL     1      39.515 -14.089  -0.579  1.00  0.00     0.006 A 
HETATM    8  C   UNL     1      38.623 -13.278   0.133  1.00  0.00     0.014 A 
HETATM    9  C   UNL     1      39.455 -14.109  -1.972  1.00  0.00     0.046 A 
HETATM   10  C   UNL     1      37.678 -12.507  -0.550  1.00  0.00     0.001 A 
HETATM   11  C   UNL     1      37.620 -12.536  -1.943  1.00  0.00     0.001 A 
HETATM   12  C   UNL     1      38.510 -13.337  -2.657  1.00  0.00     0.018 A 
HETATM   13  C   UNL     1      40.405 -14.946  -2.717  1.00  0.00     0.272 A 
HETATM   14  O   UNL     1      40.394 -15.000  -3.941  1.00  0.00    -0.266 OA
HETATM   15  N   UNL     1      41.306 -15.657  -1.962  1.00  0.00    -0.243 N 
HETATM   16  N   UNL     1      41.385 -15.668  -0.605  1.00  0.00    -0.175 NA
HETATM   17  H   UNL     1      41.968 -16.235  -2.473  1.00  0.00     0.192 HD
ENDBRANCH   5   6
ENDBRANCH   1   5
BRANCH   2  18
HETATM   18  C   UNL     1      42.487 -17.982   2.973  1.00  0.00     0.035 A 
HETATM   19  C   UNL     1      42.663 -18.081   4.355  1.00  0.00     0.047 A 
HETATM   20  C   UNL     1      43.539 -19.035   4.918  1.00  0.00     0.071 A 
HETATM   21  C   UNL     1      44.239 -19.891   4.062  1.00  0.00     0.049 A 
HETATM   22 CL   UNL     1      45.331 -21.091   4.650  1.00  0.00    -0.083 Cl
HETATM   23  C   UNL     1      44.069 -19.798   2.679  1.00  0.00     0.027 A 
HETATM   24  C   UNL     1      43.197 -18.850   2.139  1.00  0.00     0.031 A 
BRANCH  20  25
HETATM   25  C   UNL     1      43.701 -19.115   6.411  1.00  0.00     0.419 C 
HETATM   26  F   UNL     1      44.957 -18.798   6.840  1.00  0.00    -0.166 F 
HETATM   27  F   UNL     1      42.872 -18.267   7.082  1.00  0.00    -0.166 F 
HETATM   28  F   UNL     1      43.459 -20.361   6.907  1.00  0.00    -0.166 F 
ENDBRANCH  20  25
ENDBRANCH   2  18
TORSDOF 4
ENDMDL
MODEL 9
REMARK VINA RESULT:      -8.1      4.614      8.463
REMARK  4 active torsions:
REMARK  status: ('A' for Active; 'I' for Inactive)
REMARK    1  A    between atoms: C_9  and  C_10 
REMARK    2  A    between atoms: C_10  and  C_11 
REMARK       I    between atoms: C_11  and  N_12 
REMARK    3  A    between atoms: N_12  and  C_13 
REMARK    4  A    between atoms: C_15  and  C_16 
ROOT
HETATM    1  C   UNL     1      41.941 -16.534   1.136  1.00  0.00     0.227 C 
HETATM    2  N   UNL     1      43.094 -16.620   1.878  1.00  0.00    -0.327 N 
HETATM    3  O   UNL     1      41.068 -17.401   1.083  1.00  0.00    -0.273 OA
HETATM    4  H   UNL     1      43.710 -15.807   1.824  1.00  0.00     0.169 HD
ENDROOT
BRANCH   1   5
HETATM    5  C   UNL     1      41.733 -15.260   0.337  1.00  0.00     0.165 C 
BRANCH   5   6
HETATM    6  C   UNL     1      41.423 -13.934   1.008  1.00  0.00     0.074 A 
HETATM    7  C   UNL     1      40.011 -13.463   1.011  1.00  0.00     0.006 A 
HETATM    8  C   UNL     1      38.957 -14.190   0.442  1.00  0.00     0.014 A 
HETATM    9  C   UNL     1      39.743 -12.238   1.619  1.00  0.00     0.046 A 
HETATM   10  C   UNL     1      37.655 -13.683   0.478  1.00  0.00     0.001 A 
HETATM   11  C   UNL     1      37.396 -12.453   1.083  1.00  0.00     0.001 A 
HETATM   12  C   UNL     1      38.440 -11.729   1.657  1.00  0.00     0.018 A 
HETATM   13  C   UNL     1      40.847 -11.487   2.232  1.00  0.00     0.272 A 
HETATM   14  O   UNL     1      40.666 -10.405   2.777  1.00  0.00    -0.266 OA
HETATM   15  N   UNL     1      42.088 -12.071   2.160  1.00  0.00    -0.243 N 
HETATM   16  N   UNL     1      42.385 -13.258   1.567  1.00  0.00    -0.175 NA
HETATM   17  H   UNL     1      42.855 -11.558   2.586  1.00  0.00     0.192 HD
ENDBRANCH   5   6
ENDBRANCH   1   5
BRANCH   2  18
HETATM   18  C   UNL     1      43.537 -17.682   2.690  1.00  0.00     0.035 A 
HETATM   19  C   UNL     1      43.566 -17.645   4.086  1.00  0.00     0.047 A 
HETATM   20  C   UNL     1      44.019 -18.750   4.841  1.00  0.00     0.071 A 
HETATM   21  C   UNL     1      44.447 -19.896   4.163  1.00  0.00     0.049 A 
HETATM   22 CL   UNL     1      45.017 -21.298   4.993  1.00  0.00    -0.083 Cl
HETATM   23  C   UNL     1      44.422 -19.940   2.768  1.00  0.00     0.027 A 
HETATM   24  C   UNL     1      43.969 -18.840   2.037  1.00  0.00     0.031 A 
BRANCH  20  25
HETATM   25  C   UNL     1      44.033 -18.676   6.343  1.00  0.00     0.419 C 
HETATM   26  F   UNL     1      45.285 -18.550   6.871  1.00  0.00    -0.166 F 
HETATM   27  F   UNL     1      43.334 -17.612   6.829  1.00  0.00    -0.166 F 
HETATM   28  F   UNL     1      43.506 -19.784   6.935  1.00  0.00    -0.166 F 
ENDBRANCH  20  25
ENDBRANCH   2  18
TORSDOF 4
ENDMDL
MODEL 10
REMARK VINA RESULT:      -8.0      4.492      8.584
REMARK  4 active torsions:
REMARK  status: ('A' for Active; 'I' for Inactive)
REMARK    1  A    between atoms: C_9  and  C_10 
REMARK    2  A    between atoms: C_10  and  C_11 
REMARK       I    between atoms: C_11  and  N_12 
REMARK    3  A    between atoms: N_12  and  C_13 
REMARK    4  A    between atoms: C_15  and  C_16 
ROOT
HETATM    1  C   UNL     1      42.155 -16.453   1.088  1.00  0.00     0.227 C 
HETATM    2  N   UNL     1      43.319 -16.640   1.793  1.00  0.00    -0.327 N 
HETATM    3  O   UNL     1      41.192 -17.220   1.100  1.00  0.00    -0.273 OA
HETATM    4  H   UNL     1      44.018 -15.903   1.685  1.00  0.00     0.169 HD
ENDROOT
BRANCH   1   5
HETATM    5  C   UNL     1      42.056 -15.193   0.247  1.00  0.00     0.165 C 
BRANCH   5   6
HETATM    6  C   UNL     1      40.731 -14.495   0.001  1.00  0.00     0.074 A 
HETATM    7  C   UNL     1      40.068 -14.695  -1.317  1.00  0.00     0.006 A 
HETATM    8  C   UNL     1      40.599 -15.505  -2.329  1.00  0.00     0.014 A 
HETATM    9  C   UNL     1      38.858 -14.038  -1.534  1.00  0.00     0.046 A 
HETATM   10  C   UNL     1      39.923 -15.641  -3.545  1.00  0.00     0.001 A 
HETATM   11  C   UNL     1      38.715 -14.976  -3.757  1.00  0.00     0.001 A 
HETATM   12  C   UNL     1      38.179 -14.174  -2.751  1.00  0.00     0.018 A 
HETATM   13  C   UNL     1      38.294 -13.204  -0.463  1.00  0.00     0.272 A 
HETATM   14  O   UNL     1      37.235 -12.605  -0.604  1.00  0.00    -0.266 OA
HETATM   15  N   UNL     1      39.021 -13.142   0.700  1.00  0.00    -0.243 N 
HETATM   16  N   UNL     1      40.207 -13.761   0.941  1.00  0.00    -0.175 NA
HETATM   17  H   UNL     1      38.634 -12.570   1.445  1.00  0.00     0.192 HD
ENDBRANCH   5   6
ENDBRANCH   1   5
BRANCH   2  18
HETATM   18  C   UNL     1      43.676 -17.715   2.629  1.00  0.00     0.035 A 
HETATM   19  C   UNL     1      43.681 -17.657   4.025  1.00  0.00     0.047 A 
HETATM   20  C   UNL     1      44.045 -18.777   4.806  1.00  0.00     0.071 A 
HETATM   21  C   UNL     1      44.407 -19.960   4.155  1.00  0.00     0.049 A 
HETATM   22 CL   UNL     1      44.867 -21.382   5.018  1.00  0.00    -0.083 Cl
HETATM   23  C   UNL     1      44.405 -20.025   2.760  1.00  0.00     0.027 A 
HETATM   24  C   UNL     1      44.041 -18.910   2.003  1.00  0.00     0.031 A 
BRANCH  20  25
HETATM   25  C   UNL     1      44.036 -18.678   6.307  1.00  0.00     0.419 C 
HETATM   26  F   UNL     1      45.280 -18.547   6.852  1.00  0.00    -0.166 F 
HETATM   27  F   UNL     1      43.332 -17.605   6.765  1.00  0.00    -0.166 F 
HETATM   28  F   UNL     1      43.496 -19.775   6.908  1.00  0.00    -0.166 F 
ENDBRANCH  20  25
ENDBRANCH   2  18
TORSDOF 4
ENDMDL
