MODEL 1
REMARK VINA RESULT:      -7.8      0.000      0.000
REMARK  4 active torsions:
REMARK  status: ('A' for Active; 'I' for Inactive)
REMARK    1  A    between atoms: C_4  and  N_5 
REMARK       I    between atoms: N_5  and  C_6 
REMARK    2  A    between atoms: C_6  and  C_7 
REMARK    3  A    between atoms: C_11  and  C_12 
REMARK    4  A    between atoms: C_18  and  N_19 
REMARK       I    between atoms: N_19  and  C_20 
ROOT
HETATM    1  N   UNL     1      42.394 -17.881   2.152  1.00  0.00    -0.320 N 
HETATM    2  C   UNL     1      42.861 -16.757   1.503  1.00  0.00     0.276 C 
HETATM    3  O   UNL     1      44.039 -16.499   1.283  1.00  0.00    -0.266 OA
HETATM    4  H   UNL     1      41.394 -18.044   2.065  1.00  0.00     0.169 HD
ENDROOT
BRANCH   1   5
HETATM    5  C   UNL     1      43.123 -18.933   2.760  1.00  0.00     0.062 A 
HETATM    6  C   UNL     1      43.490 -20.072   2.019  1.00  0.00     0.038 A 
HETATM    7  C   UNL     1      44.261 -21.107   2.569  1.00  0.00    -0.060 A 
HETATM    8  C   UNL     1      44.637 -22.304   1.746  1.00  0.00     0.048 C 
HETATM    9  C   UNL     1      44.717 -20.985   3.876  1.00  0.00     0.009 A 
HETATM   10  C   UNL     1      44.376 -19.862   4.627  1.00  0.00     0.032 A 
HETATM   11  C   UNL     1      43.561 -18.837   4.104  1.00  0.00     0.061 A 
BRANCH  11  12
HETATM   12  N   UNL     1      43.307 -17.790   5.032  1.00  0.00    -0.326 N 
HETATM   13  C   UNL     1      42.108 -17.281   5.477  1.00  0.00     0.218 C 
HETATM   14  C   UNL     1      42.279 -16.137   6.443  1.00  0.00     0.117 C 
HETATM   15  O   UNL     1      40.994 -17.693   5.177  1.00  0.00    -0.274 OA
HETATM   16  H   UNL     1      44.117 -17.480   5.554  1.00  0.00     0.169 HD
ENDBRANCH  11  12
ENDBRANCH   1   5
BRANCH   2  17
HETATM   17  C   UNL     1      41.839 -15.867   1.011  1.00  0.00     0.142 A 
HETATM   18  N   UNL     1      41.734 -15.609  -0.332  1.00  0.00    -0.271 N 
HETATM   19  H   UNL     1      42.332 -15.978  -1.065  1.00  0.00     0.189 HD
HETATM   20  N   UNL     1      40.715 -14.804  -0.668  1.00  0.00    -0.177 NA
HETATM   21  C   UNL     1      40.172 -14.486   0.514  1.00  0.00     0.083 A 
HETATM   22  C   UNL     1      40.858 -15.090   1.596  1.00  0.00     0.094 A 
HETATM   23 CL   UNL     1      40.540 -14.842   3.246  1.00  0.00    -0.079 Cl
BRANCH  21  24
HETATM   24  C   UNL     1      38.955 -13.575   0.645  1.00  0.00     0.041 A 
HETATM   25  C   UNL     1      37.925 -13.563  -0.466  1.00  0.00     0.011 A 
HETATM   26  C   UNL     1      37.593 -14.216   0.831  1.00  0.00     0.011 A 
ENDBRANCH  21  24
ENDBRANCH   2  17
TORSDOF 4
ENDMDL
MODEL 2
REMARK VINA RESULT:      -7.7      2.214      2.558
REMARK  4 active torsions:
REMARK  status: ('A' for Active; 'I' for Inactive)
REMARK    1  A    between atoms: C_4  and  N_5 
REMARK       I    between atoms: N_5  and  C_6 
REMARK    2  A    between atoms: C_6  and  C_7 
REMARK    3  A    between atoms: C_11  and  C_12 
REMARK    4  A    between atoms: C_18  and  N_19 
REMARK       I    between atoms: N_19  and  C_20 
ROOT
HETATM    1  N   UNL     1      43.395 -17.050   2.443  1.00  0.00    -0.320 N 
HETATM    2  C   UNL     1      42.164 -16.428   2.457  1.00  0.00     0.276 C 
HETATM    3  O   UNL     1      41.146 -16.873   2.977  1.00  0.00    -0.266 OA
HETATM    4  H   UNL     1      44.173 -16.460   2.160  1.00  0.00     0.169 HD
ENDROOT
BRANCH   1   5
HETATM    5  C   UNL     1      43.760 -18.326   2.939  1.00  0.00     0.062 A 
HETATM    6  C   UNL     1      43.771 -19.450   2.092  1.00  0.00     0.038 A 
HETATM    7  C   UNL     1      44.181 -20.717   2.532  1.00  0.00    -0.060 A 
HETATM    8  C   UNL     1      44.184 -21.890   1.596  1.00  0.00     0.048 C 
HETATM    9  C   UNL     1      44.634 -20.861   3.837  1.00  0.00     0.009 A 
HETATM   10  C   UNL     1      44.643 -19.762   4.694  1.00  0.00     0.032 A 
HETATM   11  C   UNL     1      44.188 -18.493   4.280  1.00  0.00     0.061 A 
BRANCH  11  12
HETATM   12  N   UNL     1      44.253 -17.509   5.305  1.00  0.00    -0.326 N 
HETATM   13  C   UNL     1      43.261 -17.033   6.131  1.00  0.00     0.218 C 
HETATM   14  C   UNL     1      43.744 -15.953   7.065  1.00  0.00     0.117 C 
HETATM   15  O   UNL     1      42.101 -17.427   6.168  1.00  0.00    -0.274 OA
HETATM   16  H   UNL     1      45.191 -17.231   5.567  1.00  0.00     0.169 HD
ENDBRANCH  11  12
ENDBRANCH   1   5
BRANCH   2  17
HETATM   17  C   UNL     1      42.132 -15.123   1.845  1.00  0.00     0.142 A 
HETATM   18  N   UNL     1      42.544 -14.019   2.547  1.00  0.00    -0.271 N 
HETATM   19  H   UNL     1      42.874 -14.004   3.507  1.00  0.00     0.189 HD
HETATM   20  N   UNL     1      42.512 -12.872   1.852  1.00  0.00    -0.177 NA
HETATM   21  C   UNL     1      42.008 -13.243   0.669  1.00  0.00     0.083 A 
HETATM   22  C   UNL     1      41.716 -14.628   0.624  1.00  0.00     0.094 A 
HETATM   23 CL   UNL     1      40.968 -15.453  -0.660  1.00  0.00    -0.079 Cl
BRANCH  21  24
HETATM   24  C   UNL     1      41.784 -12.261  -0.478  1.00  0.00     0.041 A 
HETATM   25  C   UNL     1      42.799 -11.159  -0.707  1.00  0.00     0.011 A 
HETATM   26  C   UNL     1      42.737 -12.305  -1.657  1.00  0.00     0.011 A 
ENDBRANCH  21  24
ENDBRANCH   2  17
TORSDOF 4
ENDMDL
MODEL 3
REMARK VINA RESULT:      -7.7      1.998      2.306
REMARK  4 active torsions:
REMARK  status: ('A' for Active; 'I' for Inactive)
REMARK    1  A    between atoms: C_4  and  N_5 
REMARK       I    between atoms: N_5  and  C_6 
REMARK    2  A    between atoms: C_6  and  C_7 
REMARK    3  A    between atoms: C_11  and  C_12 
REMARK    4  A    between atoms: C_18  and  N_19 
REMARK       I    between atoms: N_19  and  C_20 
ROOT
HETATM    1  N   UNL     1      42.930 -17.197   1.412  1.00  0.00    -0.320 N 
HETATM    2  C   UNL     1      41.642 -16.870   1.044  1.00  0.00     0.276 C 
HETATM    3  O   UNL     1      40.622 -17.409   1.461  1.00  0.00    -0.266 OA
HETATM    4  H   UNL     1      43.640 -16.521   1.142  1.00  0.00     0.169 HD
ENDROOT
BRANCH   1   5
HETATM    5  C   UNL     1      43.382 -18.233   2.267  1.00  0.00     0.062 A 
HETATM    6  C   UNL     1      43.645 -19.518   1.759  1.00  0.00     0.038 A 
HETATM    7  C   UNL     1      44.147 -20.554   2.562  1.00  0.00    -0.060 A 
HETATM    8  C   UNL     1      44.420 -21.910   1.983  1.00  0.00     0.048 C 
HETATM    9  C   UNL     1      44.439 -20.290   3.895  1.00  0.00     0.009 A 
HETATM   10  C   UNL     1      44.197 -19.021   4.420  1.00  0.00     0.032 A 
HETATM   11  C   UNL     1      43.646 -17.985   3.638  1.00  0.00     0.061 A 
BRANCH  11  12
HETATM   12  N   UNL     1      43.452 -16.776   4.360  1.00  0.00    -0.326 N 
HETATM   13  C   UNL     1      42.286 -16.196   4.806  1.00  0.00     0.218 C 
HETATM   14  C   UNL     1      42.517 -14.881   5.506  1.00  0.00     0.117 C 
HETATM   15  O   UNL     1      41.159 -16.666   4.700  1.00  0.00    -0.274 OA
HETATM   16  H   UNL     1      44.299 -16.363   4.731  1.00  0.00     0.169 HD
ENDBRANCH  11  12
ENDBRANCH   1   5
BRANCH   2  17
HETATM   17  C   UNL     1      41.530 -15.757   0.134  1.00  0.00     0.142 A 
HETATM   18  N   UNL     1      41.206 -15.969  -1.182  1.00  0.00    -0.271 N 
HETATM   19  H   UNL     1      41.039 -16.868  -1.624  1.00  0.00     0.189 HD
HETATM   20  N   UNL     1      41.086 -14.852  -1.915  1.00  0.00    -0.177 NA
HETATM   21  C   UNL     1      41.398 -13.881  -1.048  1.00  0.00     0.083 A 
HETATM   22  C   UNL     1      41.722 -14.393   0.232  1.00  0.00     0.094 A 
HETATM   23 CL   UNL     1      42.272 -13.489   1.562  1.00  0.00    -0.079 Cl
BRANCH  21  24
HETATM   24  C   UNL     1      41.398 -12.403  -1.428  1.00  0.00     0.041 A 
HETATM   25  C   UNL     1      42.696 -11.626  -1.349  1.00  0.00     0.011 A 
HETATM   26  C   UNL     1      42.139 -11.984  -2.684  1.00  0.00     0.011 A 
ENDBRANCH  21  24
ENDBRANCH   2  17
TORSDOF 4
ENDMDL
MODEL 4
REMARK VINA RESULT:      -7.4      2.779      3.149
REMARK  4 active torsions:
REMARK  status: ('A' for Active; 'I' for Inactive)
REMARK    1  A    between atoms: C_4  and  N_5 
REMARK       I    between atoms: N_5  and  C_6 
REMARK    2  A    between atoms: C_6  and  C_7 
REMARK    3  A    between atoms: C_11  and  C_12 
REMARK    4  A    between atoms: C_18  and  N_19 
REMARK       I    between atoms: N_19  and  C_20 
ROOT
HETATM    1  N   UNL     1      42.806 -17.624   3.889  1.00  0.00    -0.320 N 
HETATM    2  C   UNL     1      41.583 -17.178   4.344  1.00  0.00     0.276 C 
HETATM    3  O   UNL     1      40.811 -17.813   5.054  1.00  0.00    -0.266 OA
HETATM    4  H   UNL     1      43.407 -16.906   3.493  1.00  0.00     0.169 HD
ENDROOT
BRANCH   1   5
HETATM    5  C   UNL     1      43.418 -18.891   4.063  1.00  0.00     0.062 A 
HETATM    6  C   UNL     1      43.757 -19.682   2.949  1.00  0.00     0.038 A 
HETATM    7  C   UNL     1      44.415 -20.914   3.077  1.00  0.00    -0.060 A 
HETATM    8  C   UNL     1      44.764 -21.727   1.866  1.00  0.00     0.048 C 
HETATM    9  C   UNL     1      44.787 -21.349   4.344  1.00  0.00     0.009 A 
HETATM   10  C   UNL     1      44.472 -20.579   5.462  1.00  0.00     0.032 A 
HETATM   11  C   UNL     1      43.768 -19.363   5.353  1.00  0.00     0.061 A 
BRANCH  11  12
HETATM   12  N   UNL     1      43.522 -18.739   6.606  1.00  0.00    -0.326 N 
HETATM   13  C   UNL     1      43.967 -17.530   7.089  1.00  0.00     0.218 C 
HETATM   14  C   UNL     1      43.503 -17.255   8.497  1.00  0.00     0.117 C 
HETATM   15  O   UNL     1      44.643 -16.712   6.477  1.00  0.00    -0.274 OA
HETATM   16  H   UNL     1      42.795 -19.175   7.162  1.00  0.00     0.169 HD
ENDBRANCH  11  12
ENDBRANCH   1   5
BRANCH   2  17
HETATM   17  C   UNL     1      41.250 -15.825   3.972  1.00  0.00     0.142 A 
HETATM   18  N   UNL     1      40.003 -15.529   3.484  1.00  0.00    -0.271 N 
HETATM   19  H   UNL     1      39.245 -16.186   3.328  1.00  0.00     0.189 HD
HETATM   20  N   UNL     1      39.801 -14.229   3.220  1.00  0.00    -0.177 NA
HETATM   21  C   UNL     1      40.986 -13.671   3.500  1.00  0.00     0.083 A 
HETATM   22  C   UNL     1      41.936 -14.627   3.934  1.00  0.00     0.094 A 
HETATM   23 CL   UNL     1      43.573 -14.326   4.277  1.00  0.00    -0.079 Cl
BRANCH  21  24
HETATM   24  C   UNL     1      41.249 -12.175   3.354  1.00  0.00     0.041 A 
HETATM   25  C   UNL     1      40.135 -11.200   3.680  1.00  0.00     0.011 A 
HETATM   26  C   UNL     1      41.291 -11.327   4.612  1.00  0.00     0.011 A 
ENDBRANCH  21  24
ENDBRANCH   2  17
TORSDOF 4
ENDMDL
MODEL 5
REMARK VINA RESULT:      -7.4      2.565      7.207
REMARK  4 active torsions:
REMARK  status: ('A' for Active; 'I' for Inactive)
REMARK    1  A    between atoms: C_4  and  N_5 
REMARK       I    between atoms: N_5  and  C_6 
REMARK    2  A    between atoms: C_6  and  C_7 
REMARK    3  A    between atoms: C_11  and  C_12 
REMARK    4  A    between atoms: C_18  and  N_19 
REMARK       I    between atoms: N_19  and  C_20 
ROOT
HETATM    1  N   UNL     1      41.676 -16.066   3.955  1.00  0.00    -0.320 N 
HETATM    2  C   UNL     1      42.928 -16.320   4.475  1.00  0.00     0.276 C 
HETATM    3  O   UNL     1      43.575 -15.555   5.182  1.00  0.00    -0.266 OA
HETATM    4  H   UNL     1      41.196 -16.876   3.573  1.00  0.00     0.169 HD
ENDROOT
BRANCH   1   5
HETATM    5  C   UNL     1      40.891 -14.889   4.044  1.00  0.00     0.062 A 
HETATM    6  C   UNL     1      40.482 -14.393   5.296  1.00  0.00     0.038 A 
HETATM    7  C   UNL     1      39.754 -13.201   5.429  1.00  0.00    -0.060 A 
HETATM    8  C   UNL     1      39.340 -12.702   6.781  1.00  0.00     0.048 C 
HETATM    9  C   UNL     1      39.464 -12.461   4.290  1.00  0.00     0.009 A 
HETATM   10  C   UNL     1      39.866 -12.925   3.038  1.00  0.00     0.032 A 
HETATM   11  C   UNL     1      40.556 -14.146   2.885  1.00  0.00     0.061 A 
BRANCH  11  12
HETATM   12  N   UNL     1      40.857 -14.456   1.531  1.00  0.00    -0.326 N 
HETATM   13  C   UNL     1      40.849 -15.672   0.885  1.00  0.00     0.218 C 
HETATM   14  C   UNL     1      41.271 -15.571  -0.558  1.00  0.00     0.117 C 
HETATM   15  O   UNL     1      40.515 -16.746   1.372  1.00  0.00    -0.274 OA
HETATM   16  H   UNL     1      40.939 -13.654   0.920  1.00  0.00     0.169 HD
ENDBRANCH  11  12
ENDBRANCH   1   5
BRANCH   2  17
HETATM   17  C   UNL     1      43.457 -17.629   4.182  1.00  0.00     0.142 A 
HETATM   18  N   UNL     1      43.691 -18.523   5.195  1.00  0.00    -0.271 N 
HETATM   19  H   UNL     1      43.543 -18.363   6.187  1.00  0.00     0.189 HD
HETATM   20  N   UNL     1      44.137 -19.722   4.789  1.00  0.00    -0.177 NA
HETATM   21  C   UNL     1      44.247 -19.576   3.463  1.00  0.00     0.083 A 
HETATM   22  C   UNL     1      43.874 -18.278   3.037  1.00  0.00     0.094 A 
HETATM   23 CL   UNL     1      43.980 -17.677   1.451  1.00  0.00    -0.079 Cl
BRANCH  21  24
HETATM   24  C   UNL     1      44.724 -20.698   2.546  1.00  0.00     0.041 A 
HETATM   25  C   UNL     1      44.425 -22.134   2.929  1.00  0.00     0.011 A 
HETATM   26  C   UNL     1      43.681 -21.509   1.800  1.00  0.00     0.011 A 
ENDBRANCH  21  24
ENDBRANCH   2  17
TORSDOF 4
ENDMDL
MODEL 6
REMARK VINA RESULT:      -7.1      2.052      2.433
REMARK  4 active torsions:
REMARK  status: ('A' for Active; 'I' for Inactive)
REMARK    1  A    between atoms: C_4  and  N_5 
REMARK       I    between atoms: N_5  and  C_6 
REMARK    2  A    between atoms: C_6  and  C_7 
REMARK    3  A    between atoms: C_11  and  C_12 
REMARK    4  A    between atoms: C_18  and  N_19 
REMARK       I    between atoms: N_19  and  C_20 
ROOT
HETATM    1  N   UNL     1      42.432 -17.681   3.437  1.00  0.00    -0.320 N 
HETATM    2  C   UNL     1      41.266 -17.270   4.049  1.00  0.00     0.276 C 
HETATM    3  O   UNL     1      40.711 -17.841   4.982  1.00  0.00    -0.266 OA
HETATM    4  H   UNL     1      42.867 -16.990   2.831  1.00  0.00     0.169 HD
ENDROOT
BRANCH   1   5
HETATM    5  C   UNL     1      43.205 -18.846   3.672  1.00  0.00     0.062 A 
HETATM    6  C   UNL     1      43.488 -19.741   2.624  1.00  0.00     0.038 A 
HETATM    7  C   UNL     1      44.297 -20.874   2.804  1.00  0.00    -0.060 A 
HETATM    8  C   UNL     1      44.580 -21.804   1.661  1.00  0.00     0.048 C 
HETATM    9  C   UNL     1      44.875 -21.096   4.048  1.00  0.00     0.009 A 
HETATM   10  C   UNL     1      44.618 -20.218   5.099  1.00  0.00     0.032 A 
HETATM   11  C   UNL     1      43.768 -19.103   4.946  1.00  0.00     0.061 A 
BRANCH  11  12
HETATM   12  N   UNL     1      43.614 -18.345   6.139  1.00  0.00    -0.326 N 
HETATM   13  C   UNL     1      43.825 -17.003   6.361  1.00  0.00     0.218 C 
HETATM   14  C   UNL     1      43.579 -16.601   7.793  1.00  0.00     0.117 C 
HETATM   15  O   UNL     1      44.148 -16.174   5.519  1.00  0.00    -0.274 OA
HETATM   16  H   UNL     1      43.136 -18.828   6.890  1.00  0.00     0.169 HD
ENDBRANCH  11  12
ENDBRANCH   1   5
BRANCH   2  17
HETATM   17  C   UNL     1      40.722 -16.030   3.555  1.00  0.00     0.142 A 
HETATM   18  N   UNL     1      40.153 -15.130   4.421  1.00  0.00    -0.271 N 
HETATM   19  H   UNL     1      40.049 -15.243   5.425  1.00  0.00     0.189 HD
HETATM   20  N   UNL     1      39.727 -13.995   3.846  1.00  0.00    -0.177 NA
HETATM   21  C   UNL     1      39.983 -14.194   2.548  1.00  0.00     0.083 A 
HETATM   22  C   UNL     1      40.566 -15.461   2.306  1.00  0.00     0.094 A 
HETATM   23 CL   UNL     1      40.934 -16.121   0.784  1.00  0.00    -0.079 Cl
BRANCH  21  24
HETATM   24  C   UNL     1      39.669 -13.154   1.476  1.00  0.00     0.041 A 
HETATM   25  C   UNL     1      38.703 -13.515   0.365  1.00  0.00     0.011 A 
HETATM   26  C   UNL     1      38.269 -12.569   1.430  1.00  0.00     0.011 A 
ENDBRANCH  21  24
ENDBRANCH   2  17
TORSDOF 4
ENDMDL
MODEL 7
REMARK VINA RESULT:      -7.1      2.740      3.157
REMARK  4 active torsions:
REMARK  status: ('A' for Active; 'I' for Inactive)
REMARK    1  A    between atoms: C_4  and  N_5 
REMARK       I    between atoms: N_5  and  C_6 
REMARK    2  A    between atoms: C_6  and  C_7 
REMARK    3  A    between atoms: C_11  and  C_12 
REMARK    4  A    between atoms: C_18  and  N_19 
REMARK       I    between atoms: N_19  and  C_20 
ROOT
HETATM    1  N   UNL     1      42.861 -16.218   1.376  1.00  0.00    -0.320 N 
HETATM    2  C   UNL     1      41.626 -15.776   0.949  1.00  0.00     0.276 C 
HETATM    3  O   UNL     1      40.543 -16.199   1.340  1.00  0.00    -0.266 OA
HETATM    4  H   UNL     1      43.645 -15.626   1.115  1.00  0.00     0.169 HD
ENDROOT
BRANCH   1   5
HETATM    5  C   UNL     1      43.175 -17.267   2.277  1.00  0.00     0.062 A 
HETATM    6  C   UNL     1      43.479 -18.555   1.799  1.00  0.00     0.038 A 
HETATM    7  C   UNL     1      43.851 -19.603   2.655  1.00  0.00    -0.060 A 
HETATM    8  C   UNL     1      44.173 -20.962   2.108  1.00  0.00     0.048 C 
HETATM    9  C   UNL     1      43.966 -19.351   4.017  1.00  0.00     0.009 A 
HETATM   10  C   UNL     1      43.680 -18.080   4.513  1.00  0.00     0.032 A 
HETATM   11  C   UNL     1      43.258 -17.030   3.672  1.00  0.00     0.061 A 
BRANCH  11  12
HETATM   12  N   UNL     1      42.992 -15.821   4.370  1.00  0.00    -0.326 N 
HETATM   13  C   UNL     1      43.343 -14.528   4.055  1.00  0.00     0.218 C 
HETATM   14  C   UNL     1      42.894 -13.530   5.091  1.00  0.00     0.117 C 
HETATM   15  O   UNL     1      43.929 -14.166   3.041  1.00  0.00    -0.274 OA
HETATM   16  H   UNL     1      42.321 -15.905   5.124  1.00  0.00     0.169 HD
ENDBRANCH  11  12
ENDBRANCH   1   5
BRANCH   2  17
HETATM   17  C   UNL     1      41.660 -14.688   0.005  1.00  0.00     0.142 A 
HETATM   18  N   UNL     1      41.969 -13.419   0.422  1.00  0.00    -0.271 N 
HETATM   19  H   UNL     1      42.176 -13.131   1.374  1.00  0.00     0.189 HD
HETATM   20  N   UNL     1      42.016 -12.503  -0.558  1.00  0.00    -0.177 NA
HETATM   21  C   UNL     1      41.669 -13.202  -1.646  1.00  0.00     0.083 A 
HETATM   22  C   UNL     1      41.398 -14.559  -1.345  1.00  0.00     0.094 A 
HETATM   23 CL   UNL     1      40.827 -15.731  -2.435  1.00  0.00    -0.079 Cl
BRANCH  21  24
HETATM   24  C   UNL     1      41.584 -12.576  -3.035  1.00  0.00     0.041 A 
HETATM   25  C   UNL     1      40.232 -12.482  -3.715  1.00  0.00     0.011 A 
HETATM   26  C   UNL     1      40.870 -11.245  -3.182  1.00  0.00     0.011 A 
ENDBRANCH  21  24
ENDBRANCH   2  17
TORSDOF 4
ENDMDL
MODEL 8
REMARK VINA RESULT:      -7.0      2.649      3.220
REMARK  4 active torsions:
REMARK  status: ('A' for Active; 'I' for Inactive)
REMARK    1  A    between atoms: C_4  and  N_5 
REMARK       I    between atoms: N_5  and  C_6 
REMARK    2  A    between atoms: C_6  and  C_7 
REMARK    3  A    between atoms: C_11  and  C_12 
REMARK    4  A    between atoms: C_18  and  N_19 
REMARK       I    between atoms: N_19  and  C_20 
ROOT
HETATM    1  N   UNL     1      40.922 -16.606   1.279  1.00  0.00    -0.320 N 
HETATM    2  C   UNL     1      41.177 -15.353   0.763  1.00  0.00     0.276 C 
HETATM    3  O   UNL     1      42.137 -14.646   1.049  1.00  0.00    -0.266 OA
HETATM    4  H   UNL     1      40.209 -17.138   0.786  1.00  0.00     0.169 HD
ENDROOT
BRANCH   1   5
HETATM    5  C   UNL     1      41.632 -17.329   2.270  1.00  0.00     0.062 A 
HETATM    6  C   UNL     1      42.546 -18.335   1.907  1.00  0.00     0.038 A 
HETATM    7  C   UNL     1      43.310 -19.032   2.855  1.00  0.00    -0.060 A 
HETATM    8  C   UNL     1      44.278 -20.096   2.429  1.00  0.00     0.048 C 
HETATM    9  C   UNL     1      43.195 -18.687   4.196  1.00  0.00     0.009 A 
HETATM   10  C   UNL     1      42.304 -17.686   4.581  1.00  0.00     0.032 A 
HETATM   11  C   UNL     1      41.494 -17.011   3.644  1.00  0.00     0.061 A 
BRANCH  11  12
HETATM   12  N   UNL     1      40.635 -16.045   4.235  1.00  0.00    -0.326 N 
HETATM   13  C   UNL     1      40.880 -14.727   4.550  1.00  0.00     0.218 C 
HETATM   14  C   UNL     1      39.702 -14.053   5.206  1.00  0.00     0.117 C 
HETATM   15  O   UNL     1      41.912 -14.109   4.318  1.00  0.00    -0.274 OA
HETATM   16  H   UNL     1      39.662 -16.319   4.292  1.00  0.00     0.169 HD
ENDBRANCH  11  12
ENDBRANCH   1   5
BRANCH   2  17
HETATM   17  C   UNL     1      40.237 -14.899  -0.232  1.00  0.00     0.142 A 
HETATM   18  N   UNL     1      39.080 -14.267   0.146  1.00  0.00    -0.271 N 
HETATM   19  H   UNL     1      38.778 -14.080   1.098  1.00  0.00     0.189 HD
HETATM   20  N   UNL     1      38.313 -13.850  -0.873  1.00  0.00    -0.177 NA
HETATM   21  C   UNL     1      38.977 -14.279  -1.953  1.00  0.00     0.083 A 
HETATM   22  C   UNL     1      40.162 -14.974  -1.609  1.00  0.00     0.094 A 
HETATM   23 CL   UNL     1      41.212 -15.758  -2.691  1.00  0.00    -0.079 Cl
BRANCH  21  24
HETATM   24  C   UNL     1      38.485 -14.034  -3.376  1.00  0.00     0.041 A 
HETATM   25  C   UNL     1      38.164 -15.225  -4.256  1.00  0.00     0.011 A 
HETATM   26  C   UNL     1      37.051 -14.397  -3.713  1.00  0.00     0.011 A 
ENDBRANCH  21  24
ENDBRANCH   2  17
TORSDOF 4
ENDMDL
MODEL 9
REMARK VINA RESULT:      -7.0      2.586      4.578
REMARK  4 active torsions:
REMARK  status: ('A' for Active; 'I' for Inactive)
REMARK    1  A    between atoms: C_4  and  N_5 
REMARK       I    between atoms: N_5  and  C_6 
REMARK    2  A    between atoms: C_6  and  C_7 
REMARK    3  A    between atoms: C_11  and  C_12 
REMARK    4  A    between atoms: C_18  and  N_19 
REMARK       I    between atoms: N_19  and  C_20 
ROOT
HETATM    1  N   UNL     1      43.349 -16.949   4.153  1.00  0.00    -0.320 N 
HETATM    2  C   UNL     1      42.356 -16.618   5.052  1.00  0.00     0.276 C 
HETATM    3  O   UNL     1      41.605 -17.412   5.609  1.00  0.00    -0.266 OA
HETATM    4  H   UNL     1      44.012 -16.205   3.950  1.00  0.00     0.169 HD
ENDROOT
BRANCH   1   5
HETATM    5  C   UNL     1      43.687 -18.217   3.618  1.00  0.00     0.062 A 
HETATM    6  C   UNL     1      44.242 -19.216   4.438  1.00  0.00     0.038 A 
HETATM    7  C   UNL     1      44.536 -20.502   3.959  1.00  0.00    -0.060 A 
HETATM    8  C   UNL     1      45.124 -21.543   4.866  1.00  0.00     0.048 C 
HETATM    9  C   UNL     1      44.228 -20.815   2.641  1.00  0.00     0.009 A 
HETATM   10  C   UNL     1      43.667 -19.845   1.810  1.00  0.00     0.032 A 
HETATM   11  C   UNL     1      43.412 -18.535   2.264  1.00  0.00     0.061 A 
BRANCH  11  12
HETATM   12  N   UNL     1      42.863 -17.689   1.262  1.00  0.00    -0.326 N 
HETATM   13  C   UNL     1      41.621 -17.099   1.193  1.00  0.00     0.218 C 
HETATM   14  C   UNL     1      41.422 -16.300  -0.069  1.00  0.00     0.117 C 
HETATM   15  O   UNL     1      40.745 -17.159   2.048  1.00  0.00    -0.274 OA
HETATM   16  H   UNL     1      43.531 -17.349   0.581  1.00  0.00     0.169 HD
ENDBRANCH  11  12
ENDBRANCH   1   5
BRANCH   2  17
HETATM   17  C   UNL     1      42.269 -15.216   5.378  1.00  0.00     0.142 A 
HETATM   18  N   UNL     1      43.160 -14.653   6.255  1.00  0.00    -0.271 N 
HETATM   19  H   UNL     1      43.910 -15.133   6.744  1.00  0.00     0.189 HD
HETATM   20  N   UNL     1      43.005 -13.333   6.438  1.00  0.00    -0.177 NA
HETATM   21  C   UNL     1      41.935 -13.043   5.688  1.00  0.00     0.083 A 
HETATM   22  C   UNL     1      41.413 -14.187   5.037  1.00  0.00     0.094 A 
HETATM   23 CL   UNL     1      40.003 -14.245   4.091  1.00  0.00    -0.079 Cl
BRANCH  21  24
HETATM   24  C   UNL     1      41.367 -11.631   5.571  1.00  0.00     0.041 A 
HETATM   25  C   UNL     1      39.968 -11.359   6.086  1.00  0.00     0.011 A 
HETATM   26  C   UNL     1      41.139 -10.840   6.846  1.00  0.00     0.011 A 
ENDBRANCH  21  24
ENDBRANCH   2  17
TORSDOF 4
ENDMDL
MODEL 10
REMARK VINA RESULT:      -7.0      1.837      3.958
REMARK  4 active torsions:
REMARK  status: ('A' for Active; 'I' for Inactive)
REMARK    1  A    between atoms: C_4  and  N_5 
REMARK       I    between atoms: N_5  and  C_6 
REMARK    2  A    between atoms: C_6  and  C_7 
REMARK    3  A    between atoms: C_11  and  C_12 
REMARK    4  A    between atoms: C_18  and  N_19 
REMARK       I    between atoms: N_19  and  C_20 
ROOT
HETATM    1  N   UNL     1      42.642 -15.729   2.919  1.00  0.00    -0.320 N 
HETATM    2  C   UNL     1      41.440 -16.167   2.403  1.00  0.00     0.276 C 
HETATM    3  O   UNL     1      40.646 -16.907   2.974  1.00  0.00    -0.266 OA
HETATM    4  H   UNL     1      43.074 -14.961   2.411  1.00  0.00     0.169 HD
ENDROOT
BRANCH   1   5
HETATM    5  C   UNL     1      43.263 -16.061   4.148  1.00  0.00     0.062 A 
HETATM    6  C   UNL     1      43.540 -15.066   5.104  1.00  0.00     0.038 A 
HETATM    7  C   UNL     1      44.102 -15.364   6.355  1.00  0.00    -0.060 A 
HETATM    8  C   UNL     1      44.378 -14.275   7.350  1.00  0.00     0.048 C 
HETATM    9  C   UNL     1      44.352 -16.691   6.681  1.00  0.00     0.009 A 
HETATM   10  C   UNL     1      44.076 -17.696   5.756  1.00  0.00     0.032 A 
HETATM   11  C   UNL     1      43.558 -17.408   4.476  1.00  0.00     0.061 A 
BRANCH  11  12
HETATM   12  N   UNL     1      43.370 -18.564   3.671  1.00  0.00    -0.326 N 
HETATM   13  C   UNL     1      43.752 -18.802   2.371  1.00  0.00     0.218 C 
HETATM   14  C   UNL     1      43.321 -20.158   1.872  1.00  0.00     0.117 C 
HETATM   15  O   UNL     1      44.400 -18.044   1.659  1.00  0.00    -0.274 OA
HETATM   16  H   UNL     1      43.045 -19.382   4.172  1.00  0.00     0.169 HD
ENDBRANCH  11  12
ENDBRANCH   1   5
BRANCH   2  17
HETATM   17  C   UNL     1      41.106 -15.642   1.102  1.00  0.00     0.142 A 
HETATM   18  N   UNL     1      41.679 -16.170  -0.026  1.00  0.00    -0.271 N 
HETATM   19  H   UNL     1      42.362 -16.922  -0.060  1.00  0.00     0.189 HD
HETATM   20  N   UNL     1      41.251 -15.629  -1.176  1.00  0.00    -0.177 NA
HETATM   21  C   UNL     1      40.405 -14.674  -0.770  1.00  0.00     0.083 A 
HETATM   22  C   UNL     1      40.308 -14.613   0.641  1.00  0.00     0.094 A 
HETATM   23 CL   UNL     1      39.426 -13.468   1.535  1.00  0.00    -0.079 Cl
BRANCH  21  24
HETATM   24  C   UNL     1      39.650 -13.772  -1.742  1.00  0.00     0.041 A 
HETATM   25  C   UNL     1      39.200 -14.342  -3.072  1.00  0.00     0.011 A 
HETATM   26  C   UNL     1      38.188 -14.072  -2.013  1.00  0.00     0.011 A 
ENDBRANCH  21  24
ENDBRANCH   2  17
TORSDOF 4
ENDMDL
