MODEL 1
REMARK VINA RESULT:      -8.8      0.000      0.000
REMARK  8 active torsions:
REMARK  status: ('A' for Active; 'I' for Inactive)
REMARK    1  A    between atoms: C_2  and  O_3 
REMARK    2  A    between atoms: O_3  and  C_4 
REMARK    3  A    between atoms: C_5  and  N_6 
REMARK       I    between atoms: N_6  and  C_7 
REMARK    4  A    between atoms: C_7  and  C_8 
REMARK    5  A    between atoms: C_8  and  C_9 
REMARK    6  A    between atoms: C_9  and  S_10 
REMARK    7  A    between atoms: S_10  and  C_11 
REMARK    8  A    between atoms: N_12  and  C_13 
ROOT
HETATM    1  C   UNL     1      43.139 -17.152   5.236  1.00  0.00     0.177 A 
HETATM    2  N   UNL     1      42.905 -17.105   3.841  1.00  0.00    -0.276 N 
HETATM    3  C   UNL     1      43.273 -18.262   3.059  1.00  0.00     0.124 A 
HETATM    4  N   UNL     1      43.044 -18.365   1.765  1.00  0.00    -0.384 N 
HETATM    5  H   UNL     1      43.295 -19.200   1.256  1.00  0.00     0.157 HD
HETATM    6  H   UNL     1      42.589 -17.611   1.266  1.00  0.00     0.157 HD
HETATM    7  C   UNL     1      43.874 -19.344   3.773  1.00  0.00     0.081 A 
HETATM    8  C   UNL     1      44.007 -19.239   5.153  1.00  0.00     0.187 A 
HETATM    9  N   UNL     1      44.584 -20.303   5.692  1.00  0.00    -0.153 NA
HETATM   10  N   UNL     1      44.818 -21.101   4.633  1.00  0.00    -0.280 N 
HETATM   11  H   UNL     1      45.269 -21.995   4.802  1.00  0.00     0.189 HD
HETATM   12  C   UNL     1      44.405 -20.565   3.429  1.00  0.00     0.042 A 
HETATM   13  C   UNL     1      44.586 -21.294   2.155  1.00  0.00     0.071 C 
HETATM   14  N   UNL     1      43.627 -18.147   5.919  1.00  0.00    -0.202 NA
ENDROOT
BRANCH   1  15
HETATM   15  S   UNL     1      42.752 -15.715   6.219  1.00  0.00    -0.091 SA
BRANCH  15  16
HETATM   16  C   UNL     1      44.328 -15.395   7.082  1.00  0.00     0.091 C 
BRANCH  16  17
HETATM   17  C   UNL     1      45.052 -14.120   6.664  1.00  0.00     0.113 C 
BRANCH  17  18
HETATM   18  C   UNL     1      45.226 -13.154   7.815  1.00  0.00     0.223 C 
HETATM   19  N   UNL     1      44.105 -13.071   8.621  1.00  0.00    -0.325 N 
HETATM   20  H   UNL     1      43.530 -13.901   8.672  1.00  0.00     0.169 HD
HETATM   21  O   UNL     1      46.299 -12.581   7.989  1.00  0.00    -0.273 OA
BRANCH  19  22
HETATM   22  C   UNL     1      43.918 -12.121   9.651  1.00  0.00     0.068 A 
HETATM   23  C   UNL     1      43.405 -10.830   9.444  1.00  0.00     0.095 A 
HETATM   24  C   UNL     1      43.236  -9.965  10.533  1.00  0.00     0.039 A 
HETATM   25  C   UNL     1      43.585 -10.373  11.821  1.00  0.00     0.003 A 
HETATM   26  C   UNL     1      44.068 -11.661  12.034  1.00  0.00     0.002 A 
HETATM   27  C   UNL     1      44.217 -12.537  10.956  1.00  0.00     0.032 A 
BRANCH  23  28
HETATM   28  O   UNL     1      42.879 -10.501   8.220  1.00  0.00    -0.349 OA
BRANCH  28  29
HETATM   29  C   UNL     1      41.476 -10.219   8.244  1.00  0.00     0.171 C 
HETATM   30  C   UNL     1      41.223  -8.873   7.587  1.00  0.00     0.034 C 
ENDBRANCH  28  29
ENDBRANCH  23  28
ENDBRANCH  19  22
ENDBRANCH  17  18
ENDBRANCH  16  17
ENDBRANCH  15  16
ENDBRANCH   1  15
BRANCH   2  31
HETATM   31  C   UNL     1      42.291 -15.980   3.214  1.00  0.00     0.044 A 
HETATM   32  C   UNL     1      40.927 -15.995   2.887  1.00  0.00     0.054 A 
HETATM   33  C   UNL     1      40.359 -14.915   2.212  1.00  0.00     0.036 A 
HETATM   34 CL   UNL     1      38.685 -14.945   1.814  1.00  0.00    -0.084 Cl
HETATM   35  C   UNL     1      41.137 -13.821   1.842  1.00  0.00     0.024 A 
HETATM   36  C   UNL     1      42.496 -13.799   2.157  1.00  0.00     0.004 A 
HETATM   37  C   UNL     1      43.071 -14.874   2.839  1.00  0.00     0.030 A 
ENDBRANCH   2  31
TORSDOF 8
ENDMDL
MODEL 2
REMARK VINA RESULT:      -8.6      2.609      4.829
REMARK  8 active torsions:
REMARK  status: ('A' for Active; 'I' for Inactive)
REMARK    1  A    between atoms: C_2  and  O_3 
REMARK    2  A    between atoms: O_3  and  C_4 
REMARK    3  A    between atoms: C_5  and  N_6 
REMARK       I    between atoms: N_6  and  C_7 
REMARK    4  A    between atoms: C_7  and  C_8 
REMARK    5  A    between atoms: C_8  and  C_9 
REMARK    6  A    between atoms: C_9  and  S_10 
REMARK    7  A    between atoms: S_10  and  C_11 
REMARK    8  A    between atoms: N_12  and  C_13 
ROOT
HETATM    1  C   UNL     1      43.374 -14.822   5.403  1.00  0.00     0.177 A 
HETATM    2  N   UNL     1      42.746 -16.041   5.056  1.00  0.00    -0.276 N 
HETATM    3  C   UNL     1      41.617 -15.984   4.157  1.00  0.00     0.124 A 
HETATM    4  N   UNL     1      40.992 -17.055   3.709  1.00  0.00    -0.384 N 
HETATM    5  H   UNL     1      40.220 -16.975   3.063  1.00  0.00     0.157 HD
HETATM    6  H   UNL     1      41.295 -17.978   3.991  1.00  0.00     0.157 HD
HETATM    7  C   UNL     1      41.219 -14.682   3.724  1.00  0.00     0.081 A 
HETATM    8  C   UNL     1      41.965 -13.585   4.138  1.00  0.00     0.187 A 
HETATM    9  N   UNL     1      41.488 -12.439   3.675  1.00  0.00    -0.153 NA
HETATM   10  N   UNL     1      40.420 -12.818   2.947  1.00  0.00    -0.280 N 
HETATM   11  H   UNL     1      39.878 -12.093   2.486  1.00  0.00     0.189 HD
HETATM   12  C   UNL     1      40.204 -14.181   2.942  1.00  0.00     0.042 A 
HETATM   13  C   UNL     1      39.073 -14.783   2.203  1.00  0.00     0.071 C 
HETATM   14  N   UNL     1      43.071 -13.631   4.974  1.00  0.00    -0.202 NA
ENDROOT
BRANCH   1  15
HETATM   15  S   UNL     1      44.732 -14.855   6.559  1.00  0.00    -0.091 SA
BRANCH  15  16
HETATM   16  C   UNL     1      44.362 -13.431   7.639  1.00  0.00     0.091 C 
BRANCH  16  17
HETATM   17  C   UNL     1      45.575 -12.773   8.287  1.00  0.00     0.113 C 
BRANCH  17  18
HETATM   18  C   UNL     1      45.193 -11.603   9.165  1.00  0.00     0.223 C 
HETATM   19  N   UNL     1      44.052 -11.841   9.911  1.00  0.00    -0.325 N 
HETATM   20  H   UNL     1      43.874 -12.806  10.158  1.00  0.00     0.169 HD
HETATM   21  O   UNL     1      45.900 -10.599   9.206  1.00  0.00    -0.273 OA
BRANCH  19  22
HETATM   22  C   UNL     1      43.366 -10.868  10.672  1.00  0.00     0.068 A 
HETATM   23  C   UNL     1      42.207 -10.205  10.236  1.00  0.00     0.095 A 
HETATM   24  C   UNL     1      41.584  -9.268  11.072  1.00  0.00     0.039 A 
HETATM   25  C   UNL     1      42.114  -8.981  12.330  1.00  0.00     0.003 A 
HETATM   26  C   UNL     1      43.247  -9.656  12.777  1.00  0.00     0.002 A 
HETATM   27  C   UNL     1      43.859 -10.608  11.959  1.00  0.00     0.032 A 
BRANCH  23  28
HETATM   28  O   UNL     1      41.577 -10.628   9.093  1.00  0.00    -0.349 OA
BRANCH  28  29
HETATM   29  C   UNL     1      40.252 -10.112   8.930  1.00  0.00     0.171 C 
HETATM   30  C   UNL     1      39.270 -11.266   8.846  1.00  0.00     0.034 C 
ENDBRANCH  28  29
ENDBRANCH  23  28
ENDBRANCH  19  22
ENDBRANCH  17  18
ENDBRANCH  16  17
ENDBRANCH  15  16
ENDBRANCH   1  15
BRANCH   2  31
HETATM   31  C   UNL     1      43.220 -17.300   5.534  1.00  0.00     0.044 A 
HETATM   32  C   UNL     1      43.940 -18.163   4.695  1.00  0.00     0.054 A 
HETATM   33  C   UNL     1      44.335 -19.417   5.157  1.00  0.00     0.036 A 
HETATM   34 CL   UNL     1      45.217 -20.469   4.119  1.00  0.00    -0.084 Cl
HETATM   35  C   UNL     1      44.008 -19.834   6.445  1.00  0.00     0.024 A 
HETATM   36  C   UNL     1      43.286 -18.986   7.285  1.00  0.00     0.004 A 
HETATM   37  C   UNL     1      42.893 -17.725   6.832  1.00  0.00     0.030 A 
ENDBRANCH   2  31
TORSDOF 8
ENDMDL
MODEL 3
REMARK VINA RESULT:      -8.6      4.626      8.738
REMARK  8 active torsions:
REMARK  status: ('A' for Active; 'I' for Inactive)
REMARK    1  A    between atoms: C_2  and  O_3 
REMARK    2  A    between atoms: O_3  and  C_4 
REMARK    3  A    between atoms: C_5  and  N_6 
REMARK       I    between atoms: N_6  and  C_7 
REMARK    4  A    between atoms: C_7  and  C_8 
REMARK    5  A    between atoms: C_8  and  C_9 
REMARK    6  A    between atoms: C_9  and  S_10 
REMARK    7  A    between atoms: S_10  and  C_11 
REMARK    8  A    between atoms: N_12  and  C_13 
ROOT
HETATM    1  C   UNL     1      41.562 -14.416   0.116  1.00  0.00     0.177 A 
HETATM    2  N   UNL     1      41.846 -13.199   0.779  1.00  0.00    -0.276 N 
HETATM    3  C   UNL     1      42.159 -12.048  -0.033  1.00  0.00     0.124 A 
HETATM    4  N   UNL     1      42.376 -10.846   0.465  1.00  0.00    -0.384 N 
HETATM    5  H   UNL     1      42.570 -10.060  -0.137  1.00  0.00     0.157 HD
HETATM    6  H   UNL     1      42.326 -10.692   1.464  1.00  0.00     0.157 HD
HETATM    7  C   UNL     1      42.184 -12.258  -1.446  1.00  0.00     0.081 A 
HETATM    8  C   UNL     1      41.852 -13.514  -1.938  1.00  0.00     0.187 A 
HETATM    9  N   UNL     1      41.921 -13.578  -3.260  1.00  0.00    -0.153 NA
HETATM   10  N   UNL     1      42.299 -12.335  -3.613  1.00  0.00    -0.280 N 
HETATM   11  H   UNL     1      42.424 -12.140  -4.602  1.00  0.00     0.189 HD
HETATM   12  C   UNL     1      42.477 -11.481  -2.543  1.00  0.00     0.042 A 
HETATM   13  C   UNL     1      42.901 -10.077  -2.735  1.00  0.00     0.071 C 
HETATM   14  N   UNL     1      41.517 -14.618  -1.170  1.00  0.00    -0.202 NA
ENDROOT
BRANCH   1  15
HETATM   15  S   UNL     1      41.231 -15.870   1.093  1.00  0.00    -0.091 SA
BRANCH  15  16
HETATM   16  C   UNL     1      42.639 -16.953   0.675  1.00  0.00     0.091 C 
BRANCH  16  17
HETATM   17  C   UNL     1      43.678 -17.125   1.778  1.00  0.00     0.113 C 
BRANCH  17  18
HETATM   18  C   UNL     1      43.268 -18.168   2.794  1.00  0.00     0.223 C 
HETATM   19  N   UNL     1      44.092 -18.186   3.906  1.00  0.00    -0.325 N 
HETATM   20  H   UNL     1      44.527 -17.307   4.153  1.00  0.00     0.169 HD
HETATM   21  O   UNL     1      42.265 -18.853   2.613  1.00  0.00    -0.273 OA
BRANCH  19  22
HETATM   22  C   UNL     1      44.059 -19.170   4.920  1.00  0.00     0.068 A 
HETATM   23  C   UNL     1      44.425 -20.512   4.724  1.00  0.00     0.095 A 
HETATM   24  C   UNL     1      44.380 -21.411   5.797  1.00  0.00     0.039 A 
HETATM   25  C   UNL     1      43.962 -20.985   7.059  1.00  0.00     0.003 A 
HETATM   26  C   UNL     1      43.625 -19.650   7.265  1.00  0.00     0.002 A 
HETATM   27  C   UNL     1      43.691 -18.743   6.204  1.00  0.00     0.032 A 
BRANCH  23  28
HETATM   28  O   UNL     1      45.022 -20.883   3.545  1.00  0.00    -0.349 OA
BRANCH  28  29
HETATM   29  C   UNL     1      44.513 -22.100   2.990  1.00  0.00     0.171 C 
HETATM   30  C   UNL     1      44.033 -21.845   1.573  1.00  0.00     0.034 C 
ENDBRANCH  28  29
ENDBRANCH  23  28
ENDBRANCH  19  22
ENDBRANCH  17  18
ENDBRANCH  16  17
ENDBRANCH  15  16
ENDBRANCH   1  15
BRANCH   2  31
HETATM   31  C   UNL     1      41.790 -13.082   2.201  1.00  0.00     0.044 A 
HETATM   32  C   UNL     1      42.885 -13.451   2.997  1.00  0.00     0.054 A 
HETATM   33  C   UNL     1      42.787 -13.396   4.386  1.00  0.00     0.036 A 
HETATM   34 CL   UNL     1      44.135 -13.853   5.353  1.00  0.00    -0.084 Cl
HETATM   35  C   UNL     1      41.604 -12.990   5.000  1.00  0.00     0.024 A 
HETATM   36  C   UNL     1      40.508 -12.628   4.217  1.00  0.00     0.004 A 
HETATM   37  C   UNL     1      40.599 -12.674   2.824  1.00  0.00     0.030 A 
ENDBRANCH   2  31
TORSDOF 8
ENDMDL
MODEL 4
REMARK VINA RESULT:      -8.5      4.030      7.638
REMARK  8 active torsions:
REMARK  status: ('A' for Active; 'I' for Inactive)
REMARK    1  A    between atoms: C_2  and  O_3 
REMARK    2  A    between atoms: O_3  and  C_4 
REMARK    3  A    between atoms: C_5  and  N_6 
REMARK       I    between atoms: N_6  and  C_7 
REMARK    4  A    between atoms: C_7  and  C_8 
REMARK    5  A    between atoms: C_8  and  C_9 
REMARK    6  A    between atoms: C_9  and  S_10 
REMARK    7  A    between atoms: S_10  and  C_11 
REMARK    8  A    between atoms: N_12  and  C_13 
ROOT
HETATM    1  C   UNL     1      40.870 -15.557   2.537  1.00  0.00     0.177 A 
HETATM    2  N   UNL     1      40.443 -14.289   2.077  1.00  0.00    -0.276 N 
HETATM    3  C   UNL     1      40.021 -13.323   3.063  1.00  0.00     0.124 A 
HETATM    4  N   UNL     1      39.666 -12.088   2.764  1.00  0.00    -0.384 N 
HETATM    5  H   UNL     1      39.399 -11.434   3.484  1.00  0.00     0.157 HD
HETATM    6  H   UNL     1      39.680 -11.773   1.803  1.00  0.00     0.157 HD
HETATM    7  C   UNL     1      40.046 -13.756   4.425  1.00  0.00     0.081 A 
HETATM    8  C   UNL     1      40.522 -15.030   4.709  1.00  0.00     0.187 A 
HETATM    9  N   UNL     1      40.486 -15.310   6.004  1.00  0.00    -0.153 NA
HETATM   10  N   UNL     1      39.981 -14.189   6.552  1.00  0.00    -0.280 N 
HETATM   11  H   UNL     1      39.854 -14.167   7.560  1.00  0.00     0.189 HD
HETATM   12  C   UNL     1      39.691 -13.201   5.632  1.00  0.00     0.042 A 
HETATM   13  C   UNL     1      39.121 -11.900   6.046  1.00  0.00     0.071 C 
HETATM   14  N   UNL     1      40.961 -15.955   3.774  1.00  0.00    -0.202 NA
ENDROOT
BRANCH   1  15
HETATM   15  S   UNL     1      41.338 -16.792   1.340  1.00  0.00    -0.091 SA
BRANCH  15  16
HETATM   16  C   UNL     1      43.160 -16.690   1.363  1.00  0.00     0.091 C 
BRANCH  16  17
HETATM   17  C   UNL     1      43.889 -18.002   1.096  1.00  0.00     0.113 C 
BRANCH  17  18
HETATM   18  C   UNL     1      43.586 -19.051   2.142  1.00  0.00     0.223 C 
HETATM   19  N   UNL     1      44.126 -18.749   3.379  1.00  0.00    -0.325 N 
HETATM   20  H   UNL     1      44.232 -17.765   3.590  1.00  0.00     0.169 HD
HETATM   21  O   UNL     1      42.880 -20.018   1.866  1.00  0.00    -0.273 OA
BRANCH  19  22
HETATM   22  C   UNL     1      44.159 -19.629   4.484  1.00  0.00     0.068 A 
HETATM   23  C   UNL     1      43.637 -19.319   5.751  1.00  0.00     0.095 A 
HETATM   24  C   UNL     1      43.698 -20.268   6.780  1.00  0.00     0.039 A 
HETATM   25  C   UNL     1      44.284 -21.515   6.559  1.00  0.00     0.003 A 
HETATM   26  C   UNL     1      44.778 -21.836   5.298  1.00  0.00     0.002 A 
HETATM   27  C   UNL     1      44.699 -20.904   4.260  1.00  0.00     0.032 A 
BRANCH  23  28
HETATM   28  O   UNL     1      42.887 -18.181   5.912  1.00  0.00    -0.349 OA
BRANCH  28  29
HETATM   29  C   UNL     1      42.995 -17.590   7.211  1.00  0.00     0.171 C 
HETATM   30  C   UNL     1      43.801 -16.308   7.114  1.00  0.00     0.034 C 
ENDBRANCH  28  29
ENDBRANCH  23  28
ENDBRANCH  19  22
ENDBRANCH  17  18
ENDBRANCH  16  17
ENDBRANCH  15  16
ENDBRANCH   1  15
BRANCH   2  31
HETATM   31  C   UNL     1      40.459 -13.942   0.693  1.00  0.00     0.044 A 
HETATM   32  C   UNL     1      41.602 -13.377   0.106  1.00  0.00     0.054 A 
HETATM   33  C   UNL     1      41.577 -12.980  -1.230  1.00  0.00     0.036 A 
HETATM   34 CL   UNL     1      42.983 -12.287  -1.939  1.00  0.00    -0.084 Cl
HETATM   35  C   UNL     1      40.419 -13.124  -1.992  1.00  0.00     0.024 A 
HETATM   36  C   UNL     1      39.276 -13.678  -1.416  1.00  0.00     0.004 A 
HETATM   37  C   UNL     1      39.295 -14.085  -0.080  1.00  0.00     0.030 A 
ENDBRANCH   2  31
TORSDOF 8
ENDMDL
MODEL 5
REMARK VINA RESULT:      -8.5      4.476      8.828
REMARK  8 active torsions:
REMARK  status: ('A' for Active; 'I' for Inactive)
REMARK    1  A    between atoms: C_2  and  O_3 
REMARK    2  A    between atoms: O_3  and  C_4 
REMARK    3  A    between atoms: C_5  and  N_6 
REMARK       I    between atoms: N_6  and  C_7 
REMARK    4  A    between atoms: C_7  and  C_8 
REMARK    5  A    between atoms: C_8  and  C_9 
REMARK    6  A    between atoms: C_9  and  S_10 
REMARK    7  A    between atoms: S_10  and  C_11 
REMARK    8  A    between atoms: N_12  and  C_13 
ROOT
HETATM    1  C   UNL     1      40.544 -14.129   0.521  1.00  0.00     0.177 A 
HETATM    2  N   UNL     1      41.276 -13.029   1.026  1.00  0.00    -0.276 N 
HETATM    3  C   UNL     1      41.797 -12.075   0.076  1.00  0.00     0.124 A 
HETATM    4  N   UNL     1      42.436 -10.976   0.427  1.00  0.00    -0.384 N 
HETATM    5  H   UNL     1      42.766 -10.321  -0.266  1.00  0.00     0.157 HD
HETATM    6  H   UNL     1      42.584 -10.763   1.405  1.00  0.00     0.157 HD
HETATM    7  C   UNL     1      41.547 -12.354  -1.303  1.00  0.00     0.081 A 
HETATM    8  C   UNL     1      40.784 -13.469  -1.629  1.00  0.00     0.187 A 
HETATM    9  N   UNL     1      40.633 -13.619  -2.937  1.00  0.00    -0.153 NA
HETATM   10  N   UNL     1      41.311 -12.575  -3.451  1.00  0.00    -0.280 N 
HETATM   11  H   UNL     1      41.340 -12.478  -4.462  1.00  0.00     0.189 HD
HETATM   12  C   UNL     1      41.894 -11.765  -2.497  1.00  0.00     0.042 A 
HETATM   13  C   UNL     1      42.687 -10.574  -2.872  1.00  0.00     0.071 C 
HETATM   14  N   UNL     1      40.250 -14.373  -0.724  1.00  0.00    -0.202 NA
ENDROOT
BRANCH   1  15
HETATM   15  S   UNL     1      39.940 -15.357   1.665  1.00  0.00    -0.091 SA
BRANCH  15  16
HETATM   16  C   UNL     1      41.004 -16.793   1.297  1.00  0.00     0.091 C 
BRANCH  16  17
HETATM   17  C   UNL     1      42.422 -16.456   0.849  1.00  0.00     0.113 C 
BRANCH  17  18
HETATM   18  C   UNL     1      43.432 -17.475   1.325  1.00  0.00     0.223 C 
HETATM   19  N   UNL     1      42.844 -18.630   1.809  1.00  0.00    -0.325 N 
HETATM   20  H   UNL     1      41.950 -18.877   1.405  1.00  0.00     0.169 HD
HETATM   21  O   UNL     1      44.636 -17.257   1.212  1.00  0.00    -0.273 OA
BRANCH  19  22
HETATM   22  C   UNL     1      43.529 -19.665   2.483  1.00  0.00     0.068 A 
HETATM   23  C   UNL     1      44.101 -19.528   3.758  1.00  0.00     0.095 A 
HETATM   24  C   UNL     1      44.745 -20.620   4.355  1.00  0.00     0.039 A 
HETATM   25  C   UNL     1      44.831 -21.841   3.686  1.00  0.00     0.003 A 
HETATM   26  C   UNL     1      44.242 -21.990   2.434  1.00  0.00     0.002 A 
HETATM   27  C   UNL     1      43.578 -20.912   1.843  1.00  0.00     0.032 A 
BRANCH  23  28
HETATM   28  O   UNL     1      43.845 -18.398   4.494  1.00  0.00    -0.349 OA
BRANCH  28  29
HETATM   29  C   UNL     1      42.763 -18.536   5.419  1.00  0.00     0.171 C 
HETATM   30  C   UNL     1      41.623 -17.625   5.000  1.00  0.00     0.034 C 
ENDBRANCH  28  29
ENDBRANCH  23  28
ENDBRANCH  19  22
ENDBRANCH  17  18
ENDBRANCH  16  17
ENDBRANCH  15  16
ENDBRANCH   1  15
BRANCH   2  31
HETATM   31  C   UNL     1      41.470 -12.827   2.425  1.00  0.00     0.044 A 
HETATM   32  C   UNL     1      42.582 -13.372   3.084  1.00  0.00     0.054 A 
HETATM   33  C   UNL     1      42.719 -13.224   4.463  1.00  0.00     0.036 A 
HETATM   34 CL   UNL     1      44.087 -13.898   5.261  1.00  0.00    -0.084 Cl
HETATM   35  C   UNL     1      41.750 -12.551   5.204  1.00  0.00     0.024 A 
HETATM   36  C   UNL     1      40.636 -12.013   4.560  1.00  0.00     0.004 A 
HETATM   37  C   UNL     1      40.496 -12.150   3.178  1.00  0.00     0.030 A 
ENDBRANCH   2  31
TORSDOF 8
ENDMDL
MODEL 6
REMARK VINA RESULT:      -8.4      5.470      9.605
REMARK  8 active torsions:
REMARK  status: ('A' for Active; 'I' for Inactive)
REMARK    1  A    between atoms: C_2  and  O_3 
REMARK    2  A    between atoms: O_3  and  C_4 
REMARK    3  A    between atoms: C_5  and  N_6 
REMARK       I    between atoms: N_6  and  C_7 
REMARK    4  A    between atoms: C_7  and  C_8 
REMARK    5  A    between atoms: C_8  and  C_9 
REMARK    6  A    between atoms: C_9  and  S_10 
REMARK    7  A    between atoms: S_10  and  C_11 
REMARK    8  A    between atoms: N_12  and  C_13 
ROOT
HETATM    1  C   UNL     1      41.160 -13.280  -0.775  1.00  0.00     0.177 A 
HETATM    2  N   UNL     1      40.838 -13.152  -2.147  1.00  0.00    -0.276 N 
HETATM    3  C   UNL     1      41.359 -12.008  -2.855  1.00  0.00     0.124 A 
HETATM    4  N   UNL     1      41.185 -11.813  -4.148  1.00  0.00    -0.384 N 
HETATM    5  H   UNL     1      41.584 -11.012  -4.613  1.00  0.00     0.157 HD
HETATM    6  H   UNL     1      40.664 -12.484  -4.698  1.00  0.00     0.157 HD
HETATM    7  C   UNL     1      42.133 -11.085  -2.086  1.00  0.00     0.081 A 
HETATM    8  C   UNL     1      42.380 -11.375  -0.750  1.00  0.00     0.187 A 
HETATM    9  N   UNL     1      43.100 -10.439  -0.149  1.00  0.00    -0.153 NA
HETATM   10  N   UNL     1      43.320  -9.540  -1.126  1.00  0.00    -0.280 N 
HETATM   11  H   UNL     1      43.861  -8.712  -0.897  1.00  0.00     0.189 HD
HETATM   12  C   UNL     1      42.749  -9.881  -2.336  1.00  0.00     0.042 A 
HETATM   13  C   UNL     1      42.877  -9.010  -3.525  1.00  0.00     0.071 C 
HETATM   14  N   UNL     1      41.912 -12.488  -0.067  1.00  0.00    -0.202 NA
ENDROOT
BRANCH   1  15
HETATM   15  S   UNL     1      40.481 -14.650   0.142  1.00  0.00    -0.091 SA
BRANCH  15  16
HETATM   16  C   UNL     1      41.906 -15.782   0.268  1.00  0.00     0.091 C 
BRANCH  16  17
HETATM   17  C   UNL     1      42.413 -16.037   1.683  1.00  0.00     0.113 C 
BRANCH  17  18
HETATM   18  C   UNL     1      43.350 -17.222   1.754  1.00  0.00     0.223 C 
HETATM   19  N   UNL     1      42.750 -18.351   2.281  1.00  0.00    -0.325 N 
HETATM   20  H   UNL     1      41.753 -18.437   2.133  1.00  0.00     0.169 HD
HETATM   21  O   UNL     1      44.495 -17.135   1.317  1.00  0.00    -0.273 OA
BRANCH  19  22
HETATM   22  C   UNL     1      43.430 -19.538   2.633  1.00  0.00     0.068 A 
HETATM   23  C   UNL     1      44.168 -19.699   3.817  1.00  0.00     0.095 A 
HETATM   24  C   UNL     1      44.792 -20.924   4.089  1.00  0.00     0.039 A 
HETATM   25  C   UNL     1      44.695 -21.982   3.186  1.00  0.00     0.003 A 
HETATM   26  C   UNL     1      43.942 -21.837   2.024  1.00  0.00     0.002 A 
HETATM   27  C   UNL     1      43.297 -20.626   1.758  1.00  0.00     0.032 A 
BRANCH  23  28
HETATM   28  O   UNL     1      44.099 -18.735   4.792  1.00  0.00    -0.349 OA
BRANCH  28  29
HETATM   29  C   UNL     1      44.558 -19.167   6.076  1.00  0.00     0.171 C 
HETATM   30  C   UNL     1      45.356 -18.052   6.726  1.00  0.00     0.034 C 
ENDBRANCH  28  29
ENDBRANCH  23  28
ENDBRANCH  19  22
ENDBRANCH  17  18
ENDBRANCH  16  17
ENDBRANCH  15  16
ENDBRANCH   1  15
BRANCH   2  31
HETATM   31  C   UNL     1      40.061 -14.131  -2.836  1.00  0.00     0.044 A 
HETATM   32  C   UNL     1      38.726 -13.876  -3.182  1.00  0.00     0.054 A 
HETATM   33  C   UNL     1      37.961 -14.869  -3.793  1.00  0.00     0.036 A 
HETATM   34 CL   UNL     1      36.324 -14.546  -4.212  1.00  0.00    -0.084 Cl
HETATM   35  C   UNL     1      38.505 -16.125  -4.051  1.00  0.00     0.024 A 
HETATM   36  C   UNL     1      39.829 -16.391  -3.705  1.00  0.00     0.004 A 
HETATM   37  C   UNL     1      40.604 -15.399  -3.099  1.00  0.00     0.030 A 
ENDBRANCH   2  31
TORSDOF 8
ENDMDL
MODEL 7
REMARK VINA RESULT:      -8.4      3.244      5.153
REMARK  8 active torsions:
REMARK  status: ('A' for Active; 'I' for Inactive)
REMARK    1  A    between atoms: C_2  and  O_3 
REMARK    2  A    between atoms: O_3  and  C_4 
REMARK    3  A    between atoms: C_5  and  N_6 
REMARK       I    between atoms: N_6  and  C_7 
REMARK    4  A    between atoms: C_7  and  C_8 
REMARK    5  A    between atoms: C_8  and  C_9 
REMARK    6  A    between atoms: C_9  and  S_10 
REMARK    7  A    between atoms: S_10  and  C_11 
REMARK    8  A    between atoms: N_12  and  C_13 
ROOT
HETATM    1  C   UNL     1      40.383 -13.944   4.347  1.00  0.00     0.177 A 
HETATM    2  N   UNL     1      41.584 -14.663   4.141  1.00  0.00    -0.276 N 
HETATM    3  C   UNL     1      41.829 -15.199   2.824  1.00  0.00     0.124 A 
HETATM    4  N   UNL     1      42.940 -15.828   2.492  1.00  0.00    -0.384 N 
HETATM    5  H   UNL     1      43.084 -16.170   1.553  1.00  0.00     0.157 HD
HETATM    6  H   UNL     1      43.676 -15.956   3.173  1.00  0.00     0.157 HD
HETATM    7  C   UNL     1      40.808 -14.977   1.850  1.00  0.00     0.081 A 
HETATM    8  C   UNL     1      39.697 -14.223   2.210  1.00  0.00     0.187 A 
HETATM    9  N   UNL     1      38.823 -14.098   1.221  1.00  0.00    -0.153 NA
HETATM   10  N   UNL     1      39.394 -14.783   0.212  1.00  0.00    -0.280 N 
HETATM   11  H   UNL     1      38.895 -14.831  -0.671  1.00  0.00     0.189 HD
HETATM   12  C   UNL     1      40.612 -15.345   0.539  1.00  0.00     0.042 A 
HETATM   13  C   UNL     1      41.385 -16.141  -0.439  1.00  0.00     0.071 C 
HETATM   14  N   UNL     1      39.467 -13.675   3.463  1.00  0.00    -0.202 NA
ENDROOT
BRANCH   1  15
HETATM   15  S   UNL     1      40.024 -13.322   5.979  1.00  0.00    -0.091 SA
BRANCH  15  16
HETATM   16  C   UNL     1      40.709 -11.632   5.914  1.00  0.00     0.091 C 
BRANCH  16  17
HETATM   17  C   UNL     1      40.187 -10.676   6.981  1.00  0.00     0.113 C 
BRANCH  17  18
HETATM   18  C   UNL     1      41.279 -10.208   7.917  1.00  0.00     0.223 C 
HETATM   19  N   UNL     1      41.349 -10.958   9.078  1.00  0.00    -0.325 N 
HETATM   20  H   UNL     1      41.053 -11.922   9.005  1.00  0.00     0.169 HD
HETATM   21  O   UNL     1      42.025  -9.288   7.592  1.00  0.00    -0.273 OA
BRANCH  19  22
HETATM   22  C   UNL     1      42.143 -10.635  10.202  1.00  0.00     0.068 A 
HETATM   23  C   UNL     1      43.401 -11.202  10.464  1.00  0.00     0.095 A 
HETATM   24  C   UNL     1      44.124 -10.802  11.596  1.00  0.00     0.039 A 
HETATM   25  C   UNL     1      43.597  -9.852  12.471  1.00  0.00     0.003 A 
HETATM   26  C   UNL     1      42.363  -9.268  12.202  1.00  0.00     0.002 A 
HETATM   27  C   UNL     1      41.647  -9.644  11.062  1.00  0.00     0.032 A 
BRANCH  23  28
HETATM   28  O   UNL     1      44.003 -11.980   9.507  1.00  0.00    -0.349 OA
BRANCH  28  29
HETATM   29  C   UNL     1      45.380 -12.267   9.768  1.00  0.00     0.171 C 
HETATM   30  C   UNL     1      46.243 -11.573   8.729  1.00  0.00     0.034 C 
ENDBRANCH  28  29
ENDBRANCH  23  28
ENDBRANCH  19  22
ENDBRANCH  17  18
ENDBRANCH  16  17
ENDBRANCH  15  16
ENDBRANCH   1  15
BRANCH   2  31
HETATM   31  C   UNL     1      42.553 -14.829   5.176  1.00  0.00     0.044 A 
HETATM   32  C   UNL     1      42.476 -15.909   6.067  1.00  0.00     0.054 A 
HETATM   33  C   UNL     1      43.390 -16.017   7.114  1.00  0.00     0.036 A 
HETATM   34 CL   UNL     1      43.286 -17.346   8.203  1.00  0.00    -0.084 Cl
HETATM   35  C   UNL     1      44.377 -15.051   7.298  1.00  0.00     0.024 A 
HETATM   36  C   UNL     1      44.457 -13.969   6.421  1.00  0.00     0.004 A 
HETATM   37  C   UNL     1      43.550 -13.857   5.366  1.00  0.00     0.030 A 
ENDBRANCH   2  31
TORSDOF 8
ENDMDL
MODEL 8
REMARK VINA RESULT:      -8.3      1.876      3.229
REMARK  8 active torsions:
REMARK  status: ('A' for Active; 'I' for Inactive)
REMARK    1  A    between atoms: C_2  and  O_3 
REMARK    2  A    between atoms: O_3  and  C_4 
REMARK    3  A    between atoms: C_5  and  N_6 
REMARK       I    between atoms: N_6  and  C_7 
REMARK    4  A    between atoms: C_7  and  C_8 
REMARK    5  A    between atoms: C_8  and  C_9 
REMARK    6  A    between atoms: C_9  and  S_10 
REMARK    7  A    between atoms: S_10  and  C_11 
REMARK    8  A    between atoms: N_12  and  C_13 
ROOT
HETATM    1  C   UNL     1      40.899 -14.935   5.168  1.00  0.00     0.177 A 
HETATM    2  N   UNL     1      41.150 -15.332   3.833  1.00  0.00    -0.276 N 
HETATM    3  C   UNL     1      41.906 -16.544   3.623  1.00  0.00     0.124 A 
HETATM    4  N   UNL     1      42.147 -17.051   2.430  1.00  0.00    -0.384 N 
HETATM    5  H   UNL     1      42.660 -17.913   2.324  1.00  0.00     0.157 HD
HETATM    6  H   UNL     1      41.796 -16.590   1.600  1.00  0.00     0.157 HD
HETATM    7  C   UNL     1      42.361 -17.218   4.798  1.00  0.00     0.081 A 
HETATM    8  C   UNL     1      42.002 -16.707   6.040  1.00  0.00     0.187 A 
HETATM    9  N   UNL     1      42.492 -17.419   7.045  1.00  0.00    -0.153 NA
HETATM   10  N   UNL     1      43.172 -18.403   6.427  1.00  0.00    -0.280 N 
HETATM   11  H   UNL     1      43.648 -19.088   7.008  1.00  0.00     0.189 HD
HETATM   12  C   UNL     1      43.128 -18.331   5.049  1.00  0.00     0.042 A 
HETATM   13  C   UNL     1      43.824 -19.323   4.200  1.00  0.00     0.071 C 
HETATM   14  N   UNL     1      41.248 -15.563   6.254  1.00  0.00    -0.202 NA
ENDROOT
BRANCH   1  15
HETATM   15  S   UNL     1      40.021 -13.411   5.460  1.00  0.00    -0.091 SA
BRANCH  15  16
HETATM   16  C   UNL     1      41.346 -12.299   6.038  1.00  0.00     0.091 C 
BRANCH  16  17
HETATM   17  C   UNL     1      40.912 -10.868   6.336  1.00  0.00     0.113 C 
BRANCH  17  18
HETATM   18  C   UNL     1      41.694 -10.256   7.477  1.00  0.00     0.223 C 
HETATM   19  N   UNL     1      42.066 -11.185   8.433  1.00  0.00    -0.325 N 
HETATM   20  H   UNL     1      42.207 -12.131   8.104  1.00  0.00     0.169 HD
HETATM   21  O   UNL     1      41.983  -9.062   7.463  1.00  0.00    -0.273 OA
BRANCH  19  22
HETATM   22  C   UNL     1      42.638 -10.871   9.686  1.00  0.00     0.068 A 
HETATM   23  C   UNL     1      44.019 -10.877   9.943  1.00  0.00     0.095 A 
HETATM   24  C   UNL     1      44.493 -10.530  11.215  1.00  0.00     0.039 A 
HETATM   25  C   UNL     1      43.601 -10.189  12.233  1.00  0.00     0.003 A 
HETATM   26  C   UNL     1      42.234 -10.156  11.976  1.00  0.00     0.002 A 
HETATM   27  C   UNL     1      41.755 -10.477  10.703  1.00  0.00     0.032 A 
BRANCH  23  28
HETATM   28  O   UNL     1      44.899 -11.015   8.898  1.00  0.00    -0.349 OA
BRANCH  28  29
HETATM   29  C   UNL     1      45.700 -12.199   8.962  1.00  0.00     0.171 C 
HETATM   30  C   UNL     1      46.851 -12.080   7.979  1.00  0.00     0.034 C 
ENDBRANCH  28  29
ENDBRANCH  23  28
ENDBRANCH  19  22
ENDBRANCH  17  18
ENDBRANCH  16  17
ENDBRANCH  15  16
ENDBRANCH   1  15
BRANCH   2  31
HETATM   31  C   UNL     1      40.648 -14.596   2.718  1.00  0.00     0.044 A 
HETATM   32  C   UNL     1      39.311 -14.730   2.311  1.00  0.00     0.054 A 
HETATM   33  C   UNL     1      38.856 -14.057   1.178  1.00  0.00     0.036 A 
HETATM   34 CL   UNL     1      37.216 -14.230   0.687  1.00  0.00    -0.084 Cl
HETATM   35  C   UNL     1      39.721 -13.261   0.431  1.00  0.00     0.024 A 
HETATM   36  C   UNL     1      41.052 -13.127   0.823  1.00  0.00     0.004 A 
HETATM   37  C   UNL     1      41.515 -13.792   1.961  1.00  0.00     0.030 A 
ENDBRANCH   2  31
TORSDOF 8
ENDMDL
MODEL 9
REMARK VINA RESULT:      -8.2      3.657      5.986
REMARK  8 active torsions:
REMARK  status: ('A' for Active; 'I' for Inactive)
REMARK    1  A    between atoms: C_2  and  O_3 
REMARK    2  A    between atoms: O_3  and  C_4 
REMARK    3  A    between atoms: C_5  and  N_6 
REMARK       I    between atoms: N_6  and  C_7 
REMARK    4  A    between atoms: C_7  and  C_8 
REMARK    5  A    between atoms: C_8  and  C_9 
REMARK    6  A    between atoms: C_9  and  S_10 
REMARK    7  A    between atoms: S_10  and  C_11 
REMARK    8  A    between atoms: N_12  and  C_13 
ROOT
HETATM    1  C   UNL     1      41.089 -16.945   3.396  1.00  0.00     0.177 A 
HETATM    2  N   UNL     1      42.102 -17.398   2.518  1.00  0.00    -0.276 N 
HETATM    3  C   UNL     1      42.136 -16.840   1.187  1.00  0.00     0.124 A 
HETATM    4  N   UNL     1      43.069 -17.133   0.302  1.00  0.00    -0.384 N 
HETATM    5  H   UNL     1      43.072 -16.704  -0.612  1.00  0.00     0.157 HD
HETATM    6  H   UNL     1      43.812 -17.777   0.539  1.00  0.00     0.157 HD
HETATM    7  C   UNL     1      41.112 -15.895   0.870  1.00  0.00     0.081 A 
HETATM    8  C   UNL     1      40.207 -15.537   1.862  1.00  0.00     0.187 A 
HETATM    9  N   UNL     1      39.306 -14.662   1.438  1.00  0.00    -0.153 NA
HETATM   10  N   UNL     1      39.652 -14.457   0.153  1.00  0.00    -0.280 N 
HETATM   11  H   UNL     1      39.090 -13.810  -0.392  1.00  0.00     0.189 HD
HETATM   12  C   UNL     1      40.751 -15.187  -0.252  1.00  0.00     0.042 A 
HETATM   13  C   UNL     1      41.273 -15.099  -1.634  1.00  0.00     0.071 C 
HETATM   14  N   UNL     1      40.184 -16.041   3.154  1.00  0.00    -0.202 NA
ENDROOT
BRANCH   1  15
HETATM   15  S   UNL     1      40.984 -17.661   5.026  1.00  0.00    -0.091 SA
BRANCH  15  16
HETATM   16  C   UNL     1      41.047 -16.190   6.105  1.00  0.00     0.091 C 
BRANCH  16  17
HETATM   17  C   UNL     1      42.272 -15.301   5.923  1.00  0.00     0.113 C 
BRANCH  17  18
HETATM   18  C   UNL     1      41.902 -13.855   5.681  1.00  0.00     0.223 C 
HETATM   19  N   UNL     1      40.693 -13.712   5.024  1.00  0.00    -0.325 N 
HETATM   20  H   UNL     1      40.012 -14.444   5.180  1.00  0.00     0.169 HD
HETATM   21  O   UNL     1      42.620 -12.951   6.101  1.00  0.00    -0.273 OA
BRANCH  19  22
HETATM   22  C   UNL     1      40.192 -12.496   4.508  1.00  0.00     0.068 A 
HETATM   23  C   UNL     1      39.297 -11.660   5.196  1.00  0.00     0.095 A 
HETATM   24  C   UNL     1      38.872 -10.461   4.609  1.00  0.00     0.039 A 
HETATM   25  C   UNL     1      39.322 -10.097   3.340  1.00  0.00     0.003 A 
HETATM   26  C   UNL     1      40.229 -10.908   2.665  1.00  0.00     0.002 A 
HETATM   27  C   UNL     1      40.677 -12.094   3.255  1.00  0.00     0.032 A 
BRANCH  23  28
HETATM   28  O   UNL     1      39.013 -11.916   6.514  1.00  0.00    -0.349 OA
BRANCH  28  29
HETATM   29  C   UNL     1      39.804 -11.164   7.439  1.00  0.00     0.171 C 
HETATM   30  C   UNL     1      39.180 -11.250   8.820  1.00  0.00     0.034 C 
ENDBRANCH  28  29
ENDBRANCH  23  28
ENDBRANCH  19  22
ENDBRANCH  17  18
ENDBRANCH  16  17
ENDBRANCH  15  16
ENDBRANCH   1  15
BRANCH   2  31
HETATM   31  C   UNL     1      43.090 -18.344   2.926  1.00  0.00     0.044 A 
HETATM   32  C   UNL     1      43.218 -19.578   2.273  1.00  0.00     0.054 A 
HETATM   33  C   UNL     1      44.142 -20.517   2.729  1.00  0.00     0.036 A 
HETATM   34 CL   UNL     1      44.289 -22.029   1.921  1.00  0.00    -0.084 Cl
HETATM   35  C   UNL     1      44.934 -20.250   3.843  1.00  0.00     0.024 A 
HETATM   36  C   UNL     1      44.810 -19.028   4.504  1.00  0.00     0.004 A 
HETATM   37  C   UNL     1      43.892 -18.079   4.049  1.00  0.00     0.030 A 
ENDBRANCH   2  31
TORSDOF 8
ENDMDL
MODEL 10
REMARK VINA RESULT:      -8.2      4.296      8.190
REMARK  8 active torsions:
REMARK  status: ('A' for Active; 'I' for Inactive)
REMARK    1  A    between atoms: C_2  and  O_3 
REMARK    2  A    between atoms: O_3  and  C_4 
REMARK    3  A    between atoms: C_5  and  N_6 
REMARK       I    between atoms: N_6  and  C_7 
REMARK    4  A    between atoms: C_7  and  C_8 
REMARK    5  A    between atoms: C_8  and  C_9 
REMARK    6  A    between atoms: C_9  and  S_10 
REMARK    7  A    between atoms: S_10  and  C_11 
REMARK    8  A    between atoms: N_12  and  C_13 
ROOT
HETATM    1  C   UNL     1      43.556 -17.264   3.822  1.00  0.00     0.177 A 
HETATM    2  N   UNL     1      43.146 -16.918   5.131  1.00  0.00    -0.276 N 
HETATM    3  C   UNL     1      43.240 -17.932   6.155  1.00  0.00     0.124 A 
HETATM    4  N   UNL     1      42.951 -17.712   7.422  1.00  0.00    -0.384 N 
HETATM    5  H   UNL     1      43.050 -18.440   8.114  1.00  0.00     0.157 HD
HETATM    6  H   UNL     1      42.645 -16.795   7.724  1.00  0.00     0.157 HD
HETATM    7  C   UNL     1      43.715 -19.213   5.735  1.00  0.00     0.081 A 
HETATM    8  C   UNL     1      44.104 -19.378   4.412  1.00  0.00     0.187 A 
HETATM    9  N   UNL     1      44.517 -20.610   4.151  1.00  0.00    -0.153 NA
HETATM   10  N   UNL     1      44.390 -21.238   5.336  1.00  0.00    -0.280 N 
HETATM   11  H   UNL     1      44.650 -22.219   5.384  1.00  0.00     0.189 HD
HETATM   12  C   UNL     1      43.902 -20.432   6.345  1.00  0.00     0.042 A 
HETATM   13  C   UNL     1      43.688 -20.949   7.714  1.00  0.00     0.071 C 
HETATM   14  N   UNL     1      44.050 -18.402   3.428  1.00  0.00    -0.202 NA
ENDROOT
BRANCH   1  15
HETATM   15  S   UNL     1      43.395 -16.052   2.523  1.00  0.00    -0.091 SA
BRANCH  15  16
HETATM   16  C   UNL     1      41.660 -16.267   2.000  1.00  0.00     0.091 C 
BRANCH  16  17
HETATM   17  C   UNL     1      41.453 -16.491   0.506  1.00  0.00     0.113 C 
BRANCH  17  18
HETATM   18  C   UNL     1      41.039 -15.226  -0.212  1.00  0.00     0.223 C 
HETATM   19  N   UNL     1      41.927 -14.857  -1.207  1.00  0.00    -0.325 N 
HETATM   20  H   UNL     1      42.437 -15.610  -1.651  1.00  0.00     0.169 HD
HETATM   21  O   UNL     1      39.981 -14.669   0.071  1.00  0.00    -0.273 OA
BRANCH  19  22
HETATM   22  C   UNL     1      41.891 -13.632  -1.909  1.00  0.00     0.068 A 
HETATM   23  C   UNL     1      41.478 -13.504  -3.245  1.00  0.00     0.095 A 
HETATM   24  C   UNL     1      41.457 -12.241  -3.851  1.00  0.00     0.039 A 
HETATM   25  C   UNL     1      41.854 -11.109  -3.138  1.00  0.00     0.003 A 
HETATM   26  C   UNL     1      42.239 -11.227  -1.806  1.00  0.00     0.002 A 
HETATM   27  C   UNL     1      42.239 -12.480  -1.188  1.00  0.00     0.032 A 
BRANCH  23  28
HETATM   28  O   UNL     1      40.902 -14.577  -3.879  1.00  0.00    -0.349 OA
BRANCH  28  29
HETATM   29  C   UNL     1      39.500 -14.718  -3.630  1.00  0.00     0.171 C 
HETATM   30  C   UNL     1      39.035 -16.075  -4.128  1.00  0.00     0.034 C 
ENDBRANCH  28  29
ENDBRANCH  23  28
ENDBRANCH  19  22
ENDBRANCH  17  18
ENDBRANCH  16  17
ENDBRANCH  15  16
ENDBRANCH   1  15
BRANCH   2  31
HETATM   31  C   UNL     1      42.690 -15.606   5.459  1.00  0.00     0.044 A 
HETATM   32  C   UNL     1      41.330 -15.273   5.364  1.00  0.00     0.054 A 
HETATM   33  C   UNL     1      40.912 -13.968   5.621  1.00  0.00     0.036 A 
HETATM   34 CL   UNL     1      39.243 -13.569   5.500  1.00  0.00    -0.084 Cl
HETATM   35  C   UNL     1      41.835 -12.980   5.959  1.00  0.00     0.024 A 
HETATM   36  C   UNL     1      43.189 -13.300   6.049  1.00  0.00     0.004 A 
HETATM   37  C   UNL     1      43.616 -14.607   5.800  1.00  0.00     0.030 A 
ENDBRANCH   2  31
TORSDOF 8
ENDMDL
