MODEL 1
REMARK VINA RESULT:      -7.1      0.000      0.000
REMARK  10 active torsions:
REMARK  status: ('A' for Active; 'I' for Inactive)
REMARK    1  A    between atoms: C_2  and  C_3 
REMARK    2  A    between atoms: C_3  and  C_4 
REMARK       I    between atoms: C_4  and  N_5 
REMARK    3  A    between atoms: N_5  and  C_6 
REMARK    4  A    between atoms: C_6  and  N_7 
REMARK    5  A    between atoms: C_6  and  C_21 
REMARK    6  A    between atoms: N_7  and  C_8 
REMARK    7  A    between atoms: C_8  and  N_9 
REMARK    8  A    between atoms: N_9  and  N_10 
REMARK       I    between atoms: N_10  and  C_11 
REMARK    9  A    between atoms: C_11  and  C_12 
REMARK   10  A    between atoms: C_13  and  O_14 
ROOT
HETATM    1  C   UNL     1      39.736 -14.667   2.060  1.00  0.00     0.188 C 
HETATM    2  S   UNL     1      39.486 -13.023   2.152  1.00  0.00    -0.039 SA
ENDROOT
BRANCH   1   3
HETATM    3  N   UNL     1      40.127 -15.364   0.954  1.00  0.00    -0.341 N 
HETATM    4  H   UNL     1      39.471 -16.055   0.611  1.00  0.00     0.164 HD
BRANCH   3   5
HETATM    5  C   UNL     1      41.280 -15.135   0.091  1.00  0.00     0.241 C 
BRANCH   5   6
HETATM    6  N   UNL     1      42.169 -16.289   0.181  1.00  0.00    -0.336 N 
HETATM    7  C   UNL     1      42.985 -16.560   1.251  1.00  0.00     0.219 C 
HETATM    8  O   UNL     1      43.141 -15.782   2.182  1.00  0.00    -0.274 OA
HETATM    9  H   UNL     1      42.106 -16.971  -0.564  1.00  0.00     0.164 HD
BRANCH   7  10
HETATM   10  C   UNL     1      43.682 -17.906   1.124  1.00  0.00     0.102 C 
BRANCH  10  11
HETATM   11  C   UNL     1      42.941 -19.058   1.797  1.00  0.00     0.005 C 
HETATM   12  C   UNL     1      43.861 -20.201   2.196  1.00  0.00     0.005 C 
ENDBRANCH  10  11
ENDBRANCH   7  10
ENDBRANCH   5   6
BRANCH   5  13
HETATM   13  C   UNL     1      40.898 -14.631  -1.370  1.00  0.00     0.226 C 
HETATM   14 CL   UNL     1      41.004 -15.977  -2.564  1.00  0.00    -0.080 Cl
HETATM   15 CL   UNL     1      39.257 -13.902  -1.469  1.00  0.00    -0.080 Cl
HETATM   16 CL   UNL     1      42.063 -13.356  -1.902  1.00  0.00    -0.080 Cl
ENDBRANCH   5  13
ENDBRANCH   3   5
ENDBRANCH   1   3
BRANCH   1  17
HETATM   17  N   UNL     1      39.565 -15.434   3.188  1.00  0.00    -0.274 N 
HETATM   18  H   UNL     1      38.629 -15.826   3.310  1.00  0.00     0.189 HD
BRANCH  17  19
HETATM   19  N   UNL     1      40.620 -16.239   3.668  1.00  0.00    -0.264 N 
HETATM   20  C   UNL     1      40.971 -16.064   4.998  1.00  0.00     0.272 C 
HETATM   21  O   UNL     1      40.336 -15.343   5.767  1.00  0.00    -0.266 OA
HETATM   22  H   UNL     1      41.322 -16.506   2.982  1.00  0.00     0.190 HD
BRANCH  20  23
HETATM   23  C   UNL     1      42.216 -16.726   5.472  1.00  0.00     0.066 A 
HETATM   24  C   UNL     1      43.136 -15.993   6.240  1.00  0.00     0.081 A 
HETATM   25  C   UNL     1      44.326 -16.576   6.673  1.00  0.00     0.037 A 
HETATM   26  C   UNL     1      44.603 -17.905   6.361  1.00  0.00     0.003 A 
HETATM   27  C   UNL     1      43.684 -18.653   5.625  1.00  0.00     0.001 A 
HETATM   28  C   UNL     1      42.492 -18.071   5.183  1.00  0.00     0.020 A 
BRANCH  24  29
HETATM   29  O   UNL     1      42.940 -14.687   6.606  1.00  0.00    -0.360 OA
HETATM   30  H   UNL     1      43.659 -14.147   6.207  1.00  0.00     0.217 HD
ENDBRANCH  24  29
ENDBRANCH  20  23
ENDBRANCH  17  19
ENDBRANCH   1  17
TORSDOF 10
ENDMDL
MODEL 2
REMARK VINA RESULT:      -6.8      3.953      6.500
REMARK  10 active torsions:
REMARK  status: ('A' for Active; 'I' for Inactive)
REMARK    1  A    between atoms: C_2  and  C_3 
REMARK    2  A    between atoms: C_3  and  C_4 
REMARK       I    between atoms: C_4  and  N_5 
REMARK    3  A    between atoms: N_5  and  C_6 
REMARK    4  A    between atoms: C_6  and  N_7 
REMARK    5  A    between atoms: C_6  and  C_21 
REMARK    6  A    between atoms: N_7  and  C_8 
REMARK    7  A    between atoms: C_8  and  N_9 
REMARK    8  A    between atoms: N_9  and  N_10 
REMARK       I    between atoms: N_10  and  C_11 
REMARK    9  A    between atoms: C_11  and  C_12 
REMARK   10  A    between atoms: C_13  and  O_14 
ROOT
HETATM    1  C   UNL     1      42.244 -14.529   4.281  1.00  0.00     0.188 C 
HETATM    2  S   UNL     1      42.201 -13.062   5.069  1.00  0.00    -0.039 SA
ENDROOT
BRANCH   1   3
HETATM    3  N   UNL     1      43.236 -15.461   4.361  1.00  0.00    -0.341 N 
HETATM    4  H   UNL     1      44.160 -15.150   4.085  1.00  0.00     0.164 HD
BRANCH   3   5
HETATM    5  C   UNL     1      43.193 -16.792   4.955  1.00  0.00     0.241 C 
BRANCH   5   6
HETATM    6  N   UNL     1      43.598 -17.768   3.947  1.00  0.00    -0.336 N 
HETATM    7  C   UNL     1      42.890 -18.045   2.805  1.00  0.00     0.219 C 
HETATM    8  O   UNL     1      41.775 -17.591   2.587  1.00  0.00    -0.274 OA
HETATM    9  H   UNL     1      44.506 -18.197   4.069  1.00  0.00     0.164 HD
BRANCH   7  10
HETATM   10  C   UNL     1      43.632 -18.994   1.876  1.00  0.00     0.102 C 
BRANCH  10  11
HETATM   11  C   UNL     1      44.192 -20.234   2.569  1.00  0.00     0.005 C 
HETATM   12  C   UNL     1      43.921 -21.516   1.796  1.00  0.00     0.005 C 
ENDBRANCH  10  11
ENDBRANCH   7  10
ENDBRANCH   5   6
BRANCH   5  13
HETATM   13  C   UNL     1      43.904 -16.885   6.376  1.00  0.00     0.226 C 
HETATM   14 CL   UNL     1      42.717 -17.317   7.662  1.00  0.00    -0.080 Cl
HETATM   15 CL   UNL     1      45.258 -18.067   6.423  1.00  0.00    -0.080 Cl
HETATM   16 CL   UNL     1      44.604 -15.279   6.817  1.00  0.00    -0.080 Cl
ENDBRANCH   5  13
ENDBRANCH   3   5
ENDBRANCH   1   3
BRANCH   1  17
HETATM   17  N   UNL     1      41.187 -14.886   3.477  1.00  0.00    -0.274 N 
HETATM   18  H   UNL     1      40.268 -14.840   3.922  1.00  0.00     0.189 HD
BRANCH  17  19
HETATM   19  N   UNL     1      41.203 -14.577   2.101  1.00  0.00    -0.264 N 
HETATM   20  C   UNL     1      40.029 -14.819   1.402  1.00  0.00     0.272 C 
HETATM   21  O   UNL     1      38.985 -15.169   1.952  1.00  0.00    -0.266 OA
HETATM   22  H   UNL     1      42.104 -14.663   1.637  1.00  0.00     0.190 HD
BRANCH  20  23
HETATM   23  C   UNL     1      40.080 -14.720  -0.081  1.00  0.00     0.066 A 
HETATM   24  C   UNL     1      41.040 -15.463  -0.788  1.00  0.00     0.081 A 
HETATM   25  C   UNL     1      41.133 -15.368  -2.175  1.00  0.00     0.037 A 
HETATM   26  C   UNL     1      40.254 -14.544  -2.876  1.00  0.00     0.003 A 
HETATM   27  C   UNL     1      39.278 -13.824  -2.190  1.00  0.00     0.001 A 
HETATM   28  C   UNL     1      39.184 -13.911  -0.797  1.00  0.00     0.020 A 
BRANCH  24  29
HETATM   29  O   UNL     1      41.933 -16.308  -0.184  1.00  0.00    -0.360 OA
HETATM   30  H   UNL     1      41.626 -16.469   0.736  1.00  0.00     0.217 HD
ENDBRANCH  24  29
ENDBRANCH  20  23
ENDBRANCH  17  19
ENDBRANCH   1  17
TORSDOF 10
ENDMDL
MODEL 3
REMARK VINA RESULT:      -6.7      2.062      2.777
REMARK  10 active torsions:
REMARK  status: ('A' for Active; 'I' for Inactive)
REMARK    1  A    between atoms: C_2  and  C_3 
REMARK    2  A    between atoms: C_3  and  C_4 
REMARK       I    between atoms: C_4  and  N_5 
REMARK    3  A    between atoms: N_5  and  C_6 
REMARK    4  A    between atoms: C_6  and  N_7 
REMARK    5  A    between atoms: C_6  and  C_21 
REMARK    6  A    between atoms: N_7  and  C_8 
REMARK    7  A    between atoms: C_8  and  N_9 
REMARK    8  A    between atoms: N_9  and  N_10 
REMARK       I    between atoms: N_10  and  C_11 
REMARK    9  A    between atoms: C_11  and  C_12 
REMARK   10  A    between atoms: C_13  and  O_14 
ROOT
HETATM    1  C   UNL     1      41.842 -12.217   0.754  1.00  0.00     0.188 C 
HETATM    2  S   UNL     1      42.255 -10.766   0.049  1.00  0.00    -0.039 SA
ENDROOT
BRANCH   1   3
HETATM    3  N   UNL     1      41.154 -13.236   0.163  1.00  0.00    -0.341 N 
HETATM    4  H   UNL     1      40.165 -13.287   0.379  1.00  0.00     0.164 HD
BRANCH   3   5
HETATM    5  C   UNL     1      41.600 -14.158  -0.875  1.00  0.00     0.241 C 
BRANCH   5   6
HETATM    6  N   UNL     1      41.943 -15.433  -0.253  1.00  0.00    -0.336 N 
HETATM    7  C   UNL     1      41.146 -16.100   0.644  1.00  0.00     0.219 C 
HETATM    8  O   UNL     1      40.123 -15.618   1.110  1.00  0.00    -0.274 OA
HETATM    9  H   UNL     1      42.787 -15.886  -0.579  1.00  0.00     0.164 HD
BRANCH   7  10
HETATM   10  C   UNL     1      41.698 -17.470   1.006  1.00  0.00     0.102 C 
BRANCH  10  11
HETATM   11  C   UNL     1      43.219 -17.521   1.116  1.00  0.00     0.005 C 
HETATM   12  C   UNL     1      43.725 -18.813   1.739  1.00  0.00     0.005 C 
ENDBRANCH  10  11
ENDBRANCH   7  10
ENDBRANCH   5   6
BRANCH   5  13
HETATM   13  C   UNL     1      40.639 -14.209  -2.144  1.00  0.00     0.226 C 
HETATM   14 CL   UNL     1      38.913 -14.047  -1.651  1.00  0.00    -0.080 Cl
HETATM   15 CL   UNL     1      41.009 -12.948  -3.372  1.00  0.00    -0.080 Cl
HETATM   16 CL   UNL     1      40.807 -15.805  -2.975  1.00  0.00    -0.080 Cl
ENDBRANCH   5  13
ENDBRANCH   3   5
ENDBRANCH   1   3
BRANCH   1  17
HETATM   17  N   UNL     1      42.231 -12.466   2.049  1.00  0.00    -0.274 N 
HETATM   18  H   UNL     1      42.221 -11.654   2.670  1.00  0.00     0.189 HD
BRANCH  17  19
HETATM   19  N   UNL     1      41.911 -13.694   2.665  1.00  0.00    -0.264 N 
HETATM   20  C   UNL     1      42.714 -14.076   3.730  1.00  0.00     0.272 C 
HETATM   21  O   UNL     1      43.584 -13.346   4.205  1.00  0.00    -0.266 OA
HETATM   22  H   UNL     1      41.490 -14.396   2.062  1.00  0.00     0.190 HD
BRANCH  20  23
HETATM   23  C   UNL     1      42.550 -15.459   4.253  1.00  0.00     0.066 A 
HETATM   24  C   UNL     1      41.258 -15.991   4.400  1.00  0.00     0.081 A 
HETATM   25  C   UNL     1      41.070 -17.271   4.915  1.00  0.00     0.037 A 
HETATM   26  C   UNL     1      42.172 -18.046   5.272  1.00  0.00     0.003 A 
HETATM   27  C   UNL     1      43.461 -17.541   5.104  1.00  0.00     0.001 A 
HETATM   28  C   UNL     1      43.655 -16.254   4.593  1.00  0.00     0.020 A 
BRANCH  24  29
HETATM   29  O   UNL     1      40.119 -15.307   4.061  1.00  0.00    -0.360 OA
HETATM   30  H   UNL     1      39.363 -15.934   4.107  1.00  0.00     0.217 HD
ENDBRANCH  24  29
ENDBRANCH  20  23
ENDBRANCH  17  19
ENDBRANCH   1  17
TORSDOF 10
ENDMDL
MODEL 4
REMARK VINA RESULT:      -6.6      3.803      5.069
REMARK  10 active torsions:
REMARK  status: ('A' for Active; 'I' for Inactive)
REMARK    1  A    between atoms: C_2  and  C_3 
REMARK    2  A    between atoms: C_3  and  C_4 
REMARK       I    between atoms: C_4  and  N_5 
REMARK    3  A    between atoms: N_5  and  C_6 
REMARK    4  A    between atoms: C_6  and  N_7 
REMARK    5  A    between atoms: C_6  and  C_21 
REMARK    6  A    between atoms: N_7  and  C_8 
REMARK    7  A    between atoms: C_8  and  N_9 
REMARK    8  A    between atoms: N_9  and  N_10 
REMARK       I    between atoms: N_10  and  C_11 
REMARK    9  A    between atoms: C_11  and  C_12 
REMARK   10  A    between atoms: C_13  and  O_14 
ROOT
HETATM    1  C   UNL     1      41.438 -17.096   5.944  1.00  0.00     0.188 C 
HETATM    2  S   UNL     1      42.475 -17.166   7.246  1.00  0.00    -0.039 SA
ENDROOT
BRANCH   1   3
HETATM    3  N   UNL     1      41.612 -17.712   4.739  1.00  0.00    -0.341 N 
HETATM    4  H   UNL     1      40.839 -18.281   4.416  1.00  0.00     0.164 HD
BRANCH   3   5
HETATM    5  C   UNL     1      42.681 -17.526   3.764  1.00  0.00     0.241 C 
BRANCH   5   6
HETATM    6  N   UNL     1      43.312 -18.818   3.510  1.00  0.00    -0.336 N 
HETATM    7  C   UNL     1      44.283 -19.379   4.302  1.00  0.00     0.219 C 
HETATM    8  O   UNL     1      44.809 -18.782   5.232  1.00  0.00    -0.274 OA
HETATM    9  H   UNL     1      42.938 -19.364   2.745  1.00  0.00     0.164 HD
BRANCH   7  10
HETATM   10  C   UNL     1      44.641 -20.792   3.871  1.00  0.00     0.102 C 
BRANCH  10  11
HETATM   11  C   UNL     1      44.829 -20.956   2.366  1.00  0.00     0.005 C 
HETATM   12  C   UNL     1      43.810 -21.897   1.741  1.00  0.00     0.005 C 
ENDBRANCH  10  11
ENDBRANCH   7  10
ENDBRANCH   5   6
BRANCH   5  13
HETATM   13  C   UNL     1      42.251 -16.671   2.493  1.00  0.00     0.226 C 
HETATM   14 CL   UNL     1      40.507 -16.921   2.110  1.00  0.00    -0.080 Cl
HETATM   15 CL   UNL     1      42.552 -14.908   2.681  1.00  0.00    -0.080 Cl
HETATM   16 CL   UNL     1      43.194 -17.205   1.047  1.00  0.00    -0.080 Cl
ENDBRANCH   5  13
ENDBRANCH   3   5
ENDBRANCH   1   3
BRANCH   1  17
HETATM   17  N   UNL     1      40.270 -16.380   6.057  1.00  0.00    -0.274 N 
HETATM   18  H   UNL     1      39.470 -16.905   6.416  1.00  0.00     0.189 HD
BRANCH  17  19
HETATM   19  N   UNL     1      40.304 -15.017   6.420  1.00  0.00    -0.264 N 
HETATM   20  C   UNL     1      40.039 -14.104   5.410  1.00  0.00     0.272 C 
HETATM   21  O   UNL     1      39.674 -14.442   4.284  1.00  0.00    -0.266 OA
HETATM   22  H   UNL     1      40.939 -14.775   7.177  1.00  0.00     0.190 HD
BRANCH  20  23
HETATM   23  C   UNL     1      40.287 -12.666   5.701  1.00  0.00     0.066 A 
HETATM   24  C   UNL     1      39.786 -12.107   6.888  1.00  0.00     0.081 A 
HETATM   25  C   UNL     1      39.976 -10.757   7.175  1.00  0.00     0.037 A 
HETATM   26  C   UNL     1      40.686  -9.951   6.287  1.00  0.00     0.003 A 
HETATM   27  C   UNL     1      41.214 -10.500   5.118  1.00  0.00     0.001 A 
HETATM   28  C   UNL     1      41.021 -11.853   4.824  1.00  0.00     0.020 A 
BRANCH  24  29
HETATM   29  O   UNL     1      39.091 -12.827   7.825  1.00  0.00    -0.360 OA
HETATM   30  H   UNL     1      39.740 -13.325   8.370  1.00  0.00     0.217 HD
ENDBRANCH  24  29
ENDBRANCH  20  23
ENDBRANCH  17  19
ENDBRANCH   1  17
TORSDOF 10
ENDMDL
MODEL 5
REMARK VINA RESULT:      -6.6      3.973      5.949
REMARK  10 active torsions:
REMARK  status: ('A' for Active; 'I' for Inactive)
REMARK    1  A    between atoms: C_2  and  C_3 
REMARK    2  A    between atoms: C_3  and  C_4 
REMARK       I    between atoms: C_4  and  N_5 
REMARK    3  A    between atoms: N_5  and  C_6 
REMARK    4  A    between atoms: C_6  and  N_7 
REMARK    5  A    between atoms: C_6  and  C_21 
REMARK    6  A    between atoms: N_7  and  C_8 
REMARK    7  A    between atoms: C_8  and  N_9 
REMARK    8  A    between atoms: N_9  and  N_10 
REMARK       I    between atoms: N_10  and  C_11 
REMARK    9  A    between atoms: C_11  and  C_12 
REMARK   10  A    between atoms: C_13  and  O_14 
ROOT
HETATM    1  C   UNL     1      41.991 -13.664   3.254  1.00  0.00     0.188 C 
HETATM    2  S   UNL     1      41.997 -13.231   1.645  1.00  0.00    -0.039 SA
ENDROOT
BRANCH   1   3
HETATM    3  N   UNL     1      42.299 -12.857   4.309  1.00  0.00    -0.341 N 
HETATM    4  H   UNL     1      42.832 -12.023   4.089  1.00  0.00     0.164 HD
BRANCH   3   5
HETATM    5  C   UNL     1      41.819 -12.929   5.685  1.00  0.00     0.241 C 
BRANCH   5   6
HETATM    6  N   UNL     1      42.971 -12.991   6.579  1.00  0.00    -0.336 N 
HETATM    7  C   UNL     1      43.936 -13.967   6.539  1.00  0.00     0.219 C 
HETATM    8  O   UNL     1      43.848 -14.959   5.827  1.00  0.00    -0.274 OA
HETATM    9  H   UNL     1      43.101 -12.209   7.209  1.00  0.00     0.164 HD
BRANCH   7  10
HETATM   10  C   UNL     1      45.087 -13.687   7.491  1.00  0.00     0.102 C 
BRANCH  10  11
HETATM   11  C   UNL     1      44.758 -12.677   8.588  1.00  0.00     0.005 C 
HETATM   12  C   UNL     1      45.915 -11.738   8.893  1.00  0.00     0.005 C 
ENDBRANCH  10  11
ENDBRANCH   7  10
ENDBRANCH   5   6
BRANCH   5  13
HETATM   13  C   UNL     1      40.694 -11.857   6.030  1.00  0.00     0.226 C 
HETATM   14 CL   UNL     1      41.073 -11.001   7.571  1.00  0.00    -0.080 Cl
HETATM   15 CL   UNL     1      40.452 -10.632   4.736  1.00  0.00    -0.080 Cl
HETATM   16 CL   UNL     1      39.106 -12.688   6.260  1.00  0.00    -0.080 Cl
ENDBRANCH   5  13
ENDBRANCH   3   5
ENDBRANCH   1   3
BRANCH   1  17
HETATM   17  N   UNL     1      41.626 -14.944   3.600  1.00  0.00    -0.274 N 
HETATM   18  H   UNL     1      40.652 -15.185   3.407  1.00  0.00     0.189 HD
BRANCH  17  19
HETATM   19  N   UNL     1      42.544 -16.006   3.465  1.00  0.00    -0.264 N 
HETATM   20  C   UNL     1      42.030 -17.208   2.999  1.00  0.00     0.272 C 
HETATM   21  O   UNL     1      40.871 -17.330   2.606  1.00  0.00    -0.266 OA
HETATM   22  H   UNL     1      43.329 -16.000   4.112  1.00  0.00     0.190 HD
BRANCH  20  23
HETATM   23  C   UNL     1      42.915 -18.403   3.061  1.00  0.00     0.066 A 
HETATM   24  C   UNL     1      43.693 -18.625   4.208  1.00  0.00     0.081 A 
HETATM   25  C   UNL     1      44.554 -19.718   4.284  1.00  0.00     0.037 A 
HETATM   26  C   UNL     1      44.634 -20.615   3.220  1.00  0.00     0.003 A 
HETATM   27  C   UNL     1      43.844 -20.422   2.087  1.00  0.00     0.001 A 
HETATM   28  C   UNL     1      42.984 -19.324   2.004  1.00  0.00     0.020 A 
BRANCH  24  29
HETATM   29  O   UNL     1      43.668 -17.805   5.306  1.00  0.00    -0.360 OA
HETATM   30  H   UNL     1      44.463 -17.227   5.273  1.00  0.00     0.217 HD
ENDBRANCH  24  29
ENDBRANCH  20  23
ENDBRANCH  17  19
ENDBRANCH   1  17
TORSDOF 10
ENDMDL
MODEL 6
REMARK VINA RESULT:      -6.6      5.592      6.851
REMARK  10 active torsions:
REMARK  status: ('A' for Active; 'I' for Inactive)
REMARK    1  A    between atoms: C_2  and  C_3 
REMARK    2  A    between atoms: C_3  and  C_4 
REMARK       I    between atoms: C_4  and  N_5 
REMARK    3  A    between atoms: N_5  and  C_6 
REMARK    4  A    between atoms: C_6  and  N_7 
REMARK    5  A    between atoms: C_6  and  C_21 
REMARK    6  A    between atoms: N_7  and  C_8 
REMARK    7  A    between atoms: C_8  and  N_9 
REMARK    8  A    between atoms: N_9  and  N_10 
REMARK       I    between atoms: N_10  and  C_11 
REMARK    9  A    between atoms: C_11  and  C_12 
REMARK   10  A    between atoms: C_13  and  O_14 
ROOT
HETATM    1  C   UNL     1      43.449 -14.939   5.729  1.00  0.00     0.188 C 
HETATM    2  S   UNL     1      43.603 -14.210   4.239  1.00  0.00    -0.039 SA
ENDROOT
BRANCH   1   3
HETATM    3  N   UNL     1      42.627 -15.983   6.038  1.00  0.00    -0.341 N 
HETATM    4  H   UNL     1      41.683 -15.736   6.314  1.00  0.00     0.164 HD
BRANCH   3   5
HETATM    5  C   UNL     1      42.856 -17.411   5.857  1.00  0.00     0.241 C 
BRANCH   5   6
HETATM    6  N   UNL     1      43.232 -17.653   4.468  1.00  0.00    -0.336 N 
HETATM    7  C   UNL     1      42.372 -17.559   3.402  1.00  0.00     0.219 C 
HETATM    8  O   UNL     1      41.167 -17.389   3.533  1.00  0.00    -0.274 OA
HETATM    9  H   UNL     1      44.213 -17.816   4.284  1.00  0.00     0.164 HD
BRANCH   7  10
HETATM   10  C   UNL     1      43.081 -17.720   2.067  1.00  0.00     0.102 C 
BRANCH  10  11
HETATM   11  C   UNL     1      44.085 -18.868   2.029  1.00  0.00     0.005 C 
HETATM   12  C   UNL     1      43.420 -20.235   1.965  1.00  0.00     0.005 C 
ENDBRANCH  10  11
ENDBRANCH   7  10
ENDBRANCH   5   6
BRANCH   5  13
HETATM   13  C   UNL     1      43.782 -18.060   6.979  1.00  0.00     0.226 C 
HETATM   14 CL   UNL     1      43.489 -17.287   8.581  1.00  0.00    -0.080 Cl
HETATM   15 CL   UNL     1      43.561 -19.837   7.148  1.00  0.00    -0.080 Cl
HETATM   16 CL   UNL     1      45.521 -17.791   6.569  1.00  0.00    -0.080 Cl
ENDBRANCH   5  13
ENDBRANCH   3   5
ENDBRANCH   1   3
BRANCH   1  17
HETATM   17  N   UNL     1      44.224 -14.493   6.774  1.00  0.00    -0.274 N 
HETATM   18  H   UNL     1      45.232 -14.518   6.610  1.00  0.00     0.189 HD
BRANCH  17  19
HETATM   19  N   UNL     1      43.776 -13.433   7.590  1.00  0.00    -0.264 N 
HETATM   20  C   UNL     1      44.742 -12.791   8.350  1.00  0.00     0.272 C 
HETATM   21  O   UNL     1      45.944 -13.034   8.245  1.00  0.00    -0.266 OA
HETATM   22  H   UNL     1      42.821 -13.508   7.931  1.00  0.00     0.190 HD
BRANCH  20  23
HETATM   23  C   UNL     1      44.276 -11.827   9.383  1.00  0.00     0.066 A 
HETATM   24  C   UNL     1      43.119 -11.067   9.143  1.00  0.00     0.081 A 
HETATM   25  C   UNL     1      42.673 -10.135  10.077  1.00  0.00     0.037 A 
HETATM   26  C   UNL     1      43.368  -9.962  11.273  1.00  0.00     0.003 A 
HETATM   27  C   UNL     1      44.501 -10.730  11.536  1.00  0.00     0.001 A 
HETATM   28  C   UNL     1      44.955 -11.663  10.599  1.00  0.00     0.020 A 
BRANCH  24  29
HETATM   29  O   UNL     1      42.366 -11.181   8.003  1.00  0.00    -0.360 OA
HETATM   30  H   UNL     1      41.752 -10.414   7.965  1.00  0.00     0.217 HD
ENDBRANCH  24  29
ENDBRANCH  20  23
ENDBRANCH  17  19
ENDBRANCH   1  17
TORSDOF 10
ENDMDL
MODEL 7
REMARK VINA RESULT:      -6.5      2.254      2.838
REMARK  10 active torsions:
REMARK  status: ('A' for Active; 'I' for Inactive)
REMARK    1  A    between atoms: C_2  and  C_3 
REMARK    2  A    between atoms: C_3  and  C_4 
REMARK       I    between atoms: C_4  and  N_5 
REMARK    3  A    between atoms: N_5  and  C_6 
REMARK    4  A    between atoms: C_6  and  N_7 
REMARK    5  A    between atoms: C_6  and  C_21 
REMARK    6  A    between atoms: N_7  and  C_8 
REMARK    7  A    between atoms: C_8  and  N_9 
REMARK    8  A    between atoms: N_9  and  N_10 
REMARK       I    between atoms: N_10  and  C_11 
REMARK    9  A    between atoms: C_11  and  C_12 
REMARK   10  A    between atoms: C_13  and  O_14 
ROOT
HETATM    1  C   UNL     1      39.806 -13.458   5.562  1.00  0.00     0.188 C 
HETATM    2  S   UNL     1      39.347 -11.918   6.002  1.00  0.00    -0.039 SA
ENDROOT
BRANCH   1   3
HETATM    3  N   UNL     1      39.673 -14.018   4.325  1.00  0.00    -0.341 N 
HETATM    4  H   UNL     1      38.915 -14.682   4.218  1.00  0.00     0.164 HD
BRANCH   3   5
HETATM    5  C   UNL     1      40.355 -13.667   3.085  1.00  0.00     0.241 C 
BRANCH   5   6
HETATM    6  N   UNL     1      41.353 -14.691   2.793  1.00  0.00    -0.336 N 
HETATM    7  C   UNL     1      42.706 -14.464   2.735  1.00  0.00     0.219 C 
HETATM    8  O   UNL     1      43.195 -13.344   2.793  1.00  0.00    -0.274 OA
HETATM    9  H   UNL     1      41.019 -15.643   2.717  1.00  0.00     0.164 HD
BRANCH   7  10
HETATM   10  C   UNL     1      43.504 -15.747   2.560  1.00  0.00     0.102 C 
BRANCH  10  11
HETATM   11  C   UNL     1      42.871 -16.748   1.597  1.00  0.00     0.005 C 
HETATM   12  C   UNL     1      43.768 -17.943   1.312  1.00  0.00     0.005 C 
ENDBRANCH  10  11
ENDBRANCH   7  10
ENDBRANCH   5   6
BRANCH   5  13
HETATM   13  C   UNL     1      39.370 -13.262   1.902  1.00  0.00     0.226 C 
HETATM   14 CL   UNL     1      38.367 -14.670   1.390  1.00  0.00    -0.080 Cl
HETATM   15 CL   UNL     1      38.276 -11.897   2.317  1.00  0.00    -0.080 Cl
HETATM   16 CL   UNL     1      40.326 -12.739   0.460  1.00  0.00    -0.080 Cl
ENDBRANCH   5  13
ENDBRANCH   3   5
ENDBRANCH   1   3
BRANCH   1  17
HETATM   17  N   UNL     1      40.401 -14.271   6.497  1.00  0.00    -0.274 N 
HETATM   18  H   UNL     1      39.762 -14.709   7.163  1.00  0.00     0.189 HD
BRANCH  17  19
HETATM   19  N   UNL     1      41.529 -15.045   6.151  1.00  0.00    -0.264 N 
HETATM   20  C   UNL     1      41.382 -16.422   6.245  1.00  0.00     0.272 C 
HETATM   21  O   UNL     1      40.305 -16.962   6.496  1.00  0.00    -0.266 OA
HETATM   22  H   UNL     1      42.433 -14.613   6.320  1.00  0.00     0.190 HD
BRANCH  20  23
HETATM   23  C   UNL     1      42.607 -17.254   6.109  1.00  0.00     0.066 A 
HETATM   24  C   UNL     1      43.668 -17.071   7.012  1.00  0.00     0.081 A 
HETATM   25  C   UNL     1      44.840 -17.814   6.892  1.00  0.00     0.037 A 
HETATM   26  C   UNL     1      44.962 -18.764   5.880  1.00  0.00     0.003 A 
HETATM   27  C   UNL     1      43.905 -18.976   4.994  1.00  0.00     0.001 A 
HETATM   28  C   UNL     1      42.729 -18.229   5.107  1.00  0.00     0.020 A 
BRANCH  24  29
HETATM   29  O   UNL     1      43.630 -16.172   8.045  1.00  0.00    -0.360 OA
HETATM   30  H   UNL     1      43.478 -16.671   8.879  1.00  0.00     0.217 HD
ENDBRANCH  24  29
ENDBRANCH  20  23
ENDBRANCH  17  19
ENDBRANCH   1  17
TORSDOF 10
ENDMDL
MODEL 8
REMARK VINA RESULT:      -6.5      3.904      5.282
REMARK  10 active torsions:
REMARK  status: ('A' for Active; 'I' for Inactive)
REMARK    1  A    between atoms: C_2  and  C_3 
REMARK    2  A    between atoms: C_3  and  C_4 
REMARK       I    between atoms: C_4  and  N_5 
REMARK    3  A    between atoms: N_5  and  C_6 
REMARK    4  A    between atoms: C_6  and  N_7 
REMARK    5  A    between atoms: C_6  and  C_21 
REMARK    6  A    between atoms: N_7  and  C_8 
REMARK    7  A    between atoms: C_8  and  N_9 
REMARK    8  A    between atoms: N_9  and  N_10 
REMARK       I    between atoms: N_10  and  C_11 
REMARK    9  A    between atoms: C_11  and  C_12 
REMARK   10  A    between atoms: C_13  and  O_14 
ROOT
HETATM    1  C   UNL     1      43.601 -14.834   6.704  1.00  0.00     0.188 C 
HETATM    2  S   UNL     1      45.031 -13.998   6.878  1.00  0.00    -0.039 SA
ENDROOT
BRANCH   1   3
HETATM    3  N   UNL     1      42.397 -14.309   6.336  1.00  0.00    -0.341 N 
HETATM    4  H   UNL     1      41.650 -14.394   7.014  1.00  0.00     0.164 HD
BRANCH   3   5
HETATM    5  C   UNL     1      42.077 -13.484   5.176  1.00  0.00     0.241 C 
BRANCH   5   6
HETATM    6  N   UNL     1      41.849 -14.357   4.029  1.00  0.00    -0.336 N 
HETATM    7  C   UNL     1      42.446 -14.201   2.803  1.00  0.00     0.219 C 
HETATM    8  O   UNL     1      43.131 -13.229   2.516  1.00  0.00    -0.274 OA
HETATM    9  H   UNL     1      41.279 -15.177   4.188  1.00  0.00     0.164 HD
BRANCH   7  10
HETATM   10  C   UNL     1      42.131 -15.346   1.853  1.00  0.00     0.102 C 
BRANCH  10  11
HETATM   11  C   UNL     1      40.641 -15.547   1.591  1.00  0.00     0.005 C 
HETATM   12  C   UNL     1      40.154 -16.936   1.976  1.00  0.00     0.005 C 
ENDBRANCH  10  11
ENDBRANCH   7  10
ENDBRANCH   5   6
BRANCH   5  13
HETATM   13  C   UNL     1      40.977 -12.370   5.465  1.00  0.00     0.226 C 
HETATM   14 CL   UNL     1      41.574 -11.175   6.676  1.00  0.00    -0.080 Cl
HETATM   15 CL   UNL     1      40.454 -11.483   3.991  1.00  0.00    -0.080 Cl
HETATM   16 CL   UNL     1      39.496 -13.137   6.160  1.00  0.00    -0.080 Cl
ENDBRANCH   5  13
ENDBRANCH   3   5
ENDBRANCH   1   3
BRANCH   1  17
HETATM   17  N   UNL     1      43.590 -16.192   6.921  1.00  0.00    -0.274 N 
HETATM   18  H   UNL     1      42.799 -16.539   7.467  1.00  0.00     0.189 HD
BRANCH  17  19
HETATM   19  N   UNL     1      44.065 -17.075   5.928  1.00  0.00    -0.264 N 
HETATM   20  C   UNL     1      43.115 -17.600   5.065  1.00  0.00     0.272 C 
HETATM   21  O   UNL     1      41.938 -17.239   5.070  1.00  0.00    -0.266 OA
HETATM   22  H   UNL     1      44.891 -17.616   6.174  1.00  0.00     0.190 HD
BRANCH  20  23
HETATM   23  C   UNL     1      43.542 -18.700   4.159  1.00  0.00     0.066 A 
HETATM   24  C   UNL     1      44.281 -19.774   4.682  1.00  0.00     0.081 A 
HETATM   25  C   UNL     1      44.722 -20.804   3.853  1.00  0.00     0.037 A 
HETATM   26  C   UNL     1      44.414 -20.783   2.494  1.00  0.00     0.003 A 
HETATM   27  C   UNL     1      43.656 -19.737   1.968  1.00  0.00     0.001 A 
HETATM   28  C   UNL     1      43.216 -18.699   2.795  1.00  0.00     0.020 A 
BRANCH  24  29
HETATM   29  O   UNL     1      44.616 -19.885   6.006  1.00  0.00    -0.360 OA
HETATM   30  H   UNL     1      43.840 -19.605   6.541  1.00  0.00     0.217 HD
ENDBRANCH  24  29
ENDBRANCH  20  23
ENDBRANCH  17  19
ENDBRANCH   1  17
TORSDOF 10
ENDMDL
MODEL 9
REMARK VINA RESULT:      -6.5      3.598      6.690
REMARK  10 active torsions:
REMARK  status: ('A' for Active; 'I' for Inactive)
REMARK    1  A    between atoms: C_2  and  C_3 
REMARK    2  A    between atoms: C_3  and  C_4 
REMARK       I    between atoms: C_4  and  N_5 
REMARK    3  A    between atoms: N_5  and  C_6 
REMARK    4  A    between atoms: C_6  and  N_7 
REMARK    5  A    between atoms: C_6  and  C_21 
REMARK    6  A    between atoms: N_7  and  C_8 
REMARK    7  A    between atoms: C_8  and  N_9 
REMARK    8  A    between atoms: N_9  and  N_10 
REMARK       I    between atoms: N_10  and  C_11 
REMARK    9  A    between atoms: C_11  and  C_12 
REMARK   10  A    between atoms: C_13  and  O_14 
ROOT
HETATM    1  C   UNL     1      40.403 -15.614   2.767  1.00  0.00     0.188 C 
HETATM    2  S   UNL     1      39.869 -14.290   3.626  1.00  0.00    -0.039 SA
ENDROOT
BRANCH   1   3
HETATM    3  N   UNL     1      41.479 -16.395   3.071  1.00  0.00    -0.341 N 
HETATM    4  H   UNL     1      42.353 -16.136   2.628  1.00  0.00     0.164 HD
BRANCH   3   5
HETATM    5  C   UNL     1      41.593 -17.442   4.079  1.00  0.00     0.241 C 
BRANCH   5   6
HETATM    6  N   UNL     1      42.427 -18.515   3.548  1.00  0.00    -0.336 N 
HETATM    7  C   UNL     1      43.634 -18.325   2.921  1.00  0.00     0.219 C 
HETATM    8  O   UNL     1      44.064 -17.217   2.631  1.00  0.00    -0.274 OA
HETATM    9  H   UNL     1      42.126 -19.462   3.738  1.00  0.00     0.164 HD
BRANCH   7  10
HETATM   10  C   UNL     1      44.341 -19.634   2.610  1.00  0.00     0.102 C 
BRANCH  10  11
HETATM   11  C   UNL     1      43.480 -20.643   1.855  1.00  0.00     0.005 C 
HETATM   12  C   UNL     1      44.206 -21.951   1.577  1.00  0.00     0.005 C 
ENDBRANCH  10  11
ENDBRANCH   7  10
ENDBRANCH   5   6
BRANCH   5  13
HETATM   13  C   UNL     1      41.954 -16.898   5.532  1.00  0.00     0.226 C 
HETATM   14 CL   UNL     1      42.887 -18.127   6.465  1.00  0.00    -0.080 Cl
HETATM   15 CL   UNL     1      42.888 -15.362   5.509  1.00  0.00    -0.080 Cl
HETATM   16 CL   UNL     1      40.437 -16.568   6.456  1.00  0.00    -0.080 Cl
ENDBRANCH   5  13
ENDBRANCH   3   5
ENDBRANCH   1   3
BRANCH   1  17
HETATM   17  N   UNL     1      39.708 -16.008   1.647  1.00  0.00    -0.274 N 
HETATM   18  H   UNL     1      38.809 -16.458   1.830  1.00  0.00     0.189 HD
BRANCH  17  19
HETATM   19  N   UNL     1      39.765 -15.238   0.467  1.00  0.00    -0.264 N 
HETATM   20  C   UNL     1      40.921 -15.357  -0.290  1.00  0.00     0.272 C 
HETATM   21  O   UNL     1      41.807 -16.171  -0.032  1.00  0.00    -0.266 OA
HETATM   22  H   UNL     1      39.251 -14.361   0.484  1.00  0.00     0.190 HD
BRANCH  20  23
HETATM   23  C   UNL     1      41.110 -14.398  -1.411  1.00  0.00     0.066 A 
HETATM   24  C   UNL     1      40.247 -14.453  -2.518  1.00  0.00     0.081 A 
HETATM   25  C   UNL     1      40.417 -13.588  -3.597  1.00  0.00     0.037 A 
HETATM   26  C   UNL     1      41.441 -12.643  -3.576  1.00  0.00     0.003 A 
HETATM   27  C   UNL     1      42.287 -12.557  -2.471  1.00  0.00     0.001 A 
HETATM   28  C   UNL     1      42.123 -13.427  -1.388  1.00  0.00     0.020 A 
BRANCH  24  29
HETATM   29  O   UNL     1      39.206 -15.339  -2.618  1.00  0.00    -0.360 OA
HETATM   30  H   UNL     1      39.428 -15.993  -3.318  1.00  0.00     0.217 HD
ENDBRANCH  24  29
ENDBRANCH  20  23
ENDBRANCH  17  19
ENDBRANCH   1  17
TORSDOF 10
ENDMDL
MODEL 10
REMARK VINA RESULT:      -6.3      4.695      5.694
REMARK  10 active torsions:
REMARK  status: ('A' for Active; 'I' for Inactive)
REMARK    1  A    between atoms: C_2  and  C_3 
REMARK    2  A    between atoms: C_3  and  C_4 
REMARK       I    between atoms: C_4  and  N_5 
REMARK    3  A    between atoms: N_5  and  C_6 
REMARK    4  A    between atoms: C_6  and  N_7 
REMARK    5  A    between atoms: C_6  and  C_21 
REMARK    6  A    between atoms: N_7  and  C_8 
REMARK    7  A    between atoms: C_8  and  N_9 
REMARK    8  A    between atoms: N_9  and  N_10 
REMARK       I    between atoms: N_10  and  C_11 
REMARK    9  A    between atoms: C_11  and  C_12 
REMARK   10  A    between atoms: C_13  and  O_14 
ROOT
HETATM    1  C   UNL     1      42.468 -13.539   5.785  1.00  0.00     0.188 C 
HETATM    2  S   UNL     1      41.382 -12.307   5.508  1.00  0.00    -0.039 SA
ENDROOT
BRANCH   1   3
HETATM    3  N   UNL     1      42.487 -14.755   5.166  1.00  0.00    -0.341 N 
HETATM    4  H   UNL     1      41.962 -15.492   5.622  1.00  0.00     0.164 HD
BRANCH   3   5
HETATM    5  C   UNL     1      43.007 -15.102   3.848  1.00  0.00     0.241 C 
BRANCH   5   6
HETATM    6  N   UNL     1      43.521 -16.467   3.893  1.00  0.00    -0.336 N 
HETATM    7  C   UNL     1      42.790 -17.561   4.286  1.00  0.00     0.219 C 
HETATM    8  O   UNL     1      41.668 -17.472   4.766  1.00  0.00    -0.274 OA
HETATM    9  H   UNL     1      44.451 -16.616   3.524  1.00  0.00     0.164 HD
BRANCH   7  10
HETATM   10  C   UNL     1      43.542 -18.866   4.087  1.00  0.00     0.102 C 
BRANCH  10  11
HETATM   11  C   UNL     1      43.806 -19.217   2.625  1.00  0.00     0.005 C 
HETATM   12  C   UNL     1      44.170 -20.680   2.423  1.00  0.00     0.005 C 
ENDBRANCH  10  11
ENDBRANCH   7  10
ENDBRANCH   5   6
BRANCH   5  13
HETATM   13  C   UNL     1      42.022 -14.739   2.652  1.00  0.00     0.226 C 
HETATM   14 CL   UNL     1      42.305 -15.819   1.236  1.00  0.00    -0.080 Cl
HETATM   15 CL   UNL     1      40.284 -14.829   3.105  1.00  0.00    -0.080 Cl
HETATM   16 CL   UNL     1      42.325 -13.046   2.099  1.00  0.00    -0.080 Cl
ENDBRANCH   5  13
ENDBRANCH   3   5
ENDBRANCH   1   3
BRANCH   1  17
HETATM   17  N   UNL     1      43.475 -13.349   6.702  1.00  0.00    -0.274 N 
HETATM   18  H   UNL     1      44.423 -13.429   6.329  1.00  0.00     0.189 HD
BRANCH  17  19
HETATM   19  N   UNL     1      43.318 -12.415   7.746  1.00  0.00    -0.264 N 
HETATM   20  C   UNL     1      44.207 -12.521   8.806  1.00  0.00     0.272 C 
HETATM   21  O   UNL     1      45.160 -13.300   8.802  1.00  0.00    -0.266 OA
HETATM   22  H   UNL     1      42.371 -12.077   7.902  1.00  0.00     0.190 HD
BRANCH  20  23
HETATM   23  C   UNL     1      43.931 -11.706  10.019  1.00  0.00     0.066 A 
HETATM   24  C   UNL     1      43.921 -12.327  11.279  1.00  0.00     0.081 A 
HETATM   25  C   UNL     1      43.635 -11.597  12.431  1.00  0.00     0.037 A 
HETATM   26  C   UNL     1      43.375 -10.231  12.341  1.00  0.00     0.003 A 
HETATM   27  C   UNL     1      43.411  -9.595  11.100  1.00  0.00     0.001 A 
HETATM   28  C   UNL     1      43.691 -10.326   9.941  1.00  0.00     0.020 A 
BRANCH  24  29
HETATM   29  O   UNL     1      44.180 -13.660  11.463  1.00  0.00    -0.360 OA
HETATM   30  H   UNL     1      44.392 -13.802  12.413  1.00  0.00     0.217 HD
ENDBRANCH  24  29
ENDBRANCH  20  23
ENDBRANCH  17  19
ENDBRANCH   1  17
TORSDOF 10
ENDMDL
