MODEL 1
REMARK VINA RESULT:      -7.7      0.000      0.000
REMARK  6 active torsions:
REMARK  status: ('A' for Active; 'I' for Inactive)
REMARK    1  A    between atoms: N_2  and  C_4 
REMARK    2  A    between atoms: N_2  and  C_14 
REMARK    3  A    between atoms: C_5  and  O_6 
REMARK    4  A    between atoms: C_14  and  C_15 
REMARK    5  A    between atoms: C_15  and  O_16 
REMARK    6  A    between atoms: C_15  and  C_17 
ROOT
HETATM    1  C   UNL     1      43.389 -14.789   3.094  1.00  0.00     0.270 C 
HETATM    2  N   UNL     1      42.702 -15.755   2.166  1.00  0.00    -0.065 N 
HETATM    3  H   UNL     1      43.273 -15.860   1.309  1.00  0.00     0.280 HD
ENDROOT
BRANCH   2   4
HETATM    4  C   UNL     1      42.600 -17.193   2.702  1.00  0.00     0.225 C 
HETATM    5  C   UNL     1      42.842 -18.215   1.539  1.00  0.00     0.183 C 
HETATM    6  C   UNL     1      43.466 -19.367   2.254  1.00  0.00    -0.021 A 
HETATM    7  C   UNL     1      43.944 -18.974   3.508  1.00  0.00    -0.047 A 
HETATM    8  C   UNL     1      43.619 -20.671   1.807  1.00  0.00     0.010 A 
HETATM    9  C   UNL     1      43.708 -17.515   3.740  1.00  0.00     0.075 C 
HETATM   10  C   UNL     1      44.595 -19.869   4.338  1.00  0.00     0.008 A 
HETATM   11  C   UNL     1      44.746 -21.186   3.899  1.00  0.00     0.001 A 
HETATM   12  C   UNL     1      44.261 -21.584   2.644  1.00  0.00     0.001 A 
BRANCH   5  13
HETATM   13  O   UNL     1      43.751 -17.634   0.596  1.00  0.00    -0.389 OA
HETATM   14  H   UNL     1      43.780 -18.233  -0.178  1.00  0.00     0.210 HD
ENDBRANCH   5  13
ENDBRANCH   2   4
BRANCH   2  15
HETATM   15  C   UNL     1      41.332 -15.224   1.700  1.00  0.00     0.271 C 
BRANCH  15  16
HETATM   16  C   UNL     1      40.191 -15.567   2.691  1.00  0.00     0.177 C 
BRANCH  16  17
HETATM   17  O   UNL     1      39.006 -15.923   1.979  1.00  0.00    -0.389 OA
HETATM   18  H   UNL     1      39.105 -16.852   1.691  1.00  0.00     0.210 HD
ENDBRANCH  16  17
BRANCH  16  19
HETATM   19  C   UNL     1      39.896 -14.401   3.610  1.00  0.00    -0.028 A 
HETATM   20  C   UNL     1      40.012 -14.554   5.002  1.00  0.00     0.013 A 
HETATM   21  C   UNL     1      39.754 -13.478   5.855  1.00  0.00     0.043 A 
HETATM   22  C   UNL     1      39.381 -12.252   5.322  1.00  0.00     0.116 A 
HETATM   23  F   UNL     1      39.135 -11.223   6.142  1.00  0.00    -0.206 F 
HETATM   24  C   UNL     1      39.260 -12.077   3.949  1.00  0.00     0.043 A 
HETATM   25  C   UNL     1      39.517 -13.148   3.092  1.00  0.00     0.013 A 
ENDBRANCH  16  19
ENDBRANCH  15  16
ENDBRANCH   2  15
TORSDOF 6
ENDMDL
MODEL 2
REMARK VINA RESULT:      -7.6      2.590      3.367
REMARK  6 active torsions:
REMARK  status: ('A' for Active; 'I' for Inactive)
REMARK    1  A    between atoms: N_2  and  C_4 
REMARK    2  A    between atoms: N_2  and  C_14 
REMARK    3  A    between atoms: C_5  and  O_6 
REMARK    4  A    between atoms: C_14  and  C_15 
REMARK    5  A    between atoms: C_15  and  O_16 
REMARK    6  A    between atoms: C_15  and  C_17 
ROOT
HETATM    1  C   UNL     1      44.414 -16.804   6.524  1.00  0.00     0.270 C 
HETATM    2  N   UNL     1      43.192 -16.936   5.655  1.00  0.00    -0.065 N 
HETATM    3  H   UNL     1      43.313 -16.346   4.813  1.00  0.00     0.280 HD
ENDROOT
BRANCH   2   4
HETATM    4  C   UNL     1      42.972 -18.342   5.072  1.00  0.00     0.225 C 
HETATM    5  C   UNL     1      42.916 -18.270   3.508  1.00  0.00     0.183 C 
HETATM    6  C   UNL     1      43.471 -19.597   3.109  1.00  0.00    -0.021 A 
HETATM    7  C   UNL     1      44.162 -20.186   4.171  1.00  0.00    -0.047 A 
HETATM    8  C   UNL     1      43.386 -20.224   1.875  1.00  0.00     0.010 A 
HETATM    9  C   UNL     1      44.156 -19.298   5.375  1.00  0.00     0.075 C 
HETATM   10  C   UNL     1      44.793 -21.409   4.024  1.00  0.00     0.008 A 
HETATM   11  C   UNL     1      44.707 -22.051   2.787  1.00  0.00     0.001 A 
HETATM   12  C   UNL     1      44.008 -21.464   1.721  1.00  0.00     0.001 A 
BRANCH   5  13
HETATM   13  O   UNL     1      43.759 -17.199   3.066  1.00  0.00    -0.389 OA
HETATM   14  H   UNL     1      43.353 -16.833   2.253  1.00  0.00     0.210 HD
ENDBRANCH   5  13
ENDBRANCH   2   4
BRANCH   2  15
HETATM   15  C   UNL     1      41.928 -16.411   6.362  1.00  0.00     0.271 C 
BRANCH  15  16
HETATM   16  C   UNL     1      41.593 -14.947   5.978  1.00  0.00     0.177 C 
BRANCH  16  17
HETATM   17  O   UNL     1      40.295 -14.594   6.457  1.00  0.00    -0.389 OA
HETATM   18  H   UNL     1      40.034 -15.263   7.120  1.00  0.00     0.210 HD
ENDBRANCH  16  17
BRANCH  16  19
HETATM   19  C   UNL     1      41.648 -14.749   4.478  1.00  0.00    -0.028 A 
HETATM   20  C   UNL     1      42.656 -13.952   3.909  1.00  0.00     0.013 A 
HETATM   21  C   UNL     1      42.720 -13.775   2.525  1.00  0.00     0.043 A 
HETATM   22  C   UNL     1      41.783 -14.393   1.709  1.00  0.00     0.116 A 
HETATM   23  F   UNL     1      41.849 -14.223   0.383  1.00  0.00    -0.206 F 
HETATM   24  C   UNL     1      40.778 -15.186   2.248  1.00  0.00     0.043 A 
HETATM   25  C   UNL     1      40.709 -15.367   3.631  1.00  0.00     0.013 A 
ENDBRANCH  16  19
ENDBRANCH  15  16
ENDBRANCH   2  15
TORSDOF 6
ENDMDL
MODEL 3
REMARK VINA RESULT:      -7.6      1.719      2.219
REMARK  6 active torsions:
REMARK  status: ('A' for Active; 'I' for Inactive)
REMARK    1  A    between atoms: N_2  and  C_4 
REMARK    2  A    between atoms: N_2  and  C_14 
REMARK    3  A    between atoms: C_5  and  O_6 
REMARK    4  A    between atoms: C_14  and  C_15 
REMARK    5  A    between atoms: C_15  and  O_16 
REMARK    6  A    between atoms: C_15  and  C_17 
ROOT
HETATM    1  C   UNL     1      42.964 -14.734   3.202  1.00  0.00     0.270 C 
HETATM    2  N   UNL     1      42.626 -15.771   2.164  1.00  0.00    -0.065 N 
HETATM    3  H   UNL     1      43.391 -15.811   1.469  1.00  0.00     0.280 HD
ENDROOT
BRANCH   2   4
HETATM    4  C   UNL     1      42.557 -17.211   2.699  1.00  0.00     0.225 C 
HETATM    5  C   UNL     1      42.852 -18.225   1.542  1.00  0.00     0.183 C 
HETATM    6  C   UNL     1      43.497 -19.358   2.270  1.00  0.00    -0.021 A 
HETATM    7  C   UNL     1      43.939 -18.951   3.532  1.00  0.00    -0.047 A 
HETATM    8  C   UNL     1      43.697 -20.657   1.827  1.00  0.00     0.010 A 
HETATM    9  C   UNL     1      43.654 -17.499   3.758  1.00  0.00     0.075 C 
HETATM   10  C   UNL     1      44.600 -19.826   4.375  1.00  0.00     0.008 A 
HETATM   11  C   UNL     1      44.800 -21.137   3.940  1.00  0.00     0.001 A 
HETATM   12  C   UNL     1      44.351 -21.550   2.676  1.00  0.00     0.001 A 
BRANCH   5  13
HETATM   13  O   UNL     1      43.761 -17.617   0.616  1.00  0.00    -0.389 OA
HETATM   14  H   UNL     1      43.672 -18.101  -0.230  1.00  0.00     0.210 HD
ENDBRANCH   5  13
ENDBRANCH   2   4
BRANCH   2  15
HETATM   15  C   UNL     1      41.355 -15.397   1.376  1.00  0.00     0.271 C 
BRANCH  15  16
HETATM   16  C   UNL     1      40.085 -15.385   2.263  1.00  0.00     0.177 C 
BRANCH  16  17
HETATM   17  O   UNL     1      39.332 -16.583   2.067  1.00  0.00    -0.389 OA
HETATM   18  H   UNL     1      38.713 -16.423   1.327  1.00  0.00     0.210 HD
ENDBRANCH  16  17
BRANCH  16  19
HETATM   19  C   UNL     1      39.214 -14.187   1.956  1.00  0.00    -0.028 A 
HETATM   20  C   UNL     1      38.146 -14.305   1.049  1.00  0.00     0.013 A 
HETATM   21  C   UNL     1      37.331 -13.206   0.771  1.00  0.00     0.043 A 
HETATM   22  C   UNL     1      37.576 -11.991   1.396  1.00  0.00     0.116 A 
HETATM   23  F   UNL     1      36.792 -10.940   1.128  1.00  0.00    -0.206 F 
HETATM   24  C   UNL     1      38.624 -11.850   2.296  1.00  0.00     0.043 A 
HETATM   25  C   UNL     1      39.443 -12.945   2.578  1.00  0.00     0.013 A 
ENDBRANCH  16  19
ENDBRANCH  15  16
ENDBRANCH   2  15
TORSDOF 6
ENDMDL
MODEL 4
REMARK VINA RESULT:      -7.5      2.823      3.712
REMARK  6 active torsions:
REMARK  status: ('A' for Active; 'I' for Inactive)
REMARK    1  A    between atoms: N_2  and  C_4 
REMARK    2  A    between atoms: N_2  and  C_14 
REMARK    3  A    between atoms: C_5  and  O_6 
REMARK    4  A    between atoms: C_14  and  C_15 
REMARK    5  A    between atoms: C_15  and  O_16 
REMARK    6  A    between atoms: C_15  and  C_17 
ROOT
HETATM    1  C   UNL     1      43.373 -14.846   2.964  1.00  0.00     0.270 C 
HETATM    2  N   UNL     1      42.467 -15.766   2.189  1.00  0.00    -0.065 N 
HETATM    3  H   UNL     1      42.833 -15.863   1.226  1.00  0.00     0.280 HD
ENDROOT
BRANCH   2   4
HETATM    4  C   UNL     1      42.437 -17.215   2.705  1.00  0.00     0.225 C 
HETATM    5  C   UNL     1      42.754 -18.205   1.533  1.00  0.00     0.183 C 
HETATM    6  C   UNL     1      43.430 -19.331   2.243  1.00  0.00    -0.021 A 
HETATM    7  C   UNL     1      43.865 -18.930   3.510  1.00  0.00    -0.047 A 
HETATM    8  C   UNL     1      43.662 -20.618   1.782  1.00  0.00     0.010 A 
HETATM    9  C   UNL     1      43.544 -17.489   3.757  1.00  0.00     0.075 C 
HETATM   10  C   UNL     1      44.551 -19.799   4.339  1.00  0.00     0.008 A 
HETATM   11  C   UNL     1      44.783 -21.099   3.885  1.00  0.00     0.001 A 
HETATM   12  C   UNL     1      44.341 -21.506   2.617  1.00  0.00     0.001 A 
BRANCH   5  13
HETATM   13  O   UNL     1      43.644 -17.562   0.613  1.00  0.00    -0.389 OA
HETATM   14  H   UNL     1      44.461 -18.101   0.583  1.00  0.00     0.210 HD
ENDBRANCH   5  13
ENDBRANCH   2   4
BRANCH   2  15
HETATM   15  C   UNL     1      41.047 -15.184   2.047  1.00  0.00     0.271 C 
BRANCH  15  16
HETATM   16  C   UNL     1      40.627 -14.990   0.569  1.00  0.00     0.177 C 
BRANCH  16  17
HETATM   17  O   UNL     1      40.896 -16.174  -0.183  1.00  0.00    -0.389 OA
HETATM   18  H   UNL     1      40.369 -16.126  -1.005  1.00  0.00     0.210 HD
ENDBRANCH  16  17
BRANCH  16  19
HETATM   19  C   UNL     1      41.354 -13.819  -0.058  1.00  0.00    -0.028 A 
HETATM   20  C   UNL     1      41.551 -12.638   0.677  1.00  0.00     0.013 A 
HETATM   21  C   UNL     1      42.232 -11.558   0.110  1.00  0.00     0.043 A 
HETATM   22  C   UNL     1      42.718 -11.656  -1.187  1.00  0.00     0.116 A 
HETATM   23  F   UNL     1      43.371 -10.620  -1.726  1.00  0.00    -0.206 F 
HETATM   24  C   UNL     1      42.535 -12.813  -1.932  1.00  0.00     0.043 A 
HETATM   25  C   UNL     1      41.855 -13.896  -1.370  1.00  0.00     0.013 A 
ENDBRANCH  16  19
ENDBRANCH  15  16
ENDBRANCH   2  15
TORSDOF 6
ENDMDL
MODEL 5
REMARK VINA RESULT:      -7.5      3.582      4.745
REMARK  6 active torsions:
REMARK  status: ('A' for Active; 'I' for Inactive)
REMARK    1  A    between atoms: N_2  and  C_4 
REMARK    2  A    between atoms: N_2  and  C_14 
REMARK    3  A    between atoms: C_5  and  O_6 
REMARK    4  A    between atoms: C_14  and  C_15 
REMARK    5  A    between atoms: C_15  and  O_16 
REMARK    6  A    between atoms: C_15  and  C_17 
ROOT
HETATM    1  C   UNL     1      42.615 -14.531   2.852  1.00  0.00     0.270 C 
HETATM    2  N   UNL     1      42.167 -15.616   1.909  1.00  0.00    -0.065 N 
HETATM    3  H   UNL     1      42.833 -15.670   1.120  1.00  0.00     0.280 HD
ENDROOT
BRANCH   2   4
HETATM    4  C   UNL     1      42.204 -17.034   2.503  1.00  0.00     0.225 C 
HETATM    5  C   UNL     1      42.638 -18.062   1.404  1.00  0.00     0.183 C 
HETATM    6  C   UNL     1      43.350 -19.102   2.205  1.00  0.00    -0.021 A 
HETATM    7  C   UNL     1      43.699 -18.606   3.465  1.00  0.00    -0.047 A 
HETATM    8  C   UNL     1      43.684 -20.394   1.827  1.00  0.00     0.010 A 
HETATM    9  C   UNL     1      43.276 -17.179   3.617  1.00  0.00     0.075 C 
HETATM   10  C   UNL     1      44.398 -19.383   4.370  1.00  0.00     0.008 A 
HETATM   11  C   UNL     1      44.733 -20.687   4.001  1.00  0.00     0.001 A 
HETATM   12  C   UNL     1      44.378 -21.189   2.740  1.00  0.00     0.001 A 
BRANCH   5  13
HETATM   13  O   UNL     1      43.528 -17.411   0.489  1.00  0.00    -0.389 OA
HETATM   14  H   UNL     1      44.239 -18.051   0.279  1.00  0.00     0.210 HD
ENDBRANCH   5  13
ENDBRANCH   2   4
BRANCH   2  15
HETATM   15  C   UNL     1      40.794 -15.298   1.285  1.00  0.00     0.271 C 
BRANCH  15  16
HETATM   16  C   UNL     1      40.864 -14.157   0.239  1.00  0.00     0.177 C 
BRANCH  16  17
HETATM   17  O   UNL     1      40.135 -13.018   0.699  1.00  0.00    -0.389 OA
HETATM   18  H   UNL     1      39.995 -13.128   1.660  1.00  0.00     0.210 HD
ENDBRANCH  16  17
BRANCH  16  19
HETATM   19  C   UNL     1      40.312 -14.604  -1.097  1.00  0.00    -0.028 A 
HETATM   20  C   UNL     1      39.108 -14.060  -1.580  1.00  0.00     0.013 A 
HETATM   21  C   UNL     1      38.600 -14.459  -2.817  1.00  0.00     0.043 A 
HETATM   22  C   UNL     1      39.289 -15.396  -3.576  1.00  0.00     0.116 A 
HETATM   23  F   UNL     1      38.799 -15.774  -4.762  1.00  0.00    -0.206 F 
HETATM   24  C   UNL     1      40.480 -15.946  -3.120  1.00  0.00     0.043 A 
HETATM   25  C   UNL     1      40.994 -15.552  -1.883  1.00  0.00     0.013 A 
ENDBRANCH  16  19
ENDBRANCH  15  16
ENDBRANCH   2  15
TORSDOF 6
ENDMDL
MODEL 6
REMARK VINA RESULT:      -7.4      3.002      3.856
REMARK  6 active torsions:
REMARK  status: ('A' for Active; 'I' for Inactive)
REMARK    1  A    between atoms: N_2  and  C_4 
REMARK    2  A    between atoms: N_2  and  C_14 
REMARK    3  A    between atoms: C_5  and  O_6 
REMARK    4  A    between atoms: C_14  and  C_15 
REMARK    5  A    between atoms: C_15  and  O_16 
REMARK    6  A    between atoms: C_15  and  C_17 
ROOT
HETATM    1  C   UNL     1      41.619 -17.445   1.488  1.00  0.00     0.270 C 
HETATM    2  N   UNL     1      42.668 -17.158   2.529  1.00  0.00    -0.065 N 
HETATM    3  H   UNL     1      42.220 -17.150   3.462  1.00  0.00     0.280 HD
ENDROOT
BRANCH   2   4
HETATM    4  C   UNL     1      43.748 -18.244   2.664  1.00  0.00     0.225 C 
HETATM    5  C   UNL     1      43.766 -18.801   4.128  1.00  0.00     0.183 C 
HETATM    6  C   UNL     1      44.200 -20.215   3.924  1.00  0.00    -0.021 A 
HETATM    7  C   UNL     1      44.035 -20.597   2.590  1.00  0.00    -0.047 A 
HETATM    8  C   UNL     1      44.686 -21.105   4.869  1.00  0.00     0.010 A 
HETATM    9  C   UNL     1      43.452 -19.483   1.779  1.00  0.00     0.075 C 
HETATM   10  C   UNL     1      44.341 -21.880   2.171  1.00  0.00     0.008 A 
HETATM   11  C   UNL     1      44.837 -22.782   3.114  1.00  0.00     0.001 A 
HETATM   12  C   UNL     1      45.009 -22.397   4.452  1.00  0.00     0.001 A 
BRANCH   5  13
HETATM   13  O   UNL     1      42.439 -18.736   4.662  1.00  0.00    -0.389 OA
HETATM   14  H   UNL     1      42.325 -17.838   5.035  1.00  0.00     0.210 HD
ENDBRANCH   5  13
ENDBRANCH   2   4
BRANCH   2  15
HETATM   15  C   UNL     1      43.288 -15.759   2.344  1.00  0.00     0.271 C 
BRANCH  15  16
HETATM   16  C   UNL     1      42.804 -14.746   3.412  1.00  0.00     0.177 C 
BRANCH  16  17
HETATM   17  O   UNL     1      43.583 -13.551   3.350  1.00  0.00    -0.389 OA
HETATM   18  H   UNL     1      43.783 -13.379   2.409  1.00  0.00     0.210 HD
ENDBRANCH  16  17
BRANCH  16  19
HETATM   19  C   UNL     1      42.892 -15.333   4.804  1.00  0.00    -0.028 A 
HETATM   20  C   UNL     1      41.725 -15.751   5.467  1.00  0.00     0.013 A 
HETATM   21  C   UNL     1      41.800 -16.306   6.747  1.00  0.00     0.043 A 
HETATM   22  C   UNL     1      43.036 -16.447   7.364  1.00  0.00     0.116 A 
HETATM   23  F   UNL     1      43.104 -16.980   8.590  1.00  0.00    -0.206 F 
HETATM   24  C   UNL     1      44.202 -16.041   6.729  1.00  0.00     0.043 A 
HETATM   25  C   UNL     1      44.133 -15.486   5.449  1.00  0.00     0.013 A 
ENDBRANCH  16  19
ENDBRANCH  15  16
ENDBRANCH   2  15
TORSDOF 6
ENDMDL
MODEL 7
REMARK VINA RESULT:      -7.3      2.277      3.220
REMARK  6 active torsions:
REMARK  status: ('A' for Active; 'I' for Inactive)
REMARK    1  A    between atoms: N_2  and  C_4 
REMARK    2  A    between atoms: N_2  and  C_14 
REMARK    3  A    between atoms: C_5  and  O_6 
REMARK    4  A    between atoms: C_14  and  C_15 
REMARK    5  A    between atoms: C_15  and  O_16 
REMARK    6  A    between atoms: C_15  and  C_17 
ROOT
HETATM    1  C   UNL     1      40.345 -16.667   1.824  1.00  0.00     0.270 C 
HETATM    2  N   UNL     1      41.687 -16.087   2.186  1.00  0.00    -0.065 N 
HETATM    3  H   UNL     1      41.670 -15.798   3.179  1.00  0.00     0.280 HD
ENDROOT
BRANCH   2   4
HETATM    4  C   UNL     1      42.852 -17.090   2.128  1.00  0.00     0.225 C 
HETATM    5  C   UNL     1      43.328 -17.440   3.579  1.00  0.00     0.183 C 
HETATM    6  C   UNL     1      43.808 -18.845   3.425  1.00  0.00    -0.021 A 
HETATM    7  C   UNL     1      43.310 -19.414   2.249  1.00  0.00    -0.047 A 
HETATM    8  C   UNL     1      44.614 -19.573   4.286  1.00  0.00     0.010 A 
HETATM    9  C   UNL     1      42.428 -18.452   1.518  1.00  0.00     0.075 C 
HETATM   10  C   UNL     1      43.596 -20.725   1.913  1.00  0.00     0.008 A 
HETATM   11  C   UNL     1      44.412 -21.464   2.771  1.00  0.00     0.001 A 
HETATM   12  C   UNL     1      44.919 -20.892   3.948  1.00  0.00     0.001 A 
BRANCH   5  13
HETATM   13  O   UNL     1      42.203 -17.369   4.463  1.00  0.00    -0.389 OA
HETATM   14  H   UNL     1      41.409 -17.240   3.904  1.00  0.00     0.210 HD
ENDBRANCH   5  13
ENDBRANCH   2   4
BRANCH   2  15
HETATM   15  C   UNL     1      41.995 -14.812   1.378  1.00  0.00     0.271 C 
BRANCH  15  16
HETATM   16  C   UNL     1      41.905 -13.525   2.237  1.00  0.00     0.177 C 
BRANCH  16  17
HETATM   17  O   UNL     1      42.629 -12.463   1.616  1.00  0.00    -0.389 OA
HETATM   18  H   UNL     1      42.586 -12.604   0.650  1.00  0.00     0.210 HD
ENDBRANCH  16  17
BRANCH  16  19
HETATM   19  C   UNL     1      42.448 -13.758   3.630  1.00  0.00    -0.028 A 
HETATM   20  C   UNL     1      43.834 -13.851   3.840  1.00  0.00     0.013 A 
HETATM   21  C   UNL     1      44.342 -14.053   5.125  1.00  0.00     0.043 A 
HETATM   22  C   UNL     1      43.472 -14.160   6.201  1.00  0.00     0.116 A 
HETATM   23  F   UNL     1      43.962 -14.353   7.431  1.00  0.00    -0.206 F 
HETATM   24  C   UNL     1      42.098 -14.071   6.018  1.00  0.00     0.043 A 
HETATM   25  C   UNL     1      41.583 -13.869   4.736  1.00  0.00     0.013 A 
ENDBRANCH  16  19
ENDBRANCH  15  16
ENDBRANCH   2  15
TORSDOF 6
ENDMDL
MODEL 8
REMARK VINA RESULT:      -7.3      1.980      2.744
REMARK  6 active torsions:
REMARK  status: ('A' for Active; 'I' for Inactive)
REMARK    1  A    between atoms: N_2  and  C_4 
REMARK    2  A    between atoms: N_2  and  C_14 
REMARK    3  A    between atoms: C_5  and  O_6 
REMARK    4  A    between atoms: C_14  and  C_15 
REMARK    5  A    between atoms: C_15  and  O_16 
REMARK    6  A    between atoms: C_15  and  C_17 
ROOT
HETATM    1  C   UNL     1      41.340 -15.991   2.724  1.00  0.00     0.270 C 
HETATM    2  N   UNL     1      42.421 -16.249   3.739  1.00  0.00    -0.065 N 
HETATM    3  H   UNL     1      41.990 -16.633   4.598  1.00  0.00     0.280 HD
ENDROOT
BRANCH   2   4
HETATM    4  C   UNL     1      43.431 -17.336   3.334  1.00  0.00     0.225 C 
HETATM    5  C   UNL     1      43.774 -18.235   4.570  1.00  0.00     0.183 C 
HETATM    6  C   UNL     1      44.054 -19.556   3.934  1.00  0.00    -0.021 A 
HETATM    7  C   UNL     1      43.542 -19.600   2.634  1.00  0.00    -0.047 A 
HETATM    8  C   UNL     1      44.700 -20.652   4.486  1.00  0.00     0.010 A 
HETATM    9  C   UNL     1      42.848 -18.321   2.286  1.00  0.00     0.075 C 
HETATM   10  C   UNL     1      43.653 -20.741   1.860  1.00  0.00     0.008 A 
HETATM   11  C   UNL     1      44.308 -21.847   2.405  1.00  0.00     0.001 A 
HETATM   12  C   UNL     1      44.828 -21.803   3.707  1.00  0.00     0.001 A 
BRANCH   5  13
HETATM   13  O   UNL     1      42.625 -18.302   5.424  1.00  0.00    -0.389 OA
HETATM   14  H   UNL     1      41.942 -18.814   4.944  1.00  0.00     0.210 HD
ENDBRANCH   5  13
ENDBRANCH   2   4
BRANCH   2  15
HETATM   15  C   UNL     1      43.128 -14.948   4.165  1.00  0.00     0.271 C 
BRANCH  15  16
HETATM   16  C   UNL     1      42.630 -14.417   5.533  1.00  0.00     0.177 C 
BRANCH  16  17
HETATM   17  O   UNL     1      42.179 -15.499   6.349  1.00  0.00    -0.389 OA
HETATM   18  H   UNL     1      42.929 -16.115   6.461  1.00  0.00     0.210 HD
ENDBRANCH  16  17
BRANCH  16  19
HETATM   19  C   UNL     1      41.508 -13.417   5.356  1.00  0.00    -0.028 A 
HETATM   20  C   UNL     1      41.697 -12.281   4.550  1.00  0.00     0.013 A 
HETATM   21  C   UNL     1      40.661 -11.361   4.373  1.00  0.00     0.043 A 
HETATM   22  C   UNL     1      39.438 -11.572   4.995  1.00  0.00     0.116 A 
HETATM   23  F   UNL     1      38.448 -10.688   4.821  1.00  0.00    -0.206 F 
HETATM   24  C   UNL     1      39.228 -12.687   5.796  1.00  0.00     0.043 A 
HETATM   25  C   UNL     1      40.259 -13.611   5.977  1.00  0.00     0.013 A 
ENDBRANCH  16  19
ENDBRANCH  15  16
ENDBRANCH   2  15
TORSDOF 6
ENDMDL
MODEL 9
REMARK VINA RESULT:      -7.2      3.871      7.288
REMARK  6 active torsions:
REMARK  status: ('A' for Active; 'I' for Inactive)
REMARK    1  A    between atoms: N_2  and  C_4 
REMARK    2  A    between atoms: N_2  and  C_14 
REMARK    3  A    between atoms: C_5  and  O_6 
REMARK    4  A    between atoms: C_14  and  C_15 
REMARK    5  A    between atoms: C_15  and  O_16 
REMARK    6  A    between atoms: C_15  and  C_17 
ROOT
HETATM    1  C   UNL     1      41.979 -13.916   3.003  1.00  0.00     0.270 C 
HETATM    2  N   UNL     1      42.118 -15.131   2.125  1.00  0.00    -0.065 N 
HETATM    3  H   UNL     1      41.265 -15.709   2.215  1.00  0.00     0.280 HD
ENDROOT
BRANCH   2   4
HETATM    4  C   UNL     1      42.182 -14.827   0.618  1.00  0.00     0.225 C 
HETATM    5  C   UNL     1      41.561 -16.013  -0.193  1.00  0.00     0.183 C 
HETATM    6  C   UNL     1      40.998 -15.320  -1.390  1.00  0.00    -0.021 A 
HETATM    7  C   UNL     1      40.876 -13.947  -1.156  1.00  0.00    -0.047 A 
HETATM    8  C   UNL     1      40.600 -15.878  -2.594  1.00  0.00     0.010 A 
HETATM    9  C   UNL     1      41.322 -13.595   0.229  1.00  0.00     0.075 C 
HETATM   10  C   UNL     1      40.344 -13.103  -2.114  1.00  0.00     0.008 A 
HETATM   11  C   UNL     1      39.947 -13.655  -3.333  1.00  0.00     0.001 A 
HETATM   12  C   UNL     1      40.075 -15.032  -3.572  1.00  0.00     0.001 A 
BRANCH   5  13
HETATM   13  O   UNL     1      40.526 -16.617   0.592  1.00  0.00    -0.389 OA
HETATM   14  H   UNL     1      40.555 -17.579   0.411  1.00  0.00     0.210 HD
ENDBRANCH   5  13
ENDBRANCH   2   4
BRANCH   2  15
HETATM   15  C   UNL     1      43.288 -16.029   2.573  1.00  0.00     0.271 C 
BRANCH  15  16
HETATM   16  C   UNL     1      42.872 -17.053   3.659  1.00  0.00     0.177 C 
BRANCH  16  17
HETATM   17  O   UNL     1      43.376 -16.655   4.934  1.00  0.00    -0.389 OA
HETATM   18  H   UNL     1      43.859 -17.417   5.310  1.00  0.00     0.210 HD
ENDBRANCH  16  17
BRANCH  16  19
HETATM   19  C   UNL     1      43.381 -18.439   3.326  1.00  0.00    -0.028 A 
HETATM   20  C   UNL     1      43.001 -19.060   2.124  1.00  0.00     0.013 A 
HETATM   21  C   UNL     1      43.476 -20.334   1.805  1.00  0.00     0.043 A 
HETATM   22  C   UNL     1      44.331 -20.989   2.682  1.00  0.00     0.116 A 
HETATM   23  F   UNL     1      44.786 -22.209   2.372  1.00  0.00    -0.206 F 
HETATM   24  C   UNL     1      44.720 -20.395   3.876  1.00  0.00     0.043 A 
HETATM   25  C   UNL     1      44.248 -19.122   4.200  1.00  0.00     0.013 A 
ENDBRANCH  16  19
ENDBRANCH  15  16
ENDBRANCH   2  15
TORSDOF 6
ENDMDL
MODEL 10
REMARK VINA RESULT:      -7.1      3.460      7.594
REMARK  6 active torsions:
REMARK  status: ('A' for Active; 'I' for Inactive)
REMARK    1  A    between atoms: N_2  and  C_4 
REMARK    2  A    between atoms: N_2  and  C_14 
REMARK    3  A    between atoms: C_5  and  O_6 
REMARK    4  A    between atoms: C_14  and  C_15 
REMARK    5  A    between atoms: C_15  and  O_16 
REMARK    6  A    between atoms: C_15  and  C_17 
ROOT
HETATM    1  C   UNL     1      43.573 -14.009   3.572  1.00  0.00     0.270 C 
HETATM    2  N   UNL     1      42.601 -15.073   3.136  1.00  0.00    -0.065 N 
HETATM    3  H   UNL     1      41.950 -15.272   3.916  1.00  0.00     0.280 HD
ENDROOT
BRANCH   2   4
HETATM    4  C   UNL     1      41.663 -14.651   1.992  1.00  0.00     0.225 C 
HETATM    5  C   UNL     1      40.252 -15.302   2.191  1.00  0.00     0.183 C 
HETATM    6  C   UNL     1      39.345 -14.285   1.580  1.00  0.00    -0.021 A 
HETATM    7  C   UNL     1      39.994 -13.054   1.452  1.00  0.00    -0.047 A 
HETATM    8  C   UNL     1      38.024 -14.441   1.190  1.00  0.00     0.010 A 
HETATM    9  C   UNL     1      41.390 -13.123   1.987  1.00  0.00     0.075 C 
HETATM   10  C   UNL     1      39.337 -11.949   0.941  1.00  0.00     0.008 A 
HETATM   11  C   UNL     1      38.009 -12.098   0.538  1.00  0.00     0.001 A 
HETATM   12  C   UNL     1      37.358 -13.335   0.661  1.00  0.00     0.001 A 
BRANCH   5  13
HETATM   13  O   UNL     1      40.003 -15.445   3.594  1.00  0.00    -0.389 OA
HETATM   14  H   UNL     1      40.822 -15.806   3.993  1.00  0.00     0.210 HD
ENDBRANCH   5  13
ENDBRANCH   2   4
BRANCH   2  15
HETATM   15  C   UNL     1      43.312 -16.404   2.826  1.00  0.00     0.271 C 
BRANCH  15  16
HETATM   16  C   UNL     1      43.089 -17.470   3.929  1.00  0.00     0.177 C 
BRANCH  16  17
HETATM   17  O   UNL     1      43.781 -17.102   5.122  1.00  0.00    -0.389 OA
HETATM   18  H   UNL     1      43.879 -16.129   5.116  1.00  0.00     0.210 HD
ENDBRANCH  16  17
BRANCH  16  19
HETATM   19  C   UNL     1      43.561 -18.835   3.474  1.00  0.00    -0.028 A 
HETATM   20  C   UNL     1      44.430 -19.587   4.283  1.00  0.00     0.013 A 
HETATM   21  C   UNL     1      44.858 -20.851   3.875  1.00  0.00     0.043 A 
HETATM   22  C   UNL     1      44.421 -21.368   2.663  1.00  0.00     0.116 A 
HETATM   23  F   UNL     1      44.833 -22.581   2.276  1.00  0.00    -0.206 F 
HETATM   24  C   UNL     1      43.563 -20.644   1.846  1.00  0.00     0.043 A 
HETATM   25  C   UNL     1      43.131 -19.379   2.249  1.00  0.00     0.013 A 
ENDBRANCH  16  19
ENDBRANCH  15  16
ENDBRANCH   2  15
TORSDOF 6
ENDMDL
