MODEL 1
REMARK VINA RESULT:      -7.9      0.000      0.000
REMARK  7 active torsions:
REMARK  status: ('A' for Active; 'I' for Inactive)
REMARK       I    between atoms: C_2  and  N_3 
REMARK    1  A    between atoms: N_3  and  C_4 
REMARK    2  A    between atoms: C_7  and  N_8 
REMARK       I    between atoms: N_8  and  C_9 
REMARK    3  A    between atoms: C_9  and  C_10 
REMARK    4  A    between atoms: C_11  and  C_12 
REMARK    5  A    between atoms: C_13  and  O_14 
REMARK    6  A    between atoms: N_20  and  C_21 
REMARK    7  A    between atoms: C_24  and  O_25 
ROOT
HETATM    1  C   UNL     1      40.733 -11.905   2.239  1.00  0.00     0.106 C 
HETATM    2  C   UNL     1      40.491 -11.024   0.974  1.00  0.00     0.142 C 
HETATM    3  N   UNL     1      39.435 -11.605   0.114  1.00  0.00    -0.308 N 
HETATM    4  C   UNL     1      38.207 -11.763   0.775  1.00  0.00     0.225 C 
HETATM    5  O   UNL     1      37.151 -11.243   0.433  1.00  0.00    -0.273 OA
HETATM    6  C   UNL     1      38.315 -12.743   1.922  1.00  0.00     0.104 C 
HETATM    7  C   UNL     1      39.406 -12.334   2.897  1.00  0.00     0.026 C 
ENDROOT
BRANCH   1   8
HETATM    8  C   UNL     1      41.667 -13.088   1.982  1.00  0.00     0.228 C 
HETATM    9  N   UNL     1      41.014 -14.296   2.137  1.00  0.00    -0.327 N 
HETATM   10  H   UNL     1      40.008 -14.241   2.269  1.00  0.00     0.169 HD
HETATM   11  O   UNL     1      42.847 -12.938   1.686  1.00  0.00    -0.273 OA
BRANCH   9  12
HETATM   12  C   UNL     1      41.544 -15.594   2.211  1.00  0.00     0.034 A 
HETATM   13  C   UNL     1      41.472 -16.414   3.332  1.00  0.00     0.032 A 
HETATM   14  C   UNL     1      41.950 -17.733   3.275  1.00  0.00     0.032 A 
HETATM   15  C   UNL     1      42.513 -18.240   2.101  1.00  0.00     0.034 A 
HETATM   16  C   UNL     1      42.616 -17.401   0.989  1.00  0.00     0.032 A 
HETATM   17  C   UNL     1      42.130 -16.094   1.042  1.00  0.00     0.032 A 
BRANCH  15  18
HETATM   18  N   UNL     1      42.979 -19.560   1.944  1.00  0.00    -0.328 N 
HETATM   19  C   UNL     1      44.008 -20.178   2.627  1.00  0.00     0.218 C 
HETATM   20  C   UNL     1      44.169 -21.622   2.218  1.00  0.00     0.117 C 
HETATM   21  O   UNL     1      44.715 -19.689   3.500  1.00  0.00    -0.274 OA
HETATM   22  H   UNL     1      42.465 -20.134   1.288  1.00  0.00     0.169 HD
ENDBRANCH  15  18
ENDBRANCH   9  12
ENDBRANCH   1   8
BRANCH   2  23
HETATM   23  C   UNL     1      41.664 -10.303   0.272  1.00  0.00    -0.001 C 
HETATM   24  C   UNL     1      41.920  -8.923   0.409  1.00  0.00     0.076 C 
HETATM   25  C   UNL     1      43.050  -8.323  -0.171  1.00  0.00     0.037 C 
HETATM   26  C   UNL     1      43.891  -9.058  -0.995  1.00  0.00     0.003 C 
HETATM   27  C   UNL     1      43.585 -10.383  -1.266  1.00  0.00     0.001 C 
HETATM   28  C   UNL     1      42.474 -10.983  -0.664  1.00  0.00     0.012 C 
BRANCH  24  29
HETATM   29  O   UNL     1      41.073  -8.155   1.169  1.00  0.00    -0.355 OA
HETATM   30  C   UNL     1      41.747  -7.496   2.246  1.00  0.00     0.210 C 
ENDBRANCH  24  29
ENDBRANCH   2  23
BRANCH   3  31
HETATM   31  C   UNL     1      39.650 -12.490  -1.003  1.00  0.00     0.038 A 
HETATM   32  C   UNL     1      39.827 -13.862  -0.754  1.00  0.00     0.032 A 
HETATM   33  C   UNL     1      40.011 -14.776  -1.796  1.00  0.00     0.039 A 
HETATM   34  C   UNL     1      40.033 -14.345  -3.118  1.00  0.00     0.068 A 
HETATM   35  C   UNL     1      39.864 -12.990  -3.386  1.00  0.00     0.039 A 
HETATM   36  C   UNL     1      39.665 -12.073  -2.338  1.00  0.00     0.032 A 
BRANCH  34  37
HETATM   37  O   UNL     1      40.216 -15.340  -4.037  1.00  0.00    -0.356 OA
HETATM   38  C   UNL     1      39.121 -16.220  -4.258  1.00  0.00     0.210 C 
ENDBRANCH  34  37
ENDBRANCH   3  31
TORSDOF 7
ENDMDL
MODEL 2
REMARK VINA RESULT:      -7.4      2.895      7.482
REMARK  7 active torsions:
REMARK  status: ('A' for Active; 'I' for Inactive)
REMARK       I    between atoms: C_2  and  N_3 
REMARK    1  A    between atoms: N_3  and  C_4 
REMARK    2  A    between atoms: C_7  and  N_8 
REMARK       I    between atoms: N_8  and  C_9 
REMARK    3  A    between atoms: C_9  and  C_10 
REMARK    4  A    between atoms: C_11  and  C_12 
REMARK    5  A    between atoms: C_13  and  O_14 
REMARK    6  A    between atoms: N_20  and  C_21 
REMARK    7  A    between atoms: C_24  and  O_25 
ROOT
HETATM    1  C   UNL     1      40.995 -12.084   1.328  1.00  0.00     0.106 C 
HETATM    2  C   UNL     1      41.769 -13.275   0.682  1.00  0.00     0.142 C 
HETATM    3  N   UNL     1      41.709 -13.211  -0.795  1.00  0.00    -0.308 N 
HETATM    4  C   UNL     1      42.231 -12.018  -1.320  1.00  0.00     0.225 C 
HETATM    5  O   UNL     1      43.169 -11.945  -2.104  1.00  0.00    -0.273 OA
HETATM    6  C   UNL     1      41.426 -10.817  -0.875  1.00  0.00     0.104 C 
HETATM    7  C   UNL     1      41.330 -10.745   0.639  1.00  0.00     0.026 C 
ENDROOT
BRANCH   1   8
HETATM    8  C   UNL     1      39.489 -12.327   1.432  1.00  0.00     0.228 C 
HETATM    9  N   UNL     1      38.765 -11.243   0.971  1.00  0.00    -0.327 N 
HETATM   10  H   UNL     1      39.306 -10.509   0.522  1.00  0.00     0.169 HD
HETATM   11  O   UNL     1      39.024 -13.367   1.884  1.00  0.00    -0.273 OA
BRANCH   9  12
HETATM   12  C   UNL     1      37.394 -10.969   1.095  1.00  0.00     0.034 A 
HETATM   13  C   UNL     1      36.849 -10.051   1.986  1.00  0.00     0.032 A 
HETATM   14  C   UNL     1      35.472  -9.779   1.967  1.00  0.00     0.032 A 
HETATM   15  C   UNL     1      34.626 -10.428   1.063  1.00  0.00     0.034 A 
HETATM   16  C   UNL     1      35.173 -11.375   0.195  1.00  0.00     0.032 A 
HETATM   17  C   UNL     1      36.544 -11.637   0.206  1.00  0.00     0.032 A 
BRANCH  15  18
HETATM   18  N   UNL     1      33.244 -10.186   0.948  1.00  0.00    -0.328 N 
HETATM   19  C   UNL     1      32.246 -10.558   1.829  1.00  0.00     0.218 C 
HETATM   20  C   UNL     1      30.890 -10.063   1.386  1.00  0.00     0.117 C 
HETATM   21  O   UNL     1      32.378 -11.175   2.879  1.00  0.00    -0.274 OA
HETATM   22  H   UNL     1      32.957  -9.633   0.151  1.00  0.00     0.169 HD
ENDBRANCH  15  18
ENDBRANCH   9  12
ENDBRANCH   1   8
BRANCH   2  23
HETATM   23  C   UNL     1      41.759 -14.676   1.334  1.00  0.00    -0.001 C 
HETATM   24  C   UNL     1      42.629 -15.052   2.379  1.00  0.00     0.076 C 
HETATM   25  C   UNL     1      42.527 -16.304   3.007  1.00  0.00     0.037 C 
HETATM   26  C   UNL     1      41.630 -17.255   2.538  1.00  0.00     0.003 C 
HETATM   27  C   UNL     1      40.862 -16.968   1.420  1.00  0.00     0.001 C 
HETATM   28  C   UNL     1      40.948 -15.709   0.816  1.00  0.00     0.012 C 
BRANCH  24  29
HETATM   29  O   UNL     1      43.568 -14.156   2.826  1.00  0.00    -0.355 OA
HETATM   30  C   UNL     1      43.262 -13.647   4.129  1.00  0.00     0.210 C 
ENDBRANCH  24  29
ENDBRANCH   2  23
BRANCH   3  31
HETATM   31  C   UNL     1      40.740 -13.876  -1.630  1.00  0.00     0.038 A 
HETATM   32  C   UNL     1      39.409 -13.425  -1.610  1.00  0.00     0.032 A 
HETATM   33  C   UNL     1      38.428 -14.009  -2.417  1.00  0.00     0.039 A 
HETATM   34  C   UNL     1      38.745 -15.069  -3.261  1.00  0.00     0.068 A 
HETATM   35  C   UNL     1      40.056 -15.533  -3.291  1.00  0.00     0.039 A 
HETATM   36  C   UNL     1      41.046 -14.935  -2.489  1.00  0.00     0.032 A 
BRANCH  34  37
HETATM   37  O   UNL     1      37.695 -15.543  -3.997  1.00  0.00    -0.356 OA
HETATM   38  C   UNL     1      36.644 -14.630  -4.279  1.00  0.00     0.210 C 
ENDBRANCH  34  37
ENDBRANCH   3  31
TORSDOF 7
ENDMDL
MODEL 3
REMARK VINA RESULT:      -7.3      1.958      4.411
REMARK  7 active torsions:
REMARK  status: ('A' for Active; 'I' for Inactive)
REMARK       I    between atoms: C_2  and  N_3 
REMARK    1  A    between atoms: N_3  and  C_4 
REMARK    2  A    between atoms: C_7  and  N_8 
REMARK       I    between atoms: N_8  and  C_9 
REMARK    3  A    between atoms: C_9  and  C_10 
REMARK    4  A    between atoms: C_11  and  C_12 
REMARK    5  A    between atoms: C_13  and  O_14 
REMARK    6  A    between atoms: N_20  and  C_21 
REMARK    7  A    between atoms: C_24  and  O_25 
ROOT
HETATM    1  C   UNL     1      38.903 -14.021  -1.085  1.00  0.00     0.106 C 
HETATM    2  C   UNL     1      38.692 -12.533  -0.665  1.00  0.00     0.142 C 
HETATM    3  N   UNL     1      39.255 -11.609  -1.675  1.00  0.00    -0.308 N 
HETATM    4  C   UNL     1      38.701 -11.782  -2.954  1.00  0.00     0.225 C 
HETATM    5  O   UNL     1      38.109 -10.917  -3.588  1.00  0.00    -0.273 OA
HETATM    6  C   UNL     1      39.009 -13.154  -3.511  1.00  0.00     0.104 C 
HETATM    7  C   UNL     1      38.545 -14.251  -2.567  1.00  0.00     0.026 C 
ENDROOT
BRANCH   1   8
HETATM    8  C   UNL     1      40.289 -14.559  -0.727  1.00  0.00     0.228 C 
HETATM    9  N   UNL     1      40.221 -15.525   0.259  1.00  0.00    -0.327 N 
HETATM   10  H   UNL     1      39.286 -15.831   0.515  1.00  0.00     0.169 HD
HETATM   11  O   UNL     1      41.310 -14.149  -1.268  1.00  0.00    -0.273 OA
BRANCH   9  12
HETATM   12  C   UNL     1      41.253 -16.100   1.017  1.00  0.00     0.034 A 
HETATM   13  C   UNL     1      42.136 -15.386   1.819  1.00  0.00     0.032 A 
HETATM   14  C   UNL     1      43.076 -16.064   2.613  1.00  0.00     0.032 A 
HETATM   15  C   UNL     1      43.146 -17.460   2.605  1.00  0.00     0.034 A 
HETATM   16  C   UNL     1      42.281 -18.170   1.770  1.00  0.00     0.032 A 
HETATM   17  C   UNL     1      41.340 -17.497   0.989  1.00  0.00     0.032 A 
BRANCH  15  18
HETATM   18  N   UNL     1      44.028 -18.220   3.399  1.00  0.00    -0.328 N 
HETATM   19  C   UNL     1      43.790 -18.752   4.651  1.00  0.00     0.218 C 
HETATM   20  C   UNL     1      44.963 -19.558   5.153  1.00  0.00     0.117 C 
HETATM   21  O   UNL     1      42.761 -18.659   5.311  1.00  0.00    -0.274 OA
HETATM   22  H   UNL     1      44.921 -18.440   2.978  1.00  0.00     0.169 HD
ENDBRANCH  15  18
ENDBRANCH   9  12
ENDBRANCH   1   8
BRANCH   2  23
HETATM   23  C   UNL     1      38.781 -12.106   0.818  1.00  0.00    -0.001 C 
HETATM   24  C   UNL     1      37.920 -11.156   1.405  1.00  0.00     0.076 C 
HETATM   25  C   UNL     1      37.973 -10.862   2.778  1.00  0.00     0.037 C 
HETATM   26  C   UNL     1      38.959 -11.424   3.578  1.00  0.00     0.003 C 
HETATM   27  C   UNL     1      39.911 -12.250   3.001  1.00  0.00     0.001 C 
HETATM   28  C   UNL     1      39.836 -12.560   1.639  1.00  0.00     0.012 C 
BRANCH  24  29
HETATM   29  O   UNL     1      36.972 -10.537   0.627  1.00  0.00    -0.355 OA
HETATM   30  C   UNL     1      37.318  -9.184   0.314  1.00  0.00     0.210 C 
ENDBRANCH  24  29
ENDBRANCH   2  23
BRANCH   3  31
HETATM   31  C   UNL     1      40.577 -11.037  -1.651  1.00  0.00     0.038 A 
HETATM   32  C   UNL     1      40.917 -10.165  -0.603  1.00  0.00     0.032 A 
HETATM   33  C   UNL     1      42.192  -9.600  -0.507  1.00  0.00     0.039 A 
HETATM   34  C   UNL     1      43.164  -9.881  -1.461  1.00  0.00     0.068 A 
HETATM   35  C   UNL     1      42.846 -10.739  -2.510  1.00  0.00     0.039 A 
HETATM   36  C   UNL     1      41.567 -11.319  -2.598  1.00  0.00     0.032 A 
BRANCH  34  37
HETATM   37  O   UNL     1      44.366  -9.268  -1.247  1.00  0.00    -0.356 OA
HETATM   38  C   UNL     1      44.346  -7.859  -1.066  1.00  0.00     0.210 C 
ENDBRANCH  34  37
ENDBRANCH   3  31
TORSDOF 7
ENDMDL
MODEL 4
REMARK VINA RESULT:      -7.0      2.278      5.296
REMARK  7 active torsions:
REMARK  status: ('A' for Active; 'I' for Inactive)
REMARK       I    between atoms: C_2  and  N_3 
REMARK    1  A    between atoms: N_3  and  C_4 
REMARK    2  A    between atoms: C_7  and  N_8 
REMARK       I    between atoms: N_8  and  C_9 
REMARK    3  A    between atoms: C_9  and  C_10 
REMARK    4  A    between atoms: C_11  and  C_12 
REMARK    5  A    between atoms: C_13  and  O_14 
REMARK    6  A    between atoms: N_20  and  C_21 
REMARK    7  A    between atoms: C_24  and  O_25 
ROOT
HETATM    1  C   UNL     1      40.207 -14.309  -1.650  1.00  0.00     0.106 C 
HETATM    2  C   UNL     1      39.512 -12.929  -1.867  1.00  0.00     0.142 C 
HETATM    3  N   UNL     1      40.451 -11.946  -2.452  1.00  0.00    -0.308 N 
HETATM    4  C   UNL     1      40.991 -12.358  -3.681  1.00  0.00     0.225 C 
HETATM    5  O   UNL     1      40.876 -11.752  -4.739  1.00  0.00    -0.273 OA
HETATM    6  C   UNL     1      41.829 -13.608  -3.527  1.00  0.00     0.104 C 
HETATM    7  C   UNL     1      41.035 -14.730  -2.882  1.00  0.00     0.026 C 
ENDROOT
BRANCH   1   8
HETATM    8  C   UNL     1      41.010 -14.384  -0.351  1.00  0.00     0.228 C 
HETATM    9  N   UNL     1      40.609 -15.448   0.434  1.00  0.00    -0.327 N 
HETATM   10  H   UNL     1      39.949 -16.091   0.005  1.00  0.00     0.169 HD
HETATM   11  O   UNL     1      41.887 -13.573  -0.077  1.00  0.00    -0.273 OA
BRANCH   9  12
HETATM   12  C   UNL     1      40.923 -15.738   1.772  1.00  0.00     0.034 A 
HETATM   13  C   UNL     1      40.494 -14.991   2.863  1.00  0.00     0.032 A 
HETATM   14  C   UNL     1      40.784 -15.419   4.170  1.00  0.00     0.032 A 
HETATM   15  C   UNL     1      41.513 -16.589   4.395  1.00  0.00     0.034 A 
HETATM   16  C   UNL     1      41.972 -17.316   3.294  1.00  0.00     0.032 A 
HETATM   17  C   UNL     1      41.674 -16.897   1.996  1.00  0.00     0.032 A 
BRANCH  15  18
HETATM   18  N   UNL     1      41.812 -17.111   5.668  1.00  0.00    -0.328 N 
HETATM   19  C   UNL     1      42.952 -16.899   6.421  1.00  0.00     0.218 C 
HETATM   20  C   UNL     1      42.876 -17.583   7.764  1.00  0.00     0.117 C 
HETATM   21  O   UNL     1      43.922 -16.215   6.116  1.00  0.00    -0.274 OA
HETATM   22  H   UNL     1      41.085 -17.666   6.100  1.00  0.00     0.169 HD
ENDBRANCH  15  18
ENDBRANCH   9  12
ENDBRANCH   1   8
BRANCH   2  23
HETATM   23  C   UNL     1      38.463 -12.401  -0.862  1.00  0.00    -0.001 C 
HETATM   24  C   UNL     1      37.346 -11.627  -1.241  1.00  0.00     0.076 C 
HETATM   25  C   UNL     1      36.367 -11.244  -0.310  1.00  0.00     0.037 C 
HETATM   26  C   UNL     1      36.531 -11.526   1.040  1.00  0.00     0.003 C 
HETATM   27  C   UNL     1      37.690 -12.159   1.463  1.00  0.00     0.001 C 
HETATM   28  C   UNL     1      38.649 -12.562   0.528  1.00  0.00     0.012 C 
BRANCH  24  29
HETATM   29  O   UNL     1      37.185 -11.281  -2.559  1.00  0.00    -0.355 OA
HETATM   30  C   UNL     1      37.308  -9.870  -2.774  1.00  0.00     0.210 C 
ENDBRANCH  24  29
ENDBRANCH   2  23
BRANCH   3  31
HETATM   31  C   UNL     1      41.254 -11.004  -1.713  1.00  0.00     0.038 A 
HETATM   32  C   UNL     1      42.634 -10.941  -1.975  1.00  0.00     0.032 A 
HETATM   33  C   UNL     1      43.462 -10.030  -1.313  1.00  0.00     0.039 A 
HETATM   34  C   UNL     1      42.939  -9.160  -0.362  1.00  0.00     0.068 A 
HETATM   35  C   UNL     1      41.576  -9.210  -0.086  1.00  0.00     0.039 A 
HETATM   36  C   UNL     1      40.740 -10.117  -0.762  1.00  0.00     0.032 A 
BRANCH  34  37
HETATM   37  O   UNL     1      43.855  -8.320   0.205  1.00  0.00    -0.356 OA
HETATM   38  C   UNL     1      44.472  -7.369  -0.652  1.00  0.00     0.210 C 
ENDBRANCH  34  37
ENDBRANCH   3  31
TORSDOF 7
ENDMDL
MODEL 5
REMARK VINA RESULT:      -6.9      3.393      7.892
REMARK  7 active torsions:
REMARK  status: ('A' for Active; 'I' for Inactive)
REMARK       I    between atoms: C_2  and  N_3 
REMARK    1  A    between atoms: N_3  and  C_4 
REMARK    2  A    between atoms: C_7  and  N_8 
REMARK       I    between atoms: N_8  and  C_9 
REMARK    3  A    between atoms: C_9  and  C_10 
REMARK    4  A    between atoms: C_11  and  C_12 
REMARK    5  A    between atoms: C_13  and  O_14 
REMARK    6  A    between atoms: N_20  and  C_21 
REMARK    7  A    between atoms: C_24  and  O_25 
ROOT
HETATM    1  C   UNL     1      38.656 -11.891  -3.314  1.00  0.00     0.106 C 
HETATM    2  C   UNL     1      40.076 -12.524  -3.186  1.00  0.00     0.142 C 
HETATM    3  N   UNL     1      39.994 -13.929  -2.727  1.00  0.00    -0.308 N 
HETATM    4  C   UNL     1      39.230 -14.745  -3.575  1.00  0.00     0.225 C 
HETATM    5  O   UNL     1      39.644 -15.745  -4.150  1.00  0.00    -0.273 OA
HETATM    6  C   UNL     1      37.786 -14.298  -3.624  1.00  0.00     0.104 C 
HETATM    7  C   UNL     1      37.672 -12.839  -4.031  1.00  0.00     0.026 C 
ENDROOT
BRANCH   1   8
HETATM    8  C   UNL     1      38.104 -11.369  -1.987  1.00  0.00     0.228 C 
HETATM    9  N   UNL     1      36.770 -11.695  -1.828  1.00  0.00    -0.327 N 
HETATM   10  H   UNL     1      36.382 -12.324  -2.525  1.00  0.00     0.169 HD
HETATM   11  O   UNL     1      38.793 -10.736  -1.196  1.00  0.00    -0.273 OA
BRANCH   9  12
HETATM   12  C   UNL     1      35.845 -11.228  -0.880  1.00  0.00     0.034 A 
HETATM   13  C   UNL     1      36.087 -11.145   0.486  1.00  0.00     0.032 A 
HETATM   14  C   UNL     1      35.130 -10.574   1.341  1.00  0.00     0.032 A 
HETATM   15  C   UNL     1      33.920 -10.089   0.837  1.00  0.00     0.034 A 
HETATM   16  C   UNL     1      33.667 -10.207  -0.531  1.00  0.00     0.032 A 
HETATM   17  C   UNL     1      34.623 -10.764  -1.382  1.00  0.00     0.032 A 
BRANCH  15  18
HETATM   18  N   UNL     1      32.924  -9.466   1.615  1.00  0.00    -0.328 N 
HETATM   19  C   UNL     1      32.061 -10.060   2.515  1.00  0.00     0.218 C 
HETATM   20  C   UNL     1      31.175  -9.048   3.199  1.00  0.00     0.117 C 
HETATM   21  O   UNL     1      31.998 -11.249   2.803  1.00  0.00    -0.274 OA
HETATM   22  H   UNL     1      32.871  -8.458   1.538  1.00  0.00     0.169 HD
ENDBRANCH  15  18
ENDBRANCH   9  12
ENDBRANCH   1   8
BRANCH   2  23
HETATM   23  C   UNL     1      41.279 -11.684  -2.696  1.00  0.00    -0.001 C 
HETATM   24  C   UNL     1      41.808 -10.594  -3.417  1.00  0.00     0.076 C 
HETATM   25  C   UNL     1      42.842  -9.799  -2.895  1.00  0.00     0.037 C 
HETATM   26  C   UNL     1      43.450 -10.137  -1.693  1.00  0.00     0.003 C 
HETATM   27  C   UNL     1      43.049 -11.288  -1.032  1.00  0.00     0.001 C 
HETATM   28  C   UNL     1      42.001 -12.060  -1.543  1.00  0.00     0.012 C 
BRANCH  24  29
HETATM   29  O   UNL     1      41.268 -10.269  -4.636  1.00  0.00    -0.355 OA
HETATM   30  C   UNL     1      42.232  -9.702  -5.529  1.00  0.00     0.210 C 
ENDBRANCH  24  29
ENDBRANCH   2  23
BRANCH   3  31
HETATM   31  C   UNL     1      40.080 -14.375  -1.359  1.00  0.00     0.038 A 
HETATM   32  C   UNL     1      41.109 -15.264  -1.002  1.00  0.00     0.032 A 
HETATM   33  C   UNL     1      41.265 -15.712   0.313  1.00  0.00     0.039 A 
HETATM   34  C   UNL     1      40.390 -15.294   1.310  1.00  0.00     0.068 A 
HETATM   35  C   UNL     1      39.361 -14.418   0.976  1.00  0.00     0.039 A 
HETATM   36  C   UNL     1      39.214 -13.956  -0.344  1.00  0.00     0.032 A 
BRANCH  34  37
HETATM   37  O   UNL     1      40.657 -15.802   2.550  1.00  0.00    -0.356 OA
HETATM   38  C   UNL     1      41.312 -17.062   2.600  1.00  0.00     0.210 C 
ENDBRANCH  34  37
ENDBRANCH   3  31
TORSDOF 7
ENDMDL
MODEL 6
REMARK VINA RESULT:      -6.9      2.744      6.633
REMARK  7 active torsions:
REMARK  status: ('A' for Active; 'I' for Inactive)
REMARK       I    between atoms: C_2  and  N_3 
REMARK    1  A    between atoms: N_3  and  C_4 
REMARK    2  A    between atoms: C_7  and  N_8 
REMARK       I    between atoms: N_8  and  C_9 
REMARK    3  A    between atoms: C_9  and  C_10 
REMARK    4  A    between atoms: C_11  and  C_12 
REMARK    5  A    between atoms: C_13  and  O_14 
REMARK    6  A    between atoms: N_20  and  C_21 
REMARK    7  A    between atoms: C_24  and  O_25 
ROOT
HETATM    1  C   UNL     1      38.452 -12.126  -3.078  1.00  0.00     0.106 C 
HETATM    2  C   UNL     1      39.911 -12.675  -3.156  1.00  0.00     0.142 C 
HETATM    3  N   UNL     1      39.962 -14.107  -2.783  1.00  0.00    -0.308 N 
HETATM    4  C   UNL     1      39.150 -14.919  -3.590  1.00  0.00     0.225 C 
HETATM    5  O   UNL     1      39.546 -15.856  -4.273  1.00  0.00    -0.273 OA
HETATM    6  C   UNL     1      37.687 -14.561  -3.442  1.00  0.00     0.104 C 
HETATM    7  C   UNL     1      37.445 -13.091  -3.737  1.00  0.00     0.026 C 
ENDROOT
BRANCH   1   8
HETATM    8  C   UNL     1      38.034 -11.718  -1.665  1.00  0.00     0.228 C 
HETATM    9  N   UNL     1      38.809 -10.678  -1.186  1.00  0.00    -0.327 N 
HETATM   10  H   UNL     1      39.442 -10.252  -1.857  1.00  0.00     0.169 HD
HETATM   11  O   UNL     1      37.125 -12.279  -1.065  1.00  0.00    -0.273 OA
BRANCH   9  12
HETATM   12  C   UNL     1      38.903 -10.164   0.117  1.00  0.00     0.034 A 
HETATM   13  C   UNL     1      37.932  -9.380   0.729  1.00  0.00     0.032 A 
HETATM   14  C   UNL     1      38.079  -8.994   2.072  1.00  0.00     0.032 A 
HETATM   15  C   UNL     1      39.201  -9.379   2.809  1.00  0.00     0.034 A 
HETATM   16  C   UNL     1      40.191 -10.135   2.178  1.00  0.00     0.032 A 
HETATM   17  C   UNL     1      40.040 -10.529   0.847  1.00  0.00     0.032 A 
BRANCH  15  18
HETATM   18  N   UNL     1      39.408  -9.070   4.168  1.00  0.00    -0.328 N 
HETATM   19  C   UNL     1      39.104  -9.851   5.266  1.00  0.00     0.218 C 
HETATM   20  C   UNL     1      39.534  -9.199   6.558  1.00  0.00     0.117 C 
HETATM   21  O   UNL     1      38.591 -10.963   5.263  1.00  0.00    -0.274 OA
HETATM   22  H   UNL     1      39.880  -8.195   4.354  1.00  0.00     0.169 HD
ENDBRANCH  15  18
ENDBRANCH   9  12
ENDBRANCH   1   8
BRANCH   2  23
HETATM   23  C   UNL     1      41.115 -11.792  -2.755  1.00  0.00    -0.001 C 
HETATM   24  C   UNL     1      41.480 -10.618  -3.446  1.00  0.00     0.076 C 
HETATM   25  C   UNL     1      42.523  -9.793  -2.996  1.00  0.00     0.037 C 
HETATM   26  C   UNL     1      43.302 -10.174  -1.911  1.00  0.00     0.003 C 
HETATM   27  C   UNL     1      43.060 -11.394  -1.299  1.00  0.00     0.001 C 
HETATM   28  C   UNL     1      42.002 -12.199  -1.735  1.00  0.00     0.012 C 
BRANCH  24  29
HETATM   29  O   UNL     1      40.767 -10.244  -4.559  1.00  0.00    -0.355 OA
HETATM   30  C   UNL     1      40.111  -8.983  -4.392  1.00  0.00     0.210 C 
ENDBRANCH  24  29
ENDBRANCH   2  23
BRANCH   3  31
HETATM   31  C   UNL     1      40.236 -14.626  -1.467  1.00  0.00     0.038 A 
HETATM   32  C   UNL     1      41.183 -15.655  -1.330  1.00  0.00     0.032 A 
HETATM   33  C   UNL     1      41.514 -16.182  -0.078  1.00  0.00     0.039 A 
HETATM   34  C   UNL     1      40.901 -15.704   1.074  1.00  0.00     0.068 A 
HETATM   35  C   UNL     1      39.956 -14.688   0.960  1.00  0.00     0.039 A 
HETATM   36  C   UNL     1      39.634 -14.148  -0.299  1.00  0.00     0.032 A 
BRANCH  34  37
HETATM   37  O   UNL     1      41.318 -16.301   2.230  1.00  0.00    -0.356 OA
HETATM   38  C   UNL     1      41.872 -17.605   2.116  1.00  0.00     0.210 C 
ENDBRANCH  34  37
ENDBRANCH   3  31
TORSDOF 7
ENDMDL
MODEL 7
REMARK VINA RESULT:      -6.8      2.814      5.719
REMARK  7 active torsions:
REMARK  status: ('A' for Active; 'I' for Inactive)
REMARK       I    between atoms: C_2  and  N_3 
REMARK    1  A    between atoms: N_3  and  C_4 
REMARK    2  A    between atoms: C_7  and  N_8 
REMARK       I    between atoms: N_8  and  C_9 
REMARK    3  A    between atoms: C_9  and  C_10 
REMARK    4  A    between atoms: C_11  and  C_12 
REMARK    5  A    between atoms: C_13  and  O_14 
REMARK    6  A    between atoms: N_20  and  C_21 
REMARK    7  A    between atoms: C_24  and  O_25 
ROOT
HETATM    1  C   UNL     1      40.430 -14.166  -0.025  1.00  0.00     0.106 C 
HETATM    2  C   UNL     1      39.666 -12.896  -0.516  1.00  0.00     0.142 C 
HETATM    3  N   UNL     1      40.437 -12.182  -1.558  1.00  0.00    -0.308 N 
HETATM    4  C   UNL     1      40.724 -12.977  -2.679  1.00  0.00     0.225 C 
HETATM    5  O   UNL     1      40.376 -12.727  -3.828  1.00  0.00    -0.273 OA
HETATM    6  C   UNL     1      41.610 -14.148  -2.317  1.00  0.00     0.104 C 
HETATM    7  C   UNL     1      40.997 -14.982  -1.205  1.00  0.00     0.026 C 
ENDROOT
BRANCH   1   8
HETATM    8  C   UNL     1      41.485 -13.863   1.039  1.00  0.00     0.228 C 
HETATM    9  N   UNL     1      41.235 -14.548   2.213  1.00  0.00    -0.327 N 
HETATM   10  H   UNL     1      40.487 -15.234   2.174  1.00  0.00     0.169 HD
HETATM   11  O   UNL     1      42.417 -13.093   0.836  1.00  0.00    -0.273 OA
BRANCH   9  12
HETATM   12  C   UNL     1      41.816 -14.386   3.481  1.00  0.00     0.034 A 
HETATM   13  C   UNL     1      42.825 -15.193   3.996  1.00  0.00     0.032 A 
HETATM   14  C   UNL     1      43.407 -14.890   5.238  1.00  0.00     0.032 A 
HETATM   15  C   UNL     1      42.979 -13.786   5.979  1.00  0.00     0.034 A 
HETATM   16  C   UNL     1      41.940 -13.001   5.474  1.00  0.00     0.032 A 
HETATM   17  C   UNL     1      41.370 -13.295   4.234  1.00  0.00     0.032 A 
BRANCH  15  18
HETATM   18  N   UNL     1      43.533 -13.387   7.211  1.00  0.00    -0.328 N 
HETATM   19  C   UNL     1      44.871 -13.311   7.549  1.00  0.00     0.218 C 
HETATM   20  C   UNL     1      45.069 -12.781   8.948  1.00  0.00     0.117 C 
HETATM   21  O   UNL     1      45.830 -13.580   6.836  1.00  0.00    -0.274 OA
HETATM   22  H   UNL     1      42.873 -13.075   7.911  1.00  0.00     0.169 HD
ENDBRANCH  15  18
ENDBRANCH   9  12
ENDBRANCH   1   8
BRANCH   2  23
HETATM   23  C   UNL     1      38.833 -12.041   0.465  1.00  0.00    -0.001 C 
HETATM   24  C   UNL     1      37.574 -11.494   0.141  1.00  0.00     0.076 C 
HETATM   25  C   UNL     1      36.807 -10.800   1.091  1.00  0.00     0.037 C 
HETATM   26  C   UNL     1      37.322 -10.537   2.354  1.00  0.00     0.003 C 
HETATM   27  C   UNL     1      38.615 -10.936   2.654  1.00  0.00     0.001 C 
HETATM   28  C   UNL     1      39.364 -11.651   1.714  1.00  0.00     0.012 C 
BRANCH  24  29
HETATM   29  O   UNL     1      37.063 -11.685  -1.119  1.00  0.00    -0.355 OA
HETATM   30  C   UNL     1      37.167 -10.514  -1.936  1.00  0.00     0.210 C 
ENDBRANCH  24  29
ENDBRANCH   2  23
BRANCH   3  31
HETATM   31  C   UNL     1      41.348 -11.088  -1.332  1.00  0.00     0.038 A 
HETATM   32  C   UNL     1      42.713 -11.278  -1.609  1.00  0.00     0.032 A 
HETATM   33  C   UNL     1      43.644 -10.249  -1.438  1.00  0.00     0.039 A 
HETATM   34  C   UNL     1      43.240  -9.001  -0.975  1.00  0.00     0.068 A 
HETATM   35  C   UNL     1      41.894  -8.794  -0.691  1.00  0.00     0.039 A 
HETATM   36  C   UNL     1      40.956  -9.826  -0.877  1.00  0.00     0.032 A 
BRANCH  34  37
HETATM   37  O   UNL     1      44.248  -8.085  -0.857  1.00  0.00    -0.356 OA
HETATM   38  C   UNL     1      44.249  -7.279   0.313  1.00  0.00     0.210 C 
ENDBRANCH  34  37
ENDBRANCH   3  31
TORSDOF 7
ENDMDL
MODEL 8
REMARK VINA RESULT:      -6.8      2.089      5.406
REMARK  7 active torsions:
REMARK  status: ('A' for Active; 'I' for Inactive)
REMARK       I    between atoms: C_2  and  N_3 
REMARK    1  A    between atoms: N_3  and  C_4 
REMARK    2  A    between atoms: C_7  and  N_8 
REMARK       I    between atoms: N_8  and  C_9 
REMARK    3  A    between atoms: C_9  and  C_10 
REMARK    4  A    between atoms: C_11  and  C_12 
REMARK    5  A    between atoms: C_13  and  O_14 
REMARK    6  A    between atoms: N_20  and  C_21 
REMARK    7  A    between atoms: C_24  and  O_25 
ROOT
HETATM    1  C   UNL     1      40.447 -13.041  -1.313  1.00  0.00     0.106 C 
HETATM    2  C   UNL     1      39.850 -11.636  -0.986  1.00  0.00     0.142 C 
HETATM    3  N   UNL     1      40.821 -10.807  -0.236  1.00  0.00    -0.308 N 
HETATM    4  C   UNL     1      42.031 -10.616  -0.920  1.00  0.00     0.225 C 
HETATM    5  O   UNL     1      42.493  -9.528  -1.245  1.00  0.00    -0.273 OA
HETATM    6  C   UNL     1      42.763 -11.923  -1.130  1.00  0.00     0.104 C 
HETATM    7  C   UNL     1      41.889 -12.937  -1.849  1.00  0.00     0.026 C 
ENDROOT
BRANCH   1   8
HETATM    8  C   UNL     1      40.323 -14.034  -0.157  1.00  0.00     0.228 C 
HETATM    9  N   UNL     1      41.558 -14.516   0.235  1.00  0.00    -0.327 N 
HETATM   10  H   UNL     1      42.363 -14.067  -0.192  1.00  0.00     0.169 HD
HETATM   11  O   UNL     1      39.240 -14.344   0.325  1.00  0.00    -0.273 OA
BRANCH   9  12
HETATM   12  C   UNL     1      41.867 -15.588   1.087  1.00  0.00     0.034 A 
HETATM   13  C   UNL     1      41.547 -16.917   0.833  1.00  0.00     0.032 A 
HETATM   14  C   UNL     1      41.985 -17.928   1.703  1.00  0.00     0.032 A 
HETATM   15  C   UNL     1      42.739 -17.619   2.838  1.00  0.00     0.034 A 
HETATM   16  C   UNL     1      43.027 -16.280   3.108  1.00  0.00     0.032 A 
HETATM   17  C   UNL     1      42.601 -15.275   2.237  1.00  0.00     0.032 A 
BRANCH  15  18
HETATM   18  N   UNL     1      43.252 -18.572   3.740  1.00  0.00    -0.328 N 
HETATM   19  C   UNL     1      44.178 -19.564   3.483  1.00  0.00     0.218 C 
HETATM   20  C   UNL     1      44.522 -20.350   4.724  1.00  0.00     0.117 C 
HETATM   21  O   UNL     1      44.726 -19.805   2.414  1.00  0.00    -0.274 OA
HETATM   22  H   UNL     1      42.940 -18.484   4.699  1.00  0.00     0.169 HD
ENDBRANCH  15  18
ENDBRANCH   9  12
ENDBRANCH   1   8
BRANCH   2  23
HETATM   23  C   UNL     1      38.354 -11.470  -0.637  1.00  0.00    -0.001 C 
HETATM   24  C   UNL     1      37.355 -11.222  -1.602  1.00  0.00     0.076 C 
HETATM   25  C   UNL     1      35.995 -11.169  -1.256  1.00  0.00     0.037 C 
HETATM   26  C   UNL     1      35.604 -11.251   0.074  1.00  0.00     0.003 C 
HETATM   27  C   UNL     1      36.574 -11.350   1.060  1.00  0.00     0.001 C 
HETATM   28  C   UNL     1      37.925 -11.430   0.707  1.00  0.00     0.012 C 
BRANCH  24  29
HETATM   29  O   UNL     1      37.715 -11.076  -2.919  1.00  0.00    -0.355 OA
HETATM   30  C   UNL     1      37.355 -12.210  -3.714  1.00  0.00     0.210 C 
ENDBRANCH  24  29
ENDBRANCH   2  23
BRANCH   3  31
HETATM   31  C   UNL     1      40.902 -10.693   1.198  1.00  0.00     0.038 A 
HETATM   32  C   UNL     1      40.682  -9.437   1.790  1.00  0.00     0.032 A 
HETATM   33  C   UNL     1      40.718  -9.266   3.177  1.00  0.00     0.039 A 
HETATM   34  C   UNL     1      40.985 -10.343   4.015  1.00  0.00     0.068 A 
HETATM   35  C   UNL     1      41.209 -11.594   3.449  1.00  0.00     0.039 A 
HETATM   36  C   UNL     1      41.159 -11.768   2.054  1.00  0.00     0.032 A 
BRANCH  34  37
HETATM   37  O   UNL     1      40.986 -10.039   5.348  1.00  0.00    -0.356 OA
HETATM   38  C   UNL     1      40.749 -11.111   6.251  1.00  0.00     0.210 C 
ENDBRANCH  34  37
ENDBRANCH   3  31
TORSDOF 7
ENDMDL
MODEL 9
REMARK VINA RESULT:      -6.7      3.341      5.897
REMARK  7 active torsions:
REMARK  status: ('A' for Active; 'I' for Inactive)
REMARK       I    between atoms: C_2  and  N_3 
REMARK    1  A    between atoms: N_3  and  C_4 
REMARK    2  A    between atoms: C_7  and  N_8 
REMARK       I    between atoms: N_8  and  C_9 
REMARK    3  A    between atoms: C_9  and  C_10 
REMARK    4  A    between atoms: C_11  and  C_12 
REMARK    5  A    between atoms: C_13  and  O_14 
REMARK    6  A    between atoms: N_20  and  C_21 
REMARK    7  A    between atoms: C_24  and  O_25 
ROOT
HETATM    1  C   UNL     1      38.746 -11.066   0.593  1.00  0.00     0.106 C 
HETATM    2  C   UNL     1      39.507 -11.657  -0.634  1.00  0.00     0.142 C 
HETATM    3  N   UNL     1      39.373 -13.131  -0.684  1.00  0.00    -0.308 N 
HETATM    4  C   UNL     1      38.040 -13.564  -0.750  1.00  0.00     0.225 C 
HETATM    5  O   UNL     1      37.563 -14.242  -1.652  1.00  0.00    -0.273 OA
HETATM    6  C   UNL     1      37.268 -13.175   0.492  1.00  0.00     0.104 C 
HETATM    7  C   UNL     1      37.339 -11.678   0.741  1.00  0.00     0.026 C 
ENDROOT
BRANCH   1   8
HETATM    8  C   UNL     1      39.551 -11.129   1.892  1.00  0.00     0.228 C 
HETATM    9  N   UNL     1      38.818 -11.695   2.918  1.00  0.00    -0.327 N 
HETATM   10  H   UNL     1      37.923 -12.096   2.653  1.00  0.00     0.169 HD
HETATM   11  O   UNL     1      40.700 -10.710   1.971  1.00  0.00    -0.273 OA
BRANCH   9  12
HETATM   12  C   UNL     1      39.094 -11.736   4.294  1.00  0.00     0.034 A 
HETATM   13  C   UNL     1      39.361 -12.896   5.012  1.00  0.00     0.032 A 
HETATM   14  C   UNL     1      39.719 -12.822   6.368  1.00  0.00     0.032 A 
HETATM   15  C   UNL     1      39.805 -11.589   7.019  1.00  0.00     0.034 A 
HETATM   16  C   UNL     1      39.500 -10.429   6.303  1.00  0.00     0.032 A 
HETATM   17  C   UNL     1      39.155 -10.502   4.952  1.00  0.00     0.032 A 
BRANCH  15  18
HETATM   18  N   UNL     1      40.195 -11.420   8.362  1.00  0.00    -0.328 N 
HETATM   19  C   UNL     1      39.467 -10.849   9.387  1.00  0.00     0.218 C 
HETATM   20  C   UNL     1      40.204 -10.905  10.703  1.00  0.00     0.117 C 
HETATM   21  O   UNL     1      38.339 -10.375   9.318  1.00  0.00    -0.274 OA
HETATM   22  H   UNL     1      41.096 -11.808   8.611  1.00  0.00     0.169 HD
ENDBRANCH  15  18
ENDBRANCH   9  12
ENDBRANCH   1   8
BRANCH   2  23
HETATM   23  C   UNL     1      40.846 -11.048  -1.108  1.00  0.00    -0.001 C 
HETATM   24  C   UNL     1      40.936  -9.842  -1.834  1.00  0.00     0.076 C 
HETATM   25  C   UNL     1      42.177  -9.273  -2.166  1.00  0.00     0.037 C 
HETATM   26  C   UNL     1      43.357  -9.947  -1.882  1.00  0.00     0.003 C 
HETATM   27  C   UNL     1      43.296 -11.204  -1.299  1.00  0.00     0.001 C 
HETATM   28  C   UNL     1      42.059 -11.752  -0.945  1.00  0.00     0.012 C 
BRANCH  24  29
HETATM   29  O   UNL     1      39.784  -9.180  -2.182  1.00  0.00    -0.355 OA
HETATM   30  C   UNL     1      39.609  -7.963  -1.450  1.00  0.00     0.210 C 
ENDBRANCH  24  29
ENDBRANCH   2  23
BRANCH   3  31
HETATM   31  C   UNL     1      40.301 -14.081  -0.124  1.00  0.00     0.038 A 
HETATM   32  C   UNL     1      40.833 -15.078  -0.960  1.00  0.00     0.032 A 
HETATM   33  C   UNL     1      41.759 -16.012  -0.486  1.00  0.00     0.039 A 
HETATM   34  C   UNL     1      42.174 -15.984   0.841  1.00  0.00     0.068 A 
HETATM   35  C   UNL     1      41.656 -15.007   1.686  1.00  0.00     0.039 A 
HETATM   36  C   UNL     1      40.735 -14.059   1.205  1.00  0.00     0.032 A 
BRANCH  34  37
HETATM   37  O   UNL     1      43.084 -16.948   1.173  1.00  0.00    -0.356 OA
HETATM   38  C   UNL     1      43.807 -16.761   2.382  1.00  0.00     0.210 C 
ENDBRANCH  34  37
ENDBRANCH   3  31
TORSDOF 7
ENDMDL
MODEL 10
REMARK VINA RESULT:      -6.7      1.708      2.125
REMARK  7 active torsions:
REMARK  status: ('A' for Active; 'I' for Inactive)
REMARK       I    between atoms: C_2  and  N_3 
REMARK    1  A    between atoms: N_3  and  C_4 
REMARK    2  A    between atoms: C_7  and  N_8 
REMARK       I    between atoms: N_8  and  C_9 
REMARK    3  A    between atoms: C_9  and  C_10 
REMARK    4  A    between atoms: C_11  and  C_12 
REMARK    5  A    between atoms: C_13  and  O_14 
REMARK    6  A    between atoms: N_20  and  C_21 
REMARK    7  A    between atoms: C_24  and  O_25 
ROOT
HETATM    1  C   UNL     1      39.358 -10.674   1.266  1.00  0.00     0.106 C 
HETATM    2  C   UNL     1      39.332 -10.182  -0.214  1.00  0.00     0.142 C 
HETATM    3  N   UNL     1      38.496 -11.068  -1.055  1.00  0.00    -0.308 N 
HETATM    4  C   UNL     1      37.170 -11.169  -0.607  1.00  0.00     0.225 C 
HETATM    5  O   UNL     1      36.180 -10.864  -1.262  1.00  0.00    -0.273 OA
HETATM    6  C   UNL     1      37.094 -11.800   0.765  1.00  0.00     0.104 C 
HETATM    7  C   UNL     1      37.948 -11.045   1.769  1.00  0.00     0.026 C 
ENDROOT
BRANCH   1   8
HETATM    8  C   UNL     1      40.380 -11.784   1.516  1.00  0.00     0.228 C 
HETATM    9  N   UNL     1      39.911 -13.013   1.089  1.00  0.00    -0.327 N 
HETATM   10  H   UNL     1      39.038 -12.997   0.568  1.00  0.00     0.169 HD
HETATM   11  O   UNL     1      41.466 -11.569   2.041  1.00  0.00    -0.273 OA
BRANCH   9  12
HETATM   12  C   UNL     1      40.426 -14.297   1.328  1.00  0.00     0.034 A 
HETATM   13  C   UNL     1      40.132 -15.070   2.446  1.00  0.00     0.032 A 
HETATM   14  C   UNL     1      40.624 -16.381   2.547  1.00  0.00     0.032 A 
HETATM   15  C   UNL     1      41.420 -16.927   1.538  1.00  0.00     0.034 A 
HETATM   16  C   UNL     1      41.742 -16.134   0.435  1.00  0.00     0.032 A 
HETATM   17  C   UNL     1      41.244 -14.834   0.328  1.00  0.00     0.032 A 
BRANCH  15  18
HETATM   18  N   UNL     1      41.920 -18.244   1.539  1.00  0.00    -0.328 N 
HETATM   19  C   UNL     1      43.149 -18.680   1.997  1.00  0.00     0.218 C 
HETATM   20  C   UNL     1      43.294 -20.178   1.884  1.00  0.00     0.117 C 
HETATM   21  O   UNL     1      44.040 -17.996   2.486  1.00  0.00    -0.274 OA
HETATM   22  H   UNL     1      41.283 -18.958   1.211  1.00  0.00     0.169 HD
ENDBRANCH  15  18
ENDBRANCH   9  12
ENDBRANCH   1   8
BRANCH   2  23
HETATM   23  C   UNL     1      40.586  -9.556  -0.866  1.00  0.00    -0.001 C 
HETATM   24  C   UNL     1      40.527  -8.565  -1.868  1.00  0.00     0.076 C 
HETATM   25  C   UNL     1      41.689  -7.956  -2.370  1.00  0.00     0.037 C 
HETATM   26  C   UNL     1      42.943  -8.396  -1.968  1.00  0.00     0.003 C 
HETATM   27  C   UNL     1      43.036  -9.468  -1.093  1.00  0.00     0.001 C 
HETATM   28  C   UNL     1      41.875 -10.052  -0.575  1.00  0.00     0.012 C 
BRANCH  24  29
HETATM   29  O   UNL     1      39.303  -8.149  -2.330  1.00  0.00    -0.355 OA
HETATM   30  C   UNL     1      39.046  -8.585  -3.670  1.00  0.00     0.210 C 
ENDBRANCH  24  29
ENDBRANCH   2  23
BRANCH   3  31
HETATM   31  C   UNL     1      38.970 -12.188  -1.829  1.00  0.00     0.038 A 
HETATM   32  C   UNL     1      38.201 -13.364  -1.856  1.00  0.00     0.032 A 
HETATM   33  C   UNL     1      38.590 -14.475  -2.610  1.00  0.00     0.039 A 
HETATM   34  C   UNL     1      39.766 -14.449  -3.352  1.00  0.00     0.068 A 
HETATM   35  C   UNL     1      40.544 -13.295  -3.335  1.00  0.00     0.039 A 
HETATM   36  C   UNL     1      40.144 -12.172  -2.588  1.00  0.00     0.032 A 
BRANCH  34  37
HETATM   37  O   UNL     1      40.027 -15.597  -4.046  1.00  0.00    -0.356 OA
HETATM   38  C   UNL     1      38.911 -16.408  -4.389  1.00  0.00     0.210 C 
ENDBRANCH  34  37
ENDBRANCH   3  31
TORSDOF 7
ENDMDL
