MODEL 1
REMARK VINA RESULT:      -8.9      0.000      0.000
REMARK  9 active torsions:
REMARK  status: ('A' for Active; 'I' for Inactive)
REMARK    1  A    between atoms: C_5  and  C_6 
REMARK    2  A    between atoms: C_6  and  N_7 
REMARK       I    between atoms: N_7  and  C_8 
REMARK    3  A    between atoms: C_8  and  C_9 
REMARK    4  A    between atoms: C_10  and  S_11 
REMARK    5  A    between atoms: S_11  and  C_12 
REMARK    6  A    between atoms: C_12  and  C_13 
REMARK       I    between atoms: C_13  and  N_14 
REMARK    7  A    between atoms: N_14  and  C_15 
REMARK    8  A    between atoms: C_16  and  O_17 
REMARK    9  A    between atoms: C_20  and  O_21 
ROOT
HETATM    1  C   UNL     1      40.984 -14.873   4.234  1.00  0.00     0.067 A 
HETATM    2  C   UNL     1      41.112 -13.520   4.554  1.00  0.00     0.109 A 
HETATM    3  N   UNL     1      40.422 -12.551   3.883  1.00  0.00    -0.253 NA
HETATM    4  C   UNL     1      39.634 -12.931   2.851  1.00  0.00     0.118 A 
HETATM    5  C   UNL     1      39.468 -14.243   2.455  1.00  0.00     0.020 A 
HETATM    6  C   UNL     1      40.150 -15.228   3.160  1.00  0.00     0.021 A 
ENDROOT
BRANCH   2   7
HETATM    7  S   UNL     1      42.155 -12.859   5.836  1.00  0.00    -0.100 SA
BRANCH   7   8
HETATM    8  C   UNL     1      41.299 -11.291   6.151  1.00  0.00     0.184 C 
BRANCH   8   9
HETATM    9  C   UNL     1      41.758 -10.518   7.382  1.00  0.00     0.231 C 
HETATM   10  N   UNL     1      42.036 -11.281   8.501  1.00  0.00    -0.324 N 
HETATM   11  H   UNL     1      42.134 -12.281   8.325  1.00  0.00     0.169 HD
HETATM   12  O   UNL     1      41.994  -9.313   7.265  1.00  0.00    -0.272 OA
BRANCH  10  13
HETATM   13  C   UNL     1      42.573 -10.799   9.718  1.00  0.00     0.068 A 
HETATM   14  C   UNL     1      43.945 -10.749  10.025  1.00  0.00     0.097 A 
HETATM   15  C   UNL     1      44.349 -10.353  11.313  1.00  0.00     0.075 A 
HETATM   16  C   UNL     1      43.404  -9.983  12.273  1.00  0.00     0.070 A 
HETATM   17  C   UNL     1      42.055  -9.943  11.928  1.00  0.00     0.039 A 
HETATM   18  C   UNL     1      41.643 -10.339  10.658  1.00  0.00     0.035 A 
BRANCH  14  19
HETATM   19  O   UNL     1      44.824 -10.968   8.997  1.00  0.00    -0.354 OA
HETATM   20  C   UNL     1      45.398 -12.261   8.878  1.00  0.00     0.210 C 
ENDBRANCH  14  19
BRANCH  16  21
HETATM   21  O   UNL     1      43.677  -9.601  13.559  1.00  0.00    -0.356 OA
HETATM   22  C   UNL     1      42.583  -9.614  14.467  1.00  0.00     0.210 C 
ENDBRANCH  16  21
ENDBRANCH  10  13
ENDBRANCH   8   9
ENDBRANCH   7   8
ENDBRANCH   2   7
BRANCH   1  23
HETATM   23  C   UNL     1      41.698 -15.956   4.954  1.00  0.00     0.254 C 
HETATM   24  N   UNL     1      42.943 -16.274   4.452  1.00  0.00    -0.353 N 
HETATM   25  H   UNL     1      43.241 -15.913   3.555  1.00  0.00     0.163 HD
HETATM   26  O   UNL     1      41.213 -16.495   5.937  1.00  0.00    -0.268 OA
BRANCH  24  27
HETATM   27  C   UNL     1      43.749 -17.319   5.042  1.00  0.00     0.161 C 
BRANCH  27  28
HETATM   28  C   UNL     1      43.865 -18.497   4.109  1.00  0.00    -0.041 A 
HETATM   29  C   UNL     1      44.535 -19.658   4.520  1.00  0.00     0.009 A 
HETATM   30  C   UNL     1      44.633 -20.763   3.672  1.00  0.00     0.007 A 
HETATM   31  C   UNL     1      44.069 -20.726   2.393  1.00  0.00    -0.062 A 
HETATM   32  C   UNL     1      44.126 -21.926   1.493  1.00  0.00     0.048 C 
HETATM   33  C   UNL     1      43.396 -19.570   1.981  1.00  0.00     0.007 A 
HETATM   34  C   UNL     1      43.299 -18.463   2.829  1.00  0.00     0.009 A 
ENDBRANCH  27  28
ENDBRANCH  24  27
ENDBRANCH   1  23
TORSDOF 9
ENDMDL
MODEL 2
REMARK VINA RESULT:      -8.7      3.097      7.052
REMARK  9 active torsions:
REMARK  status: ('A' for Active; 'I' for Inactive)
REMARK    1  A    between atoms: C_5  and  C_6 
REMARK    2  A    between atoms: C_6  and  N_7 
REMARK       I    between atoms: N_7  and  C_8 
REMARK    3  A    between atoms: C_8  and  C_9 
REMARK    4  A    between atoms: C_10  and  S_11 
REMARK    5  A    between atoms: S_11  and  C_12 
REMARK    6  A    between atoms: C_12  and  C_13 
REMARK       I    between atoms: C_13  and  N_14 
REMARK    7  A    between atoms: N_14  and  C_15 
REMARK    8  A    between atoms: C_16  and  O_17 
REMARK    9  A    between atoms: C_20  and  O_21 
ROOT
HETATM    1  C   UNL     1      43.688 -14.947   6.857  1.00  0.00     0.067 A 
HETATM    2  C   UNL     1      42.667 -14.691   5.940  1.00  0.00     0.109 A 
HETATM    3  N   UNL     1      41.792 -15.661   5.545  1.00  0.00    -0.253 NA
HETATM    4  C   UNL     1      41.966 -16.911   6.031  1.00  0.00     0.118 A 
HETATM    5  C   UNL     1      42.961 -17.255   6.923  1.00  0.00     0.020 A 
HETATM    6  C   UNL     1      43.832 -16.257   7.345  1.00  0.00     0.021 A 
ENDROOT
BRANCH   2   7
HETATM    7  S   UNL     1      42.350 -13.120   5.164  1.00  0.00    -0.100 SA
BRANCH   7   8
HETATM    8  C   UNL     1      40.558 -13.008   5.418  1.00  0.00     0.184 C 
BRANCH   8   9
HETATM    9  C   UNL     1      40.096 -12.003   6.467  1.00  0.00     0.231 C 
HETATM   10  N   UNL     1      41.038 -11.649   7.416  1.00  0.00    -0.324 N 
HETATM   11  H   UNL     1      41.997 -11.909   7.185  1.00  0.00     0.169 HD
HETATM   12  O   UNL     1      38.996 -11.464   6.320  1.00  0.00    -0.272 OA
BRANCH  10  13
HETATM   13  C   UNL     1      40.874 -10.663   8.416  1.00  0.00     0.068 A 
HETATM   14  C   UNL     1      41.393  -9.357   8.348  1.00  0.00     0.097 A 
HETATM   15  C   UNL     1      41.257  -8.504   9.458  1.00  0.00     0.075 A 
HETATM   16  C   UNL     1      40.589  -8.931  10.608  1.00  0.00     0.070 A 
HETATM   17  C   UNL     1      39.995 -10.190  10.628  1.00  0.00     0.039 A 
HETATM   18  C   UNL     1      40.128 -11.046   9.537  1.00  0.00     0.035 A 
BRANCH  14  19
HETATM   19  O   UNL     1      41.893  -8.945   7.140  1.00  0.00    -0.354 OA
HETATM   20  C   UNL     1      41.413  -7.721   6.606  1.00  0.00     0.210 C 
ENDBRANCH  14  19
BRANCH  16  21
HETATM   21  O   UNL     1      40.414  -8.197  11.750  1.00  0.00    -0.356 OA
HETATM   22  C   UNL     1      39.149  -8.317  12.389  1.00  0.00     0.210 C 
ENDBRANCH  16  21
ENDBRANCH  10  13
ENDBRANCH   8   9
ENDBRANCH   7   8
ENDBRANCH   2   7
BRANCH   1  23
HETATM   23  C   UNL     1      44.644 -13.916   7.329  1.00  0.00     0.254 C 
HETATM   24  N   UNL     1      44.294 -13.286   8.506  1.00  0.00    -0.353 N 
HETATM   25  H   UNL     1      43.368 -13.403   8.894  1.00  0.00     0.163 HD
HETATM   26  O   UNL     1      45.676 -13.677   6.720  1.00  0.00    -0.268 OA
BRANCH  24  27
HETATM   27  C   UNL     1      45.122 -12.248   9.079  1.00  0.00     0.161 C 
BRANCH  27  28
HETATM   28  C   UNL     1      44.469 -11.657  10.302  1.00  0.00    -0.041 A 
HETATM   29  C   UNL     1      43.910 -12.495  11.277  1.00  0.00     0.009 A 
HETATM   30  C   UNL     1      43.318 -11.961  12.424  1.00  0.00     0.007 A 
HETATM   31  C   UNL     1      43.268 -10.576  12.614  1.00  0.00    -0.062 A 
HETATM   32  C   UNL     1      42.679  -9.994  13.866  1.00  0.00     0.048 C 
HETATM   33  C   UNL     1      43.829  -9.737  11.645  1.00  0.00     0.007 A 
HETATM   34  C   UNL     1      44.419 -10.271  10.497  1.00  0.00     0.009 A 
ENDBRANCH  27  28
ENDBRANCH  24  27
ENDBRANCH   1  23
TORSDOF 9
ENDMDL
MODEL 3
REMARK VINA RESULT:      -8.4      4.217      6.265
REMARK  9 active torsions:
REMARK  status: ('A' for Active; 'I' for Inactive)
REMARK    1  A    between atoms: C_5  and  C_6 
REMARK    2  A    between atoms: C_6  and  N_7 
REMARK       I    between atoms: N_7  and  C_8 
REMARK    3  A    between atoms: C_8  and  C_9 
REMARK    4  A    between atoms: C_10  and  S_11 
REMARK    5  A    between atoms: S_11  and  C_12 
REMARK    6  A    between atoms: C_12  and  C_13 
REMARK       I    between atoms: C_13  and  N_14 
REMARK    7  A    between atoms: N_14  and  C_15 
REMARK    8  A    between atoms: C_16  and  O_17 
REMARK    9  A    between atoms: C_20  and  O_21 
ROOT
HETATM    1  C   UNL     1      41.742 -12.712  -0.645  1.00  0.00     0.067 A 
HETATM    2  C   UNL     1      41.436 -11.734   0.304  1.00  0.00     0.109 A 
HETATM    3  N   UNL     1      42.020 -10.500   0.283  1.00  0.00    -0.253 NA
HETATM    4  C   UNL     1      42.954 -10.255  -0.664  1.00  0.00     0.118 A 
HETATM    5  C   UNL     1      43.331 -11.171  -1.625  1.00  0.00     0.020 A 
HETATM    6  C   UNL     1      42.712 -12.416  -1.617  1.00  0.00     0.021 A 
ENDROOT
BRANCH   2   7
HETATM    7  S   UNL     1      40.282 -11.927   1.646  1.00  0.00    -0.100 SA
BRANCH   7   8
HETATM    8  C   UNL     1      41.422 -11.807   3.051  1.00  0.00     0.184 C 
BRANCH   8   9
HETATM    9  C   UNL     1      42.129 -13.099   3.447  1.00  0.00     0.231 C 
HETATM   10  N   UNL     1      41.574 -13.785   4.512  1.00  0.00    -0.324 N 
HETATM   11  H   UNL     1      40.632 -13.490   4.768  1.00  0.00     0.169 HD
HETATM   12  O   UNL     1      43.030 -13.522   2.720  1.00  0.00    -0.272 OA
BRANCH  10  13
HETATM   13  C   UNL     1      41.990 -15.051   4.987  1.00  0.00     0.068 A 
HETATM   14  C   UNL     1      43.074 -15.265   5.859  1.00  0.00     0.097 A 
HETATM   15  C   UNL     1      43.458 -16.581   6.170  1.00  0.00     0.075 A 
HETATM   16  C   UNL     1      42.758 -17.671   5.646  1.00  0.00     0.070 A 
HETATM   17  C   UNL     1      41.628 -17.447   4.863  1.00  0.00     0.039 A 
HETATM   18  C   UNL     1      41.242 -16.148   4.543  1.00  0.00     0.035 A 
BRANCH  14  19
HETATM   19  O   UNL     1      43.616 -14.161   6.464  1.00  0.00    -0.354 OA
HETATM   20  C   UNL     1      44.953 -14.251   6.933  1.00  0.00     0.210 C 
ENDBRANCH  14  19
BRANCH  16  21
HETATM   21  O   UNL     1      43.052 -18.990   5.863  1.00  0.00    -0.356 OA
HETATM   22  C   UNL     1      43.831 -19.281   7.017  1.00  0.00     0.210 C 
ENDBRANCH  16  21
ENDBRANCH  10  13
ENDBRANCH   8   9
ENDBRANCH   7   8
ENDBRANCH   2   7
BRANCH   1  23
HETATM   23  C   UNL     1      41.112 -14.055  -0.670  1.00  0.00     0.254 C 
HETATM   24  N   UNL     1      41.767 -15.024   0.063  1.00  0.00    -0.353 N 
HETATM   25  H   UNL     1      42.696 -14.853   0.423  1.00  0.00     0.163 HD
HETATM   26  O   UNL     1      40.072 -14.260  -1.277  1.00  0.00    -0.268 OA
BRANCH  24  27
HETATM   27  C   UNL     1      41.278 -16.383   0.120  1.00  0.00     0.161 C 
BRANCH  27  28
HETATM   28  C   UNL     1      42.211 -17.254   0.922  1.00  0.00    -0.041 A 
HETATM   29  C   UNL     1      41.832 -18.559   1.270  1.00  0.00     0.009 A 
HETATM   30  C   UNL     1      42.695 -19.382   1.996  1.00  0.00     0.007 A 
HETATM   31  C   UNL     1      43.952 -18.914   2.395  1.00  0.00    -0.062 A 
HETATM   32  C   UNL     1      44.905 -19.809   3.132  1.00  0.00     0.048 C 
HETATM   33  C   UNL     1      44.334 -17.614   2.045  1.00  0.00     0.007 A 
HETATM   34  C   UNL     1      43.470 -16.789   1.320  1.00  0.00     0.009 A 
ENDBRANCH  27  28
ENDBRANCH  24  27
ENDBRANCH   1  23
TORSDOF 9
ENDMDL
MODEL 4
REMARK VINA RESULT:      -8.4      4.602      9.265
REMARK  9 active torsions:
REMARK  status: ('A' for Active; 'I' for Inactive)
REMARK    1  A    between atoms: C_5  and  C_6 
REMARK    2  A    between atoms: C_6  and  N_7 
REMARK       I    between atoms: N_7  and  C_8 
REMARK    3  A    between atoms: C_8  and  C_9 
REMARK    4  A    between atoms: C_10  and  S_11 
REMARK    5  A    between atoms: S_11  and  C_12 
REMARK    6  A    between atoms: C_12  and  C_13 
REMARK       I    between atoms: C_13  and  N_14 
REMARK    7  A    between atoms: N_14  and  C_15 
REMARK    8  A    between atoms: C_16  and  O_17 
REMARK    9  A    between atoms: C_20  and  O_21 
ROOT
HETATM    1  C   UNL     1      41.753 -14.570   5.059  1.00  0.00     0.067 A 
HETATM    2  C   UNL     1      41.652 -13.824   3.883  1.00  0.00     0.109 A 
HETATM    3  N   UNL     1      40.549 -13.074   3.595  1.00  0.00    -0.253 NA
HETATM    4  C   UNL     1      39.514 -13.106   4.466  1.00  0.00     0.118 A 
HETATM    5  C   UNL     1      39.522 -13.833   5.640  1.00  0.00     0.020 A 
HETATM    6  C   UNL     1      40.660 -14.572   5.941  1.00  0.00     0.021 A 
ENDROOT
BRANCH   2   7
HETATM    7  S   UNL     1      42.896 -13.732   2.612  1.00  0.00    -0.100 SA
BRANCH   7   8
HETATM    8  C   UNL     1      42.555 -15.282   1.734  1.00  0.00     0.184 C 
BRANCH   8   9
HETATM    9  C   UNL     1      41.298 -15.295   0.871  1.00  0.00     0.231 C 
HETATM   10  N   UNL     1      41.437 -14.767  -0.400  1.00  0.00    -0.324 N 
HETATM   11  H   UNL     1      42.401 -14.643  -0.709  1.00  0.00     0.169 HD
HETATM   12  O   UNL     1      40.305 -15.897   1.287  1.00  0.00    -0.272 OA
BRANCH  10  13
HETATM   13  C   UNL     1      40.446 -14.768  -1.408  1.00  0.00     0.068 A 
HETATM   14  C   UNL     1      39.265 -14.002  -1.375  1.00  0.00     0.097 A 
HETATM   15  C   UNL     1      38.303 -14.175  -2.385  1.00  0.00     0.075 A 
HETATM   16  C   UNL     1      38.523 -15.074  -3.432  1.00  0.00     0.070 A 
HETATM   17  C   UNL     1      39.735 -15.754  -3.509  1.00  0.00     0.039 A 
HETATM   18  C   UNL     1      40.693 -15.596  -2.510  1.00  0.00     0.035 A 
BRANCH  14  19
HETATM   19  O   UNL     1      39.181 -13.027  -0.415  1.00  0.00    -0.354 OA
HETATM   20  C   UNL     1      37.892 -12.535  -0.081  1.00  0.00     0.210 C 
ENDBRANCH  14  19
BRANCH  16  21
HETATM   21  O   UNL     1      37.653 -15.338  -4.455  1.00  0.00    -0.356 OA
HETATM   22  C   UNL     1      36.519 -14.485  -4.555  1.00  0.00     0.210 C 
ENDBRANCH  16  21
ENDBRANCH  10  13
ENDBRANCH   8   9
ENDBRANCH   7   8
ENDBRANCH   2   7
BRANCH   1  23
HETATM   23  C   UNL     1      42.944 -15.378   5.417  1.00  0.00     0.254 C 
HETATM   24  N   UNL     1      42.873 -16.712   5.074  1.00  0.00    -0.353 N 
HETATM   25  H   UNL     1      41.997 -17.119   4.774  1.00  0.00     0.163 HD
HETATM   26  O   UNL     1      43.920 -14.873   5.951  1.00  0.00    -0.268 OA
BRANCH  24  27
HETATM   27  C   UNL     1      43.954 -17.626   5.374  1.00  0.00     0.161 C 
BRANCH  27  28
HETATM   28  C   UNL     1      43.988 -18.758   4.381  1.00  0.00    -0.041 A 
HETATM   29  C   UNL     1      43.314 -18.643   3.157  1.00  0.00     0.009 A 
HETATM   30  C   UNL     1      43.353 -19.678   2.220  1.00  0.00     0.007 A 
HETATM   31  C   UNL     1      44.063 -20.852   2.492  1.00  0.00    -0.062 A 
HETATM   32  C   UNL     1      44.152 -21.949   1.472  1.00  0.00     0.048 C 
HETATM   33  C   UNL     1      44.741 -20.968   3.711  1.00  0.00     0.007 A 
HETATM   34  C   UNL     1      44.700 -19.934   4.650  1.00  0.00     0.009 A 
ENDBRANCH  27  28
ENDBRANCH  24  27
ENDBRANCH   1  23
TORSDOF 9
ENDMDL
MODEL 5
REMARK VINA RESULT:      -8.3      2.745     10.046
REMARK  9 active torsions:
REMARK  status: ('A' for Active; 'I' for Inactive)
REMARK    1  A    between atoms: C_5  and  C_6 
REMARK    2  A    between atoms: C_6  and  N_7 
REMARK       I    between atoms: N_7  and  C_8 
REMARK    3  A    between atoms: C_8  and  C_9 
REMARK    4  A    between atoms: C_10  and  S_11 
REMARK    5  A    between atoms: S_11  and  C_12 
REMARK    6  A    between atoms: C_12  and  C_13 
REMARK       I    between atoms: C_13  and  N_14 
REMARK    7  A    between atoms: N_14  and  C_15 
REMARK    8  A    between atoms: C_16  and  O_17 
REMARK    9  A    between atoms: C_20  and  O_21 
ROOT
HETATM    1  C   UNL     1      43.613 -15.385   7.083  1.00  0.00     0.067 A 
HETATM    2  C   UNL     1      42.382 -15.320   6.428  1.00  0.00     0.109 A 
HETATM    3  N   UNL     1      41.601 -16.424   6.246  1.00  0.00    -0.253 NA
HETATM    4  C   UNL     1      42.074 -17.615   6.679  1.00  0.00     0.118 A 
HETATM    5  C   UNL     1      43.289 -17.773   7.315  1.00  0.00     0.020 A 
HETATM    6  C   UNL     1      44.067 -16.640   7.524  1.00  0.00     0.021 A 
ENDROOT
BRANCH   2   7
HETATM    7  S   UNL     1      41.656 -13.844   5.747  1.00  0.00    -0.100 SA
BRANCH   7   8
HETATM    8  C   UNL     1      42.185 -14.010   4.020  1.00  0.00     0.184 C 
BRANCH   8   9
HETATM    9  C   UNL     1      42.146 -15.421   3.445  1.00  0.00     0.231 C 
HETATM   10  N   UNL     1      43.368 -16.062   3.343  1.00  0.00    -0.324 N 
HETATM   11  H   UNL     1      44.125 -15.627   3.872  1.00  0.00     0.169 HD
HETATM   12  O   UNL     1      41.049 -15.949   3.255  1.00  0.00    -0.272 OA
BRANCH  10  13
HETATM   13  C   UNL     1      43.568 -17.403   2.942  1.00  0.00     0.068 A 
HETATM   14  C   UNL     1      43.330 -17.897   1.646  1.00  0.00     0.097 A 
HETATM   15  C   UNL     1      43.459 -19.275   1.400  1.00  0.00     0.075 A 
HETATM   16  C   UNL     1      43.849 -20.148   2.419  1.00  0.00     0.070 A 
HETATM   17  C   UNL     1      44.178 -19.636   3.672  1.00  0.00     0.039 A 
HETATM   18  C   UNL     1      44.047 -18.273   3.929  1.00  0.00     0.035 A 
BRANCH  14  19
HETATM   19  O   UNL     1      43.107 -16.975   0.657  1.00  0.00    -0.354 OA
HETATM   20  C   UNL     1      41.771 -16.778   0.221  1.00  0.00     0.210 C 
ENDBRANCH  14  19
BRANCH  16  21
HETATM   21  O   UNL     1      43.989 -21.504   2.301  1.00  0.00    -0.356 OA
HETATM   22  C   UNL     1      44.479 -22.190   3.447  1.00  0.00     0.210 C 
ENDBRANCH  16  21
ENDBRANCH  10  13
ENDBRANCH   8   9
ENDBRANCH   7   8
ENDBRANCH   2   7
BRANCH   1  23
HETATM   23  C   UNL     1      44.479 -14.205   7.321  1.00  0.00     0.254 C 
HETATM   24  N   UNL     1      44.256 -13.543   8.511  1.00  0.00    -0.353 N 
HETATM   25  H   UNL     1      43.439 -13.754   9.069  1.00  0.00     0.163 HD
HETATM   26  O   UNL     1      45.343 -13.876   6.521  1.00  0.00    -0.268 OA
BRANCH  24  27
HETATM   27  C   UNL     1      45.015 -12.366   8.872  1.00  0.00     0.161 C 
BRANCH  27  28
HETATM   28  C   UNL     1      44.448 -11.723  10.112  1.00  0.00    -0.041 A 
HETATM   29  C   UNL     1      44.033 -12.518  11.190  1.00  0.00     0.009 A 
HETATM   30  C   UNL     1      43.524 -11.934  12.352  1.00  0.00     0.007 A 
HETATM   31  C   UNL     1      43.414 -10.544  12.456  1.00  0.00    -0.062 A 
HETATM   32  C   UNL     1      42.915  -9.906  13.719  1.00  0.00     0.048 C 
HETATM   33  C   UNL     1      43.832  -9.748  11.383  1.00  0.00     0.007 A 
HETATM   34  C   UNL     1      44.340 -10.332  10.219  1.00  0.00     0.009 A 
ENDBRANCH  27  28
ENDBRANCH  24  27
ENDBRANCH   1  23
TORSDOF 9
ENDMDL
MODEL 6
REMARK VINA RESULT:      -8.3      5.124      9.209
REMARK  9 active torsions:
REMARK  status: ('A' for Active; 'I' for Inactive)
REMARK    1  A    between atoms: C_5  and  C_6 
REMARK    2  A    between atoms: C_6  and  N_7 
REMARK       I    between atoms: N_7  and  C_8 
REMARK    3  A    between atoms: C_8  and  C_9 
REMARK    4  A    between atoms: C_10  and  S_11 
REMARK    5  A    between atoms: S_11  and  C_12 
REMARK    6  A    between atoms: C_12  and  C_13 
REMARK       I    between atoms: C_13  and  N_14 
REMARK    7  A    between atoms: N_14  and  C_15 
REMARK    8  A    between atoms: C_16  and  O_17 
REMARK    9  A    between atoms: C_20  and  O_21 
ROOT
HETATM    1  C   UNL     1      40.860 -15.239   4.411  1.00  0.00     0.067 A 
HETATM    2  C   UNL     1      40.373 -15.252   3.102  1.00  0.00     0.109 A 
HETATM    3  N   UNL     1      39.719 -14.181   2.565  1.00  0.00    -0.253 NA
HETATM    4  C   UNL     1      39.505 -13.105   3.355  1.00  0.00     0.118 A 
HETATM    5  C   UNL     1      39.933 -13.018   4.665  1.00  0.00     0.020 A 
HETATM    6  C   UNL     1      40.624 -14.100   5.198  1.00  0.00     0.021 A 
ENDROOT
BRANCH   2   7
HETATM    7  S   UNL     1      40.518 -16.613   1.963  1.00  0.00    -0.100 SA
BRANCH   7   8
HETATM    8  C   UNL     1      41.726 -15.917   0.804  1.00  0.00     0.184 C 
BRANCH   8   9
HETATM    9  C   UNL     1      41.182 -14.903  -0.197  1.00  0.00     0.231 C 
HETATM   10  N   UNL     1      39.848 -15.050  -0.535  1.00  0.00    -0.324 N 
HETATM   11  H   UNL     1      39.314 -15.660   0.085  1.00  0.00     0.169 HD
HETATM   12  O   UNL     1      41.896 -13.951  -0.517  1.00  0.00    -0.272 OA
BRANCH  10  13
HETATM   13  C   UNL     1      39.102 -14.173  -1.355  1.00  0.00     0.068 A 
HETATM   14  C   UNL     1      39.136 -14.165  -2.762  1.00  0.00     0.097 A 
HETATM   15  C   UNL     1      38.434 -13.169  -3.463  1.00  0.00     0.075 A 
HETATM   16  C   UNL     1      37.683 -12.211  -2.778  1.00  0.00     0.070 A 
HETATM   17  C   UNL     1      37.576 -12.286  -1.391  1.00  0.00     0.039 A 
HETATM   18  C   UNL     1      38.273 -13.265  -0.686  1.00  0.00     0.035 A 
BRANCH  14  19
HETATM   19  O   UNL     1      39.757 -15.221  -3.377  1.00  0.00    -0.354 OA
HETATM   20  C   UNL     1      38.963 -16.079  -4.183  1.00  0.00     0.210 C 
ENDBRANCH  14  19
BRANCH  16  21
HETATM   21  O   UNL     1      36.977 -11.188  -3.351  1.00  0.00    -0.356 OA
HETATM   22  C   UNL     1      35.561 -11.323  -3.356  1.00  0.00     0.210 C 
ENDBRANCH  16  21
ENDBRANCH  10  13
ENDBRANCH   8   9
ENDBRANCH   7   8
ENDBRANCH   2   7
BRANCH   1  23
HETATM   23  C   UNL     1      41.596 -16.373   5.022  1.00  0.00     0.254 C 
HETATM   24  N   UNL     1      42.941 -16.430   4.722  1.00  0.00    -0.353 N 
HETATM   25  H   UNL     1      43.329 -15.845   3.994  1.00  0.00     0.163 HD
HETATM   26  O   UNL     1      41.038 -17.171   5.761  1.00  0.00    -0.268 OA
BRANCH  24  27
HETATM   27  C   UNL     1      43.783 -17.488   5.236  1.00  0.00     0.161 C 
BRANCH  27  28
HETATM   28  C   UNL     1      43.898 -18.612   4.239  1.00  0.00    -0.041 A 
HETATM   29  C   UNL     1      44.481 -19.831   4.615  1.00  0.00     0.009 A 
HETATM   30  C   UNL     1      44.577 -20.887   3.706  1.00  0.00     0.007 A 
HETATM   31  C   UNL     1      44.097 -20.742   2.400  1.00  0.00    -0.062 A 
HETATM   32  C   UNL     1      44.150 -21.887   1.432  1.00  0.00     0.048 C 
HETATM   33  C   UNL     1      43.510 -19.528   2.023  1.00  0.00     0.007 A 
HETATM   34  C   UNL     1      43.416 -18.471   2.932  1.00  0.00     0.009 A 
ENDBRANCH  27  28
ENDBRANCH  24  27
ENDBRANCH   1  23
TORSDOF 9
ENDMDL
MODEL 7
REMARK VINA RESULT:      -8.3      4.211      8.891
REMARK  9 active torsions:
REMARK  status: ('A' for Active; 'I' for Inactive)
REMARK    1  A    between atoms: C_5  and  C_6 
REMARK    2  A    between atoms: C_6  and  N_7 
REMARK       I    between atoms: N_7  and  C_8 
REMARK    3  A    between atoms: C_8  and  C_9 
REMARK    4  A    between atoms: C_10  and  S_11 
REMARK    5  A    between atoms: S_11  and  C_12 
REMARK    6  A    between atoms: C_12  and  C_13 
REMARK       I    between atoms: C_13  and  N_14 
REMARK    7  A    between atoms: N_14  and  C_15 
REMARK    8  A    between atoms: C_16  and  O_17 
REMARK    9  A    between atoms: C_20  and  O_21 
ROOT
HETATM    1  C   UNL     1      43.285 -15.702   6.436  1.00  0.00     0.067 A 
HETATM    2  C   UNL     1      42.466 -15.155   5.448  1.00  0.00     0.109 A 
HETATM    3  N   UNL     1      42.435 -13.813   5.197  1.00  0.00    -0.253 NA
HETATM    4  C   UNL     1      43.192 -13.004   5.973  1.00  0.00     0.118 A 
HETATM    5  C   UNL     1      44.012 -13.460   6.986  1.00  0.00     0.020 A 
HETATM    6  C   UNL     1      44.062 -14.829   7.217  1.00  0.00     0.021 A 
ENDROOT
BRANCH   2   7
HETATM    7  S   UNL     1      41.369 -16.077   4.391  1.00  0.00    -0.100 SA
BRANCH   7   8
HETATM    8  C   UNL     1      40.296 -14.733   3.815  1.00  0.00     0.184 C 
BRANCH   8   9
HETATM    9  C   UNL     1      39.820 -14.835   2.370  1.00  0.00     0.231 C 
HETATM   10  N   UNL     1      40.701 -14.365   1.413  1.00  0.00    -0.324 N 
HETATM   11  H   UNL     1      41.656 -14.220   1.744  1.00  0.00     0.169 HD
HETATM   12  O   UNL     1      38.778 -15.451   2.136  1.00  0.00    -0.272 OA
BRANCH  10  13
HETATM   13  C   UNL     1      40.525 -14.451   0.013  1.00  0.00     0.068 A 
HETATM   14  C   UNL     1      39.749 -13.563  -0.755  1.00  0.00     0.097 A 
HETATM   15  C   UNL     1      39.559 -13.821  -2.124  1.00  0.00     0.075 A 
HETATM   16  C   UNL     1      40.157 -14.928  -2.730  1.00  0.00     0.070 A 
HETATM   17  C   UNL     1      41.002 -15.746  -1.983  1.00  0.00     0.039 A 
HETATM   18  C   UNL     1      41.192 -15.504  -0.625  1.00  0.00     0.035 A 
BRANCH  14  19
HETATM   19  O   UNL     1      39.324 -12.414  -0.141  1.00  0.00    -0.354 OA
HETATM   20  C   UNL     1      38.639 -11.453  -0.931  1.00  0.00     0.210 C 
ENDBRANCH  14  19
BRANCH  16  21
HETATM   21  O   UNL     1      40.028 -15.288  -4.044  1.00  0.00    -0.356 OA
HETATM   22  C   UNL     1      38.957 -16.171  -4.355  1.00  0.00     0.210 C 
ENDBRANCH  16  21
ENDBRANCH  10  13
ENDBRANCH   8   9
ENDBRANCH   7   8
ENDBRANCH   2   7
BRANCH   1  23
HETATM   23  C   UNL     1      43.364 -17.156   6.722  1.00  0.00     0.254 C 
HETATM   24  N   UNL     1      44.470 -17.797   6.203  1.00  0.00    -0.353 N 
HETATM   25  H   UNL     1      45.064 -17.331   5.530  1.00  0.00     0.163 HD
HETATM   26  O   UNL     1      42.516 -17.720   7.397  1.00  0.00    -0.268 OA
BRANCH  24  27
HETATM   27  C   UNL     1      44.674 -19.217   6.389  1.00  0.00     0.161 C 
BRANCH  27  28
HETATM   28  C   UNL     1      44.511 -19.956   5.086  1.00  0.00    -0.041 A 
HETATM   29  C   UNL     1      44.090 -19.273   3.936  1.00  0.00     0.009 A 
HETATM   30  C   UNL     1      43.953 -19.942   2.718  1.00  0.00     0.007 A 
HETATM   31  C   UNL     1      44.229 -21.310   2.628  1.00  0.00    -0.062 A 
HETATM   32  C   UNL     1      44.133 -22.028   1.313  1.00  0.00     0.048 C 
HETATM   33  C   UNL     1      44.655 -21.994   3.773  1.00  0.00     0.007 A 
HETATM   34  C   UNL     1      44.789 -21.325   4.992  1.00  0.00     0.009 A 
ENDBRANCH  27  28
ENDBRANCH  24  27
ENDBRANCH   1  23
TORSDOF 9
ENDMDL
MODEL 8
REMARK VINA RESULT:      -8.3      5.135      9.066
REMARK  9 active torsions:
REMARK  status: ('A' for Active; 'I' for Inactive)
REMARK    1  A    between atoms: C_5  and  C_6 
REMARK    2  A    between atoms: C_6  and  N_7 
REMARK       I    between atoms: N_7  and  C_8 
REMARK    3  A    between atoms: C_8  and  C_9 
REMARK    4  A    between atoms: C_10  and  S_11 
REMARK    5  A    between atoms: S_11  and  C_12 
REMARK    6  A    between atoms: C_12  and  C_13 
REMARK       I    between atoms: C_13  and  N_14 
REMARK    7  A    between atoms: N_14  and  C_15 
REMARK    8  A    between atoms: C_16  and  O_17 
REMARK    9  A    between atoms: C_20  and  O_21 
ROOT
HETATM    1  C   UNL     1      40.928 -15.223   4.342  1.00  0.00     0.067 A 
HETATM    2  C   UNL     1      40.444 -15.272   3.033  1.00  0.00     0.109 A 
HETATM    3  N   UNL     1      39.826 -14.203   2.452  1.00  0.00    -0.253 NA
HETATM    4  C   UNL     1      39.646 -13.090   3.199  1.00  0.00     0.118 A 
HETATM    5  C   UNL     1      40.073 -12.965   4.505  1.00  0.00     0.020 A 
HETATM    6  C   UNL     1      40.727 -14.047   5.083  1.00  0.00     0.021 A 
ENDROOT
BRANCH   2   7
HETATM    7  S   UNL     1      40.546 -16.681   1.949  1.00  0.00    -0.100 SA
BRANCH   7   8
HETATM    8  C   UNL     1      41.875 -16.125   0.848  1.00  0.00     0.184 C 
BRANCH   8   9
HETATM    9  C   UNL     1      41.432 -15.386  -0.410  1.00  0.00     0.231 C 
HETATM   10  N   UNL     1      41.605 -14.014  -0.393  1.00  0.00    -0.324 N 
HETATM   11  H   UNL     1      42.216 -13.668   0.348  1.00  0.00     0.169 HD
HETATM   12  O   UNL     1      41.102 -16.049  -1.396  1.00  0.00    -0.272 OA
BRANCH  10  13
HETATM   13  C   UNL     1      41.368 -13.137  -1.476  1.00  0.00     0.068 A 
HETATM   14  C   UNL     1      40.105 -12.634  -1.840  1.00  0.00     0.097 A 
HETATM   15  C   UNL     1      39.983 -11.859  -3.007  1.00  0.00     0.075 A 
HETATM   16  C   UNL     1      41.104 -11.562  -3.786  1.00  0.00     0.070 A 
HETATM   17  C   UNL     1      42.363 -11.982  -3.365  1.00  0.00     0.039 A 
HETATM   18  C   UNL     1      42.495 -12.756  -2.214  1.00  0.00     0.035 A 
BRANCH  14  19
HETATM   19  O   UNL     1      39.078 -12.824  -0.953  1.00  0.00    -0.354 OA
HETATM   20  C   UNL     1      38.060 -13.749  -1.306  1.00  0.00     0.210 C 
ENDBRANCH  14  19
BRANCH  16  21
HETATM   21  O   UNL     1      41.102 -10.836  -4.947  1.00  0.00    -0.356 OA
HETATM   22  C   UNL     1      42.312 -10.162  -5.271  1.00  0.00     0.210 C 
ENDBRANCH  16  21
ENDBRANCH  10  13
ENDBRANCH   8   9
ENDBRANCH   7   8
ENDBRANCH   2   7
BRANCH   1  23
HETATM   23  C   UNL     1      41.624 -16.355   5.001  1.00  0.00     0.254 C 
HETATM   24  N   UNL     1      42.980 -16.432   4.758  1.00  0.00    -0.353 N 
HETATM   25  H   UNL     1      43.405 -15.862   4.037  1.00  0.00     0.163 HD
HETATM   26  O   UNL     1      41.027 -17.136   5.727  1.00  0.00    -0.268 OA
BRANCH  24  27
HETATM   27  C   UNL     1      43.788 -17.491   5.321  1.00  0.00     0.161 C 
BRANCH  27  28
HETATM   28  C   UNL     1      43.942 -18.626   4.342  1.00  0.00    -0.041 A 
HETATM   29  C   UNL     1      44.502 -19.843   4.756  1.00  0.00     0.009 A 
HETATM   30  C   UNL     1      44.633 -20.909   3.863  1.00  0.00     0.007 A 
HETATM   31  C   UNL     1      44.212 -20.775   2.536  1.00  0.00    -0.062 A 
HETATM   32  C   UNL     1      44.303 -21.931   1.582  1.00  0.00     0.048 C 
HETATM   33  C   UNL     1      43.649 -19.563   2.121  1.00  0.00     0.007 A 
HETATM   34  C   UNL     1      43.520 -18.496   3.013  1.00  0.00     0.009 A 
ENDBRANCH  27  28
ENDBRANCH  24  27
ENDBRANCH   1  23
TORSDOF 9
ENDMDL
MODEL 9
REMARK VINA RESULT:      -8.3      4.542      6.057
REMARK  9 active torsions:
REMARK  status: ('A' for Active; 'I' for Inactive)
REMARK    1  A    between atoms: C_5  and  C_6 
REMARK    2  A    between atoms: C_6  and  N_7 
REMARK       I    between atoms: N_7  and  C_8 
REMARK    3  A    between atoms: C_8  and  C_9 
REMARK    4  A    between atoms: C_10  and  S_11 
REMARK    5  A    between atoms: S_11  and  C_12 
REMARK    6  A    between atoms: C_12  and  C_13 
REMARK       I    between atoms: C_13  and  N_14 
REMARK    7  A    between atoms: N_14  and  C_15 
REMARK    8  A    between atoms: C_16  and  O_17 
REMARK    9  A    between atoms: C_20  and  O_21 
ROOT
HETATM    1  C   UNL     1      40.812 -14.592  -1.009  1.00  0.00     0.067 A 
HETATM    2  C   UNL     1      39.486 -14.162  -0.930  1.00  0.00     0.109 A 
HETATM    3  N   UNL     1      38.612 -14.323  -1.966  1.00  0.00    -0.253 NA
HETATM    4  C   UNL     1      39.077 -14.873  -3.111  1.00  0.00     0.118 A 
HETATM    5  C   UNL     1      40.377 -15.304  -3.282  1.00  0.00     0.020 A 
HETATM    6  C   UNL     1      41.255 -15.165  -2.213  1.00  0.00     0.021 A 
ENDROOT
BRANCH   2   7
HETATM    7  S   UNL     1      38.744 -13.365   0.479  1.00  0.00    -0.100 SA
BRANCH   7   8
HETATM    8  C   UNL     1      38.390 -14.819   1.503  1.00  0.00     0.184 C 
BRANCH   8   9
HETATM    9  C   UNL     1      39.530 -15.299   2.394  1.00  0.00     0.231 C 
HETATM   10  N   UNL     1      39.922 -14.425   3.392  1.00  0.00    -0.324 N 
HETATM   11  H   UNL     1      39.267 -13.665   3.578  1.00  0.00     0.169 HD
HETATM   12  O   UNL     1      39.918 -16.463   2.276  1.00  0.00    -0.272 OA
BRANCH  10  13
HETATM   13  C   UNL     1      40.879 -14.693   4.397  1.00  0.00     0.068 A 
HETATM   14  C   UNL     1      42.031 -13.921   4.637  1.00  0.00     0.097 A 
HETATM   15  C   UNL     1      42.965 -14.356   5.594  1.00  0.00     0.075 A 
HETATM   16  C   UNL     1      42.744 -15.526   6.325  1.00  0.00     0.070 A 
HETATM   17  C   UNL     1      41.555 -16.230   6.150  1.00  0.00     0.039 A 
HETATM   18  C   UNL     1      40.626 -15.812   5.200  1.00  0.00     0.035 A 
BRANCH  14  19
HETATM   19  O   UNL     1      42.112 -12.707   4.006  1.00  0.00    -0.354 OA
HETATM   20  C   UNL     1      41.629 -11.566   4.699  1.00  0.00     0.210 C 
ENDBRANCH  14  19
BRANCH  16  21
HETATM   21  O   UNL     1      43.589 -16.054   7.264  1.00  0.00    -0.356 OA
HETATM   22  C   UNL     1      43.118 -17.201   7.962  1.00  0.00     0.210 C 
ENDBRANCH  16  21
ENDBRANCH  10  13
ENDBRANCH   8   9
ENDBRANCH   7   8
ENDBRANCH   2   7
BRANCH   1  23
HETATM   23  C   UNL     1      41.785 -14.457   0.102  1.00  0.00     0.254 C 
HETATM   24  N   UNL     1      42.304 -15.645   0.575  1.00  0.00    -0.353 N 
HETATM   25  H   UNL     1      41.898 -16.528   0.297  1.00  0.00     0.163 HD
HETATM   26  O   UNL     1      42.112 -13.362   0.533  1.00  0.00    -0.268 OA
BRANCH  24  27
HETATM   27  C   UNL     1      43.253 -15.670   1.666  1.00  0.00     0.161 C 
BRANCH  27  28
HETATM   28  C   UNL     1      43.553 -17.087   2.082  1.00  0.00    -0.041 A 
HETATM   29  C   UNL     1      43.750 -17.398   3.435  1.00  0.00     0.009 A 
HETATM   30  C   UNL     1      44.011 -18.711   3.834  1.00  0.00     0.007 A 
HETATM   31  C   UNL     1      44.085 -19.737   2.887  1.00  0.00    -0.062 A 
HETATM   32  C   UNL     1      44.315 -21.158   3.312  1.00  0.00     0.048 C 
HETATM   33  C   UNL     1      43.885 -19.431   1.536  1.00  0.00     0.007 A 
HETATM   34  C   UNL     1      43.626 -18.117   1.136  1.00  0.00     0.009 A 
ENDBRANCH  27  28
ENDBRANCH  24  27
ENDBRANCH   1  23
TORSDOF 9
ENDMDL
MODEL 10
REMARK VINA RESULT:      -8.2      3.740     10.421
REMARK  9 active torsions:
REMARK  status: ('A' for Active; 'I' for Inactive)
REMARK    1  A    between atoms: C_5  and  C_6 
REMARK    2  A    between atoms: C_6  and  N_7 
REMARK       I    between atoms: N_7  and  C_8 
REMARK    3  A    between atoms: C_8  and  C_9 
REMARK    4  A    between atoms: C_10  and  S_11 
REMARK    5  A    between atoms: S_11  and  C_12 
REMARK    6  A    between atoms: C_12  and  C_13 
REMARK       I    between atoms: C_13  and  N_14 
REMARK    7  A    between atoms: N_14  and  C_15 
REMARK    8  A    between atoms: C_16  and  O_17 
REMARK    9  A    between atoms: C_20  and  O_21 
ROOT
HETATM    1  C   UNL     1      43.879 -15.045   6.703  1.00  0.00     0.067 A 
HETATM    2  C   UNL     1      43.100 -14.975   5.546  1.00  0.00     0.109 A 
HETATM    3  N   UNL     1      42.266 -15.990   5.174  1.00  0.00    -0.253 NA
HETATM    4  C   UNL     1      42.244 -17.106   5.938  1.00  0.00     0.118 A 
HETATM    5  C   UNL     1      42.998 -17.267   7.083  1.00  0.00     0.020 A 
HETATM    6  C   UNL     1      43.823 -16.219   7.472  1.00  0.00     0.021 A 
ENDROOT
BRANCH   2   7
HETATM    7  S   UNL     1      43.067 -13.606   4.408  1.00  0.00    -0.100 SA
BRANCH   7   8
HETATM    8  C   UNL     1      41.292 -13.557   4.038  1.00  0.00     0.184 C 
BRANCH   8   9
HETATM    9  C   UNL     1      40.921 -13.503   2.560  1.00  0.00     0.231 C 
HETATM   10  N   UNL     1      41.897 -13.934   1.680  1.00  0.00    -0.324 N 
HETATM   11  H   UNL     1      42.661 -14.456   2.110  1.00  0.00     0.169 HD
HETATM   12  O   UNL     1      39.757 -13.234   2.256  1.00  0.00    -0.272 OA
BRANCH  10  13
HETATM   13  C   UNL     1      41.745 -14.074   0.281  1.00  0.00     0.068 A 
HETATM   14  C   UNL     1      42.031 -13.069  -0.662  1.00  0.00     0.097 A 
HETATM   15  C   UNL     1      41.732 -13.292  -2.017  1.00  0.00     0.075 A 
HETATM   16  C   UNL     1      41.185 -14.507  -2.436  1.00  0.00     0.070 A 
HETATM   17  C   UNL     1      40.997 -15.530  -1.510  1.00  0.00     0.039 A 
HETATM   18  C   UNL     1      41.283 -15.319  -0.163  1.00  0.00     0.035 A 
BRANCH  14  19
HETATM   19  O   UNL     1      42.712 -11.967  -0.213  1.00  0.00    -0.354 OA
HETATM   20  C   UNL     1      42.446 -10.722  -0.841  1.00  0.00     0.210 C 
ENDBRANCH  14  19
BRANCH  16  21
HETATM   21  O   UNL     1      40.837 -14.827  -3.721  1.00  0.00    -0.356 OA
HETATM   22  C   UNL     1      39.553 -15.413  -3.899  1.00  0.00     0.210 C 
ENDBRANCH  16  21
ENDBRANCH  10  13
ENDBRANCH   8   9
ENDBRANCH   7   8
ENDBRANCH   2   7
BRANCH   1  23
HETATM   23  C   UNL     1      44.779 -13.955   7.152  1.00  0.00     0.254 C 
HETATM   24  N   UNL     1      44.387 -13.308   8.306  1.00  0.00    -0.353 N 
HETATM   25  H   UNL     1      43.463 -13.459   8.690  1.00  0.00     0.163 HD
HETATM   26  O   UNL     1      45.804 -13.684   6.545  1.00  0.00    -0.268 OA
BRANCH  24  27
HETATM   27  C   UNL     1      45.158 -12.215   8.856  1.00  0.00     0.161 C 
BRANCH  27  28
HETATM   28  C   UNL     1      44.529 -11.702  10.125  1.00  0.00    -0.041 A 
HETATM   29  C   UNL     1      44.261 -10.334  10.276  1.00  0.00     0.009 A 
HETATM   30  C   UNL     1      43.661  -9.848  11.439  1.00  0.00     0.007 A 
HETATM   31  C   UNL     1      43.323 -10.721  12.479  1.00  0.00    -0.062 A 
HETATM   32  C   UNL     1      42.633 -10.215  13.712  1.00  0.00     0.048 C 
HETATM   33  C   UNL     1      43.585 -12.087  12.330  1.00  0.00     0.007 A 
HETATM   34  C   UNL     1      44.187 -12.574  11.167  1.00  0.00     0.009 A 
ENDBRANCH  27  28
ENDBRANCH  24  27
ENDBRANCH   1  23
TORSDOF 9
ENDMDL
