MODEL 1
REMARK VINA RESULT:      -9.4      0.000      0.000
REMARK  9 active torsions:
REMARK  status: ('A' for Active; 'I' for Inactive)
REMARK    1  A    between atoms: C_2  and  O_3 
REMARK    2  A    between atoms: O_3  and  C_4 
REMARK    3  A    between atoms: C_4  and  C_5 
REMARK    4  A    between atoms: C_8  and  N_9 
REMARK       I    between atoms: N_9  and  C_10 
REMARK    5  A    between atoms: C_10  and  C_11 
REMARK    6  A    between atoms: C_11  and  C_12 
REMARK    7  A    between atoms: N_13  and  C_14 
REMARK    8  A    between atoms: C_14  and  C_15 
REMARK    9  A    between atoms: N_23  and  C_24 
ROOT
HETATM    1  C   UNL     1      43.019 -15.572   4.861  1.00  0.00     0.191 C 
HETATM    2  N   UNL     1      43.428 -16.460   5.933  1.00  0.00    -0.315 N 
HETATM    3  C   UNL     1      43.830 -15.722   7.048  1.00  0.00     0.333 C 
HETATM    4  O   UNL     1      43.877 -16.206   8.169  1.00  0.00    -0.246 OA
HETATM    5  N   UNL     1      44.143 -14.444   6.624  1.00  0.00    -0.232 N 
HETATM    6  C   UNL     1      43.813 -14.335   5.287  1.00  0.00     0.256 C 
HETATM    7  O   UNL     1      44.029 -13.414   4.509  1.00  0.00    -0.270 OA
ENDROOT
BRANCH   1   8
HETATM    8  C   UNL     1      41.519 -15.291   4.921  1.00  0.00     0.138 C 
BRANCH   8   9
HETATM    9  C   UNL     1      40.932 -14.999   3.556  1.00  0.00     0.224 C 
HETATM   10  N   UNL     1      41.870 -15.016   2.537  1.00  0.00    -0.327 N 
HETATM   11  H   UNL     1      42.843 -15.117   2.793  1.00  0.00     0.169 HD
HETATM   12  O   UNL     1      39.729 -14.807   3.430  1.00  0.00    -0.273 OA
BRANCH  10  13
HETATM   13  C   UNL     1      41.614 -14.980   1.146  1.00  0.00     0.034 A 
HETATM   14  C   UNL     1      41.344 -13.813   0.429  1.00  0.00     0.030 A 
HETATM   15  C   UNL     1      41.052 -13.863  -0.942  1.00  0.00     0.020 A 
HETATM   16  C   UNL     1      41.031 -15.088  -1.617  1.00  0.00     0.039 A 
HETATM   17  C   UNL     1      41.312 -16.259  -0.905  1.00  0.00     0.020 A 
HETATM   18  C   UNL     1      41.598 -16.206   0.465  1.00  0.00     0.030 A 
BRANCH  16  19
HETATM   19  C   UNL     1      40.729 -15.199  -3.071  1.00  0.00     0.293 C 
HETATM   20  O   UNL     1      41.164 -14.422  -3.906  1.00  0.00    -0.259 OA
BRANCH  19  21
HETATM   21  O   UNL     1      39.935 -16.271  -3.314  1.00  0.00    -0.318 OA
BRANCH  21  22
HETATM   22  C   UNL     1      38.893 -16.072  -4.281  1.00  0.00     0.174 C 
HETATM   23  C   UNL     1      37.720 -15.334  -3.662  1.00  0.00     0.034 C 
ENDBRANCH  21  22
ENDBRANCH  19  21
ENDBRANCH  16  19
ENDBRANCH  10  13
ENDBRANCH   8   9
ENDBRANCH   1   8
BRANCH   2  24
HETATM   24  C   UNL     1      42.985 -17.842   6.017  1.00  0.00     0.168 C 
BRANCH  24  25
HETATM   25  C   UNL     1      43.540 -18.769   4.966  1.00  0.00    -0.023 A 
HETATM   26  C   UNL     1      44.533 -19.680   5.323  1.00  0.00     0.125 A 
HETATM   27  N   UNL     1      45.108 -20.564   4.476  1.00  0.00    -0.273 NA
HETATM   28  C   UNL     1      44.684 -20.537   3.195  1.00  0.00     0.116 A 
HETATM   29  C   UNL     1      43.693 -19.688   2.734  1.00  0.00     0.020 A 
HETATM   30  C   UNL     1      43.103 -18.806   3.637  1.00  0.00     0.012 A 
ENDBRANCH  24  25
ENDBRANCH   2  24
BRANCH   5  31
HETATM   31  C   UNL     1      44.773 -13.437   7.423  1.00  0.00     0.047 A 
HETATM   32  C   UNL     1      44.071 -12.737   8.423  1.00  0.00     0.037 A 
HETATM   33  C   UNL     1      44.685 -11.766   9.235  1.00  0.00    -0.060 A 
HETATM   34  C   UNL     1      43.890 -11.021  10.268  1.00  0.00     0.048 C 
HETATM   35  C   UNL     1      46.032 -11.466   9.040  1.00  0.00     0.007 A 
HETATM   36  C   UNL     1      46.751 -12.136   8.057  1.00  0.00     0.003 A 
HETATM   37  C   UNL     1      46.129 -13.104   7.260  1.00  0.00     0.030 A 
ENDBRANCH   5  31
TORSDOF 9
ENDMDL
MODEL 2
REMARK VINA RESULT:      -8.6      2.351      9.259
REMARK  9 active torsions:
REMARK  status: ('A' for Active; 'I' for Inactive)
REMARK    1  A    between atoms: C_2  and  O_3 
REMARK    2  A    between atoms: O_3  and  C_4 
REMARK    3  A    between atoms: C_4  and  C_5 
REMARK    4  A    between atoms: C_8  and  N_9 
REMARK       I    between atoms: N_9  and  C_10 
REMARK    5  A    between atoms: C_10  and  C_11 
REMARK    6  A    between atoms: C_11  and  C_12 
REMARK    7  A    between atoms: N_13  and  C_14 
REMARK    8  A    between atoms: C_14  and  C_15 
REMARK    9  A    between atoms: N_23  and  C_24 
ROOT
HETATM    1  C   UNL     1      42.126 -14.704   2.062  1.00  0.00     0.191 C 
HETATM    2  N   UNL     1      41.503 -15.577   1.084  1.00  0.00    -0.315 N 
HETATM    3  C   UNL     1      41.645 -16.913   1.463  1.00  0.00     0.333 C 
HETATM    4  O   UNL     1      40.927 -17.797   1.022  1.00  0.00    -0.246 OA
HETATM    5  N   UNL     1      42.694 -16.992   2.360  1.00  0.00    -0.232 N 
HETATM    6  C   UNL     1      43.120 -15.710   2.648  1.00  0.00     0.256 C 
HETATM    7  O   UNL     1      44.087 -15.345   3.305  1.00  0.00    -0.270 OA
ENDROOT
BRANCH   1   8
HETATM    8  C   UNL     1      41.122 -14.263   3.125  1.00  0.00     0.138 C 
BRANCH   8   9
HETATM    9  C   UNL     1      41.725 -13.295   4.120  1.00  0.00     0.224 C 
HETATM   10  N   UNL     1      42.065 -13.884   5.326  1.00  0.00    -0.327 N 
HETATM   11  H   UNL     1      41.799 -14.849   5.472  1.00  0.00     0.169 HD
HETATM   12  O   UNL     1      41.899 -12.122   3.812  1.00  0.00    -0.273 OA
BRANCH  10  13
HETATM   13  C   UNL     1      42.820 -13.304   6.373  1.00  0.00     0.034 A 
HETATM   14  C   UNL     1      42.445 -12.149   7.062  1.00  0.00     0.030 A 
HETATM   15  C   UNL     1      43.270 -11.605   8.058  1.00  0.00     0.020 A 
HETATM   16  C   UNL     1      44.487 -12.217   8.380  1.00  0.00     0.039 A 
HETATM   17  C   UNL     1      44.862 -13.380   7.698  1.00  0.00     0.020 A 
HETATM   18  C   UNL     1      44.037 -13.917   6.702  1.00  0.00     0.030 A 
BRANCH  16  19
HETATM   19  C   UNL     1      45.401 -11.684   9.427  1.00  0.00     0.293 C 
HETATM   20  O   UNL     1      46.034 -10.648   9.298  1.00  0.00    -0.259 OA
BRANCH  19  21
HETATM   21  O   UNL     1      45.406 -12.493  10.514  1.00  0.00    -0.318 OA
BRANCH  21  22
HETATM   22  C   UNL     1      44.253 -12.406  11.365  1.00  0.00     0.174 C 
HETATM   23  C   UNL     1      43.925 -10.958  11.679  1.00  0.00     0.034 C 
ENDBRANCH  21  22
ENDBRANCH  19  21
ENDBRANCH  16  19
ENDBRANCH  10  13
ENDBRANCH   8   9
ENDBRANCH   1   8
BRANCH   2  24
HETATM   24  C   UNL     1      40.462 -15.119   0.177  1.00  0.00     0.168 C 
BRANCH  24  25
HETATM   25  C   UNL     1      40.947 -14.521  -1.120  1.00  0.00    -0.023 A 
HETATM   26  C   UNL     1      40.697 -15.200  -2.312  1.00  0.00     0.125 A 
HETATM   27  N   UNL     1      41.076 -14.768  -3.537  1.00  0.00    -0.273 NA
HETATM   28  C   UNL     1      41.752 -13.601  -3.585  1.00  0.00     0.116 A 
HETATM   29  C   UNL     1      42.039 -12.837  -2.468  1.00  0.00     0.020 A 
HETATM   30  C   UNL     1      41.615 -13.297  -1.223  1.00  0.00     0.012 A 
ENDBRANCH  24  25
ENDBRANCH   2  24
BRANCH   5  31
HETATM   31  C   UNL     1      43.283 -18.206   2.841  1.00  0.00     0.047 A 
HETATM   32  C   UNL     1      43.458 -19.326   2.008  1.00  0.00     0.037 A 
HETATM   33  C   UNL     1      44.062 -20.515   2.460  1.00  0.00    -0.060 A 
HETATM   34  C   UNL     1      44.200 -21.697   1.546  1.00  0.00     0.048 C 
HETATM   35  C   UNL     1      44.489 -20.601   3.783  1.00  0.00     0.007 A 
HETATM   36  C   UNL     1      44.324 -19.514   4.633  1.00  0.00     0.003 A 
HETATM   37  C   UNL     1      43.727 -18.336   4.168  1.00  0.00     0.030 A 
ENDBRANCH   5  31
TORSDOF 9
ENDMDL
MODEL 3
REMARK VINA RESULT:      -8.1      2.699      6.154
REMARK  9 active torsions:
REMARK  status: ('A' for Active; 'I' for Inactive)
REMARK    1  A    between atoms: C_2  and  O_3 
REMARK    2  A    between atoms: O_3  and  C_4 
REMARK    3  A    between atoms: C_4  and  C_5 
REMARK    4  A    between atoms: C_8  and  N_9 
REMARK       I    between atoms: N_9  and  C_10 
REMARK    5  A    between atoms: C_10  and  C_11 
REMARK    6  A    between atoms: C_11  and  C_12 
REMARK    7  A    between atoms: N_13  and  C_14 
REMARK    8  A    between atoms: C_14  and  C_15 
REMARK    9  A    between atoms: N_23  and  C_24 
ROOT
HETATM    1  C   UNL     1      42.170 -15.653   3.620  1.00  0.00     0.191 C 
HETATM    2  N   UNL     1      42.658 -15.628   4.986  1.00  0.00    -0.315 N 
HETATM    3  C   UNL     1      43.490 -16.723   5.225  1.00  0.00     0.333 C 
HETATM    4  O   UNL     1      44.291 -16.746   6.147  1.00  0.00    -0.246 OA
HETATM    5  N   UNL     1      43.213 -17.686   4.272  1.00  0.00    -0.232 N 
HETATM    6  C   UNL     1      42.319 -17.155   3.362  1.00  0.00     0.256 C 
HETATM    7  O   UNL     1      41.738 -17.707   2.436  1.00  0.00    -0.270 OA
ENDROOT
BRANCH   1   8
HETATM    8  C   UNL     1      43.087 -14.858   2.692  1.00  0.00     0.138 C 
BRANCH   8   9
HETATM    9  C   UNL     1      42.326 -14.177   1.575  1.00  0.00     0.224 C 
HETATM   10  N   UNL     1      41.574 -15.049   0.807  1.00  0.00    -0.327 N 
HETATM   11  H   UNL     1      41.672 -16.040   0.986  1.00  0.00     0.169 HD
HETATM   12  O   UNL     1      42.388 -12.961   1.439  1.00  0.00    -0.273 OA
BRANCH  10  13
HETATM   13  C   UNL     1      40.610 -14.707  -0.171  1.00  0.00     0.034 A 
HETATM   14  C   UNL     1      39.390 -14.090   0.114  1.00  0.00     0.030 A 
HETATM   15  C   UNL     1      38.463 -13.825  -0.905  1.00  0.00     0.020 A 
HETATM   16  C   UNL     1      38.749 -14.172  -2.230  1.00  0.00     0.039 A 
HETATM   17  C   UNL     1      39.975 -14.781  -2.521  1.00  0.00     0.020 A 
HETATM   18  C   UNL     1      40.895 -15.048  -1.500  1.00  0.00     0.030 A 
BRANCH  16  19
HETATM   19  C   UNL     1      37.803 -13.913  -3.350  1.00  0.00     0.293 C 
HETATM   20  O   UNL     1      37.091 -14.777  -3.837  1.00  0.00    -0.259 OA
BRANCH  19  21
HETATM   21  O   UNL     1      37.844 -12.610  -3.719  1.00  0.00    -0.318 OA
BRANCH  21  22
HETATM   22  C   UNL     1      36.575 -11.946  -3.815  1.00  0.00     0.174 C 
HETATM   23  C   UNL     1      36.207 -11.295  -2.494  1.00  0.00     0.034 C 
ENDBRANCH  21  22
ENDBRANCH  19  21
ENDBRANCH  16  19
ENDBRANCH  10  13
ENDBRANCH   8   9
ENDBRANCH   1   8
BRANCH   2  24
HETATM   24  C   UNL     1      42.708 -14.409   5.777  1.00  0.00     0.168 C 
BRANCH  24  25
HETATM   25  C   UNL     1      41.540 -13.472   5.602  1.00  0.00    -0.023 A 
HETATM   26  C   UNL     1      41.750 -12.236   4.992  1.00  0.00     0.125 A 
HETATM   27  N   UNL     1      40.786 -11.312   4.774  1.00  0.00    -0.273 NA
HETATM   28  C   UNL     1      39.543 -11.623   5.197  1.00  0.00     0.116 A 
HETATM   29  C   UNL     1      39.218 -12.826   5.798  1.00  0.00     0.020 A 
HETATM   30  C   UNL     1      40.228 -13.768   5.987  1.00  0.00     0.012 A 
ENDBRANCH  24  25
ENDBRANCH   2  24
BRANCH   5  31
HETATM   31  C   UNL     1      43.714 -19.028   4.280  1.00  0.00     0.047 A 
HETATM   32  C   UNL     1      43.910 -19.752   3.089  1.00  0.00     0.037 A 
HETATM   33  C   UNL     1      44.429 -21.060   3.079  1.00  0.00    -0.060 A 
HETATM   34  C   UNL     1      44.591 -21.808   1.788  1.00  0.00     0.048 C 
HETATM   35  C   UNL     1      44.747 -21.676   4.288  1.00  0.00     0.007 A 
HETATM   36  C   UNL     1      44.559 -20.989   5.481  1.00  0.00     0.003 A 
HETATM   37  C   UNL     1      44.047 -19.686   5.476  1.00  0.00     0.030 A 
ENDBRANCH   5  31
TORSDOF 9
ENDMDL
MODEL 4
REMARK VINA RESULT:      -8.1      3.242      6.822
REMARK  9 active torsions:
REMARK  status: ('A' for Active; 'I' for Inactive)
REMARK    1  A    between atoms: C_2  and  O_3 
REMARK    2  A    between atoms: O_3  and  C_4 
REMARK    3  A    between atoms: C_4  and  C_5 
REMARK    4  A    between atoms: C_8  and  N_9 
REMARK       I    between atoms: N_9  and  C_10 
REMARK    5  A    between atoms: C_10  and  C_11 
REMARK    6  A    between atoms: C_11  and  C_12 
REMARK    7  A    between atoms: N_13  and  C_14 
REMARK    8  A    between atoms: C_14  and  C_15 
REMARK    9  A    between atoms: N_23  and  C_24 
ROOT
HETATM    1  C   UNL     1      40.378 -14.826   2.040  1.00  0.00     0.191 C 
HETATM    2  N   UNL     1      41.356 -14.223   2.925  1.00  0.00    -0.315 N 
HETATM    3  C   UNL     1      42.452 -15.073   3.091  1.00  0.00     0.333 C 
HETATM    4  O   UNL     1      43.537 -14.671   3.481  1.00  0.00    -0.246 OA
HETATM    5  N   UNL     1      42.053 -16.353   2.753  1.00  0.00    -0.232 N 
HETATM    6  C   UNL     1      40.767 -16.291   2.250  1.00  0.00     0.256 C 
HETATM    7  O   UNL     1      40.012 -17.205   1.942  1.00  0.00    -0.270 OA
ENDROOT
BRANCH   1   8
HETATM    8  C   UNL     1      40.618 -14.412   0.590  1.00  0.00     0.138 C 
BRANCH   8   9
HETATM    9  C   UNL     1      39.330 -14.085  -0.137  1.00  0.00     0.224 C 
HETATM   10  N   UNL     1      39.510 -13.813  -1.483  1.00  0.00    -0.327 N 
HETATM   11  H   UNL     1      40.458 -13.757  -1.830  1.00  0.00     0.169 HD
HETATM   12  O   UNL     1      38.261 -14.109   0.461  1.00  0.00    -0.273 OA
BRANCH  10  13
HETATM   13  C   UNL     1      38.500 -13.672  -2.464  1.00  0.00     0.034 A 
HETATM   14  C   UNL     1      37.934 -12.451  -2.835  1.00  0.00     0.030 A 
HETATM   15  C   UNL     1      36.901 -12.395  -3.783  1.00  0.00     0.020 A 
HETATM   16  C   UNL     1      36.423 -13.568  -4.377  1.00  0.00     0.039 A 
HETATM   17  C   UNL     1      36.994 -14.793  -4.016  1.00  0.00     0.020 A 
HETATM   18  C   UNL     1      38.022 -14.844  -3.065  1.00  0.00     0.030 A 
BRANCH  16  19
HETATM   19  C   UNL     1      35.330 -13.568  -5.388  1.00  0.00     0.293 C 
HETATM   20  O   UNL     1      34.923 -14.581  -5.934  1.00  0.00    -0.259 OA
BRANCH  19  21
HETATM   21  O   UNL     1      34.864 -12.310  -5.588  1.00  0.00    -0.318 OA
BRANCH  21  22
HETATM   22  C   UNL     1      33.438 -12.155  -5.529  1.00  0.00     0.174 C 
HETATM   23  C   UNL     1      32.943 -12.278  -4.100  1.00  0.00     0.034 C 
ENDBRANCH  21  22
ENDBRANCH  19  21
ENDBRANCH  16  19
ENDBRANCH  10  13
ENDBRANCH   8   9
ENDBRANCH   1   8
BRANCH   2  24
HETATM   24  C   UNL     1      41.428 -12.788   3.152  1.00  0.00     0.168 C 
BRANCH  24  25
HETATM   25  C   UNL     1      40.856 -12.307   4.462  1.00  0.00    -0.023 A 
HETATM   26  C   UNL     1      39.472 -12.293   4.631  1.00  0.00     0.125 A 
HETATM   27  N   UNL     1      38.838 -11.889   5.756  1.00  0.00    -0.273 NA
HETATM   28  C   UNL     1      39.619 -11.463   6.770  1.00  0.00     0.116 A 
HETATM   29  C   UNL     1      41.002 -11.452   6.719  1.00  0.00     0.020 A 
HETATM   30  C   UNL     1      41.626 -11.896   5.554  1.00  0.00     0.012 A 
ENDBRANCH  24  25
ENDBRANCH   2  24
BRANCH   5  31
HETATM   31  C   UNL     1      42.821 -17.543   2.964  1.00  0.00     0.047 A 
HETATM   32  C   UNL     1      43.099 -18.026   4.256  1.00  0.00     0.037 A 
HETATM   33  C   UNL     1      43.827 -19.210   4.478  1.00  0.00    -0.060 A 
HETATM   34  C   UNL     1      44.128 -19.671   5.874  1.00  0.00     0.048 C 
HETATM   35  C   UNL     1      44.309 -19.928   3.385  1.00  0.00     0.007 A 
HETATM   36  C   UNL     1      44.056 -19.473   2.097  1.00  0.00     0.003 A 
HETATM   37  C   UNL     1      43.326 -18.296   1.891  1.00  0.00     0.030 A 
ENDBRANCH   5  31
TORSDOF 9
ENDMDL
MODEL 5
REMARK VINA RESULT:      -8.1      3.008      9.282
REMARK  9 active torsions:
REMARK  status: ('A' for Active; 'I' for Inactive)
REMARK    1  A    between atoms: C_2  and  O_3 
REMARK    2  A    between atoms: O_3  and  C_4 
REMARK    3  A    between atoms: C_4  and  C_5 
REMARK    4  A    between atoms: C_8  and  N_9 
REMARK       I    between atoms: N_9  and  C_10 
REMARK    5  A    between atoms: C_10  and  C_11 
REMARK    6  A    between atoms: C_11  and  C_12 
REMARK    7  A    between atoms: N_13  and  C_14 
REMARK    8  A    between atoms: C_14  and  C_15 
REMARK    9  A    between atoms: N_23  and  C_24 
ROOT
HETATM    1  C   UNL     1      41.484 -14.902   2.897  1.00  0.00     0.191 C 
HETATM    2  N   UNL     1      41.231 -15.578   1.639  1.00  0.00    -0.315 N 
HETATM    3  C   UNL     1      41.567 -16.930   1.737  1.00  0.00     0.333 C 
HETATM    4  O   UNL     1      41.129 -17.769   0.965  1.00  0.00    -0.246 OA
HETATM    5  N   UNL     1      42.435 -17.077   2.802  1.00  0.00    -0.232 N 
HETATM    6  C   UNL     1      42.539 -15.862   3.453  1.00  0.00     0.256 C 
HETATM    7  O   UNL     1      43.281 -15.536   4.370  1.00  0.00    -0.270 OA
ENDROOT
BRANCH   1   8
HETATM    8  C   UNL     1      40.240 -14.903   3.783  1.00  0.00     0.138 C 
BRANCH   8   9
HETATM    9  C   UNL     1      40.515 -14.346   5.164  1.00  0.00     0.224 C 
HETATM   10  N   UNL     1      40.663 -12.969   5.184  1.00  0.00    -0.327 N 
HETATM   11  H   UNL     1      40.676 -12.483   4.296  1.00  0.00     0.169 HD
HETATM   12  O   UNL     1      40.557 -15.093   6.133  1.00  0.00    -0.273 OA
BRANCH  10  13
HETATM   13  C   UNL     1      40.728 -12.137   6.326  1.00  0.00     0.034 A 
HETATM   14  C   UNL     1      41.887 -11.493   6.761  1.00  0.00     0.030 A 
HETATM   15  C   UNL     1      41.884 -10.721   7.933  1.00  0.00     0.020 A 
HETATM   16  C   UNL     1      40.713 -10.582   8.686  1.00  0.00     0.039 A 
HETATM   17  C   UNL     1      39.546 -11.218   8.248  1.00  0.00     0.020 A 
HETATM   18  C   UNL     1      39.555 -11.991   7.080  1.00  0.00     0.030 A 
BRANCH  16  19
HETATM   19  C   UNL     1      40.653  -9.776   9.936  1.00  0.00     0.293 C 
HETATM   20  O   UNL     1      39.616  -9.556  10.541  1.00  0.00    -0.259 OA
BRANCH  19  21
HETATM   21  O   UNL     1      41.891  -9.353  10.292  1.00  0.00    -0.318 OA
BRANCH  21  22
HETATM   22  C   UNL     1      42.273  -9.611  11.652  1.00  0.00     0.174 C 
HETATM   23  C   UNL     1      43.716 -10.074  11.726  1.00  0.00     0.034 C 
ENDBRANCH  21  22
ENDBRANCH  19  21
ENDBRANCH  16  19
ENDBRANCH  10  13
ENDBRANCH   8   9
ENDBRANCH   1   8
BRANCH   2  24
HETATM   24  C   UNL     1      40.298 -15.065   0.648  1.00  0.00     0.168 C 
BRANCH  24  25
HETATM   25  C   UNL     1      40.917 -14.580  -0.638  1.00  0.00    -0.023 A 
HETATM   26  C   UNL     1      41.720 -13.440  -0.615  1.00  0.00     0.125 A 
HETATM   27  N   UNL     1      42.333 -12.908  -1.697  1.00  0.00    -0.273 NA
HETATM   28  C   UNL     1      42.131 -13.534  -2.875  1.00  0.00     0.116 A 
HETATM   29  C   UNL     1      41.369 -14.680  -3.012  1.00  0.00     0.020 A 
HETATM   30  C   UNL     1      40.769 -15.218  -1.874  1.00  0.00     0.012 A 
ENDBRANCH  24  25
ENDBRANCH   2  24
BRANCH   5  31
HETATM   31  C   UNL     1      43.158 -18.271   3.123  1.00  0.00     0.047 A 
HETATM   32  C   UNL     1      43.243 -19.350   2.223  1.00  0.00     0.037 A 
HETATM   33  C   UNL     1      43.975 -20.517   2.514  1.00  0.00    -0.060 A 
HETATM   34  C   UNL     1      44.011 -21.657   1.538  1.00  0.00     0.048 C 
HETATM   35  C   UNL     1      44.629 -20.624   3.739  1.00  0.00     0.007 A 
HETATM   36  C   UNL     1      44.559 -19.578   4.651  1.00  0.00     0.003 A 
HETATM   37  C   UNL     1      43.832 -18.420   4.347  1.00  0.00     0.030 A 
ENDBRANCH   5  31
TORSDOF 9
ENDMDL
MODEL 6
REMARK VINA RESULT:      -7.9      3.772      7.073
REMARK  9 active torsions:
REMARK  status: ('A' for Active; 'I' for Inactive)
REMARK    1  A    between atoms: C_2  and  O_3 
REMARK    2  A    between atoms: O_3  and  C_4 
REMARK    3  A    between atoms: C_4  and  C_5 
REMARK    4  A    between atoms: C_8  and  N_9 
REMARK       I    between atoms: N_9  and  C_10 
REMARK    5  A    between atoms: C_10  and  C_11 
REMARK    6  A    between atoms: C_11  and  C_12 
REMARK    7  A    between atoms: N_13  and  C_14 
REMARK    8  A    between atoms: C_14  and  C_15 
REMARK    9  A    between atoms: N_23  and  C_24 
ROOT
HETATM    1  C   UNL     1      40.634 -14.968   1.956  1.00  0.00     0.191 C 
HETATM    2  N   UNL     1      41.697 -14.298   2.682  1.00  0.00    -0.315 N 
HETATM    3  C   UNL     1      42.755 -15.177   2.918  1.00  0.00     0.333 C 
HETATM    4  O   UNL     1      43.882 -14.787   3.181  1.00  0.00    -0.246 OA
HETATM    5  N   UNL     1      42.270 -16.467   2.805  1.00  0.00    -0.232 N 
HETATM    6  C   UNL     1      40.960 -16.405   2.370  1.00  0.00     0.256 C 
HETATM    7  O   UNL     1      40.141 -17.307   2.249  1.00  0.00    -0.270 OA
ENDROOT
BRANCH   1   8
HETATM    8  C   UNL     1      40.803 -14.794   0.448  1.00  0.00     0.138 C 
BRANCH   8   9
HETATM    9  C   UNL     1      39.534 -14.311  -0.222  1.00  0.00     0.224 C 
HETATM   10  N   UNL     1      39.656 -14.164  -1.594  1.00  0.00    -0.327 N 
HETATM   11  H   UNL     1      40.573 -14.288  -2.002  1.00  0.00     0.169 HD
HETATM   12  O   UNL     1      38.522 -14.119   0.440  1.00  0.00    -0.273 OA
BRANCH  10  13
HETATM   13  C   UNL     1      38.613 -13.926  -2.519  1.00  0.00     0.034 A 
HETATM   14  C   UNL     1      37.995 -12.688  -2.702  1.00  0.00     0.030 A 
HETATM   15  C   UNL     1      36.932 -12.541  -3.606  1.00  0.00     0.020 A 
HETATM   16  C   UNL     1      36.475 -13.637  -4.346  1.00  0.00     0.039 A 
HETATM   17  C   UNL     1      37.099 -14.878  -4.173  1.00  0.00     0.020 A 
HETATM   18  C   UNL     1      38.156 -15.021  -3.266  1.00  0.00     0.030 A 
BRANCH  16  19
HETATM   19  C   UNL     1      35.353 -13.537  -5.319  1.00  0.00     0.293 C 
HETATM   20  O   UNL     1      34.850 -14.508  -5.861  1.00  0.00    -0.259 OA
BRANCH  19  21
HETATM   21  O   UNL     1      34.981 -12.245  -5.488  1.00  0.00    -0.318 OA
BRANCH  21  22
HETATM   22  C   UNL     1      33.569 -11.989  -5.442  1.00  0.00     0.174 C 
HETATM   23  C   UNL     1      32.997 -12.374  -4.090  1.00  0.00     0.034 C 
ENDBRANCH  21  22
ENDBRANCH  19  21
ENDBRANCH  16  19
ENDBRANCH  10  13
ENDBRANCH   8   9
ENDBRANCH   1   8
BRANCH   2  24
HETATM   24  C   UNL     1      41.855 -12.852   2.679  1.00  0.00     0.168 C 
BRANCH  24  25
HETATM   25  C   UNL     1      40.612 -12.060   2.996  1.00  0.00    -0.023 A 
HETATM   26  C   UNL     1      40.100 -12.095   4.292  1.00  0.00     0.125 A 
HETATM   27  N   UNL     1      38.997 -11.428   4.703  1.00  0.00    -0.273 NA
HETATM   28  C   UNL     1      38.355 -10.691   3.772  1.00  0.00     0.116 A 
HETATM   29  C   UNL     1      38.784 -10.571   2.462  1.00  0.00     0.020 A 
HETATM   30  C   UNL     1      39.937 -11.251   2.076  1.00  0.00     0.012 A 
ENDBRANCH  24  25
ENDBRANCH   2  24
BRANCH   5  31
HETATM   31  C   UNL     1      42.988 -17.655   3.156  1.00  0.00     0.047 A 
HETATM   32  C   UNL     1      43.060 -18.761   2.288  1.00  0.00     0.037 A 
HETATM   33  C   UNL     1      43.786 -19.924   2.607  1.00  0.00    -0.060 A 
HETATM   34  C   UNL     1      43.810 -21.092   1.665  1.00  0.00     0.048 C 
HETATM   35  C   UNL     1      44.446 -20.000   3.831  1.00  0.00     0.007 A 
HETATM   36  C   UNL     1      44.389 -18.927   4.713  1.00  0.00     0.003 A 
HETATM   37  C   UNL     1      43.667 -17.774   4.380  1.00  0.00     0.030 A 
ENDBRANCH   5  31
TORSDOF 9
ENDMDL
MODEL 7
REMARK VINA RESULT:      -7.8      3.675      7.336
REMARK  9 active torsions:
REMARK  status: ('A' for Active; 'I' for Inactive)
REMARK    1  A    between atoms: C_2  and  O_3 
REMARK    2  A    between atoms: O_3  and  C_4 
REMARK    3  A    between atoms: C_4  and  C_5 
REMARK    4  A    between atoms: C_8  and  N_9 
REMARK       I    between atoms: N_9  and  C_10 
REMARK    5  A    between atoms: C_10  and  C_11 
REMARK    6  A    between atoms: C_11  and  C_12 
REMARK    7  A    between atoms: N_13  and  C_14 
REMARK    8  A    between atoms: C_14  and  C_15 
REMARK    9  A    between atoms: N_23  and  C_24 
ROOT
HETATM    1  C   UNL     1      41.045 -15.763   0.987  1.00  0.00     0.191 C 
HETATM    2  N   UNL     1      41.936 -15.058   1.889  1.00  0.00    -0.315 N 
HETATM    3  C   UNL     1      42.934 -15.914   2.356  1.00  0.00     0.333 C 
HETATM    4  O   UNL     1      43.983 -15.501   2.826  1.00  0.00    -0.246 OA
HETATM    5  N   UNL     1      42.494 -17.214   2.187  1.00  0.00    -0.232 N 
HETATM    6  C   UNL     1      41.296 -17.183   1.499  1.00  0.00     0.256 C 
HETATM    7  O   UNL     1      40.526 -18.101   1.244  1.00  0.00    -0.270 OA
ENDROOT
BRANCH   1   8
HETATM    8  C   UNL     1      41.508 -15.626  -0.462  1.00  0.00     0.138 C 
BRANCH   8   9
HETATM    9  C   UNL     1      41.190 -14.265  -1.043  1.00  0.00     0.224 C 
HETATM   10  N   UNL     1      42.283 -13.644  -1.625  1.00  0.00    -0.327 N 
HETATM   11  H   UNL     1      43.186 -14.089  -1.526  1.00  0.00     0.169 HD
HETATM   12  O   UNL     1      40.047 -13.828  -0.999  1.00  0.00    -0.273 OA
BRANCH  10  13
HETATM   13  C   UNL     1      42.272 -12.474  -2.419  1.00  0.00     0.034 A 
HETATM   14  C   UNL     1      41.826 -12.428  -3.741  1.00  0.00     0.030 A 
HETATM   15  C   UNL     1      41.891 -11.238  -4.481  1.00  0.00     0.020 A 
HETATM   16  C   UNL     1      42.403 -10.071  -3.902  1.00  0.00     0.039 A 
HETATM   17  C   UNL     1      42.842 -10.110  -2.574  1.00  0.00     0.020 A 
HETATM   18  C   UNL     1      42.779 -11.302  -1.841  1.00  0.00     0.030 A 
BRANCH  16  19
HETATM   19  C   UNL     1      42.495  -8.782  -4.641  1.00  0.00     0.293 C 
HETATM   20  O   UNL     1      42.248  -7.700  -4.131  1.00  0.00    -0.259 OA
BRANCH  19  21
HETATM   21  O   UNL     1      42.897  -8.990  -5.919  1.00  0.00    -0.318 OA
BRANCH  21  22
HETATM   22  C   UNL     1      42.277  -8.160  -6.913  1.00  0.00     0.174 C 
HETATM   23  C   UNL     1      41.262  -8.951  -7.717  1.00  0.00     0.034 C 
ENDBRANCH  21  22
ENDBRANCH  19  21
ENDBRANCH  16  19
ENDBRANCH  10  13
ENDBRANCH   8   9
ENDBRANCH   1   8
BRANCH   2  24
HETATM   24  C   UNL     1      42.078 -13.610   1.876  1.00  0.00     0.168 C 
BRANCH  24  25
HETATM   25  C   UNL     1      41.206 -12.862   2.852  1.00  0.00    -0.023 A 
HETATM   26  C   UNL     1      41.774 -12.362   4.022  1.00  0.00     0.125 A 
HETATM   27  N   UNL     1      41.101 -11.672   4.972  1.00  0.00    -0.273 NA
HETATM   28  C   UNL     1      39.784 -11.476   4.757  1.00  0.00     0.116 A 
HETATM   29  C   UNL     1      39.120 -11.911   3.623  1.00  0.00     0.020 A 
HETATM   30  C   UNL     1      39.847 -12.597   2.652  1.00  0.00     0.012 A 
ENDBRANCH  24  25
ENDBRANCH   2  24
BRANCH   5  31
HETATM   31  C   UNL     1      43.139 -18.382   2.707  1.00  0.00     0.047 A 
HETATM   32  C   UNL     1      43.372 -19.518   1.909  1.00  0.00     0.037 A 
HETATM   33  C   UNL     1      44.030 -20.661   2.400  1.00  0.00    -0.060 A 
HETATM   34  C   UNL     1      44.228 -21.863   1.522  1.00  0.00     0.048 C 
HETATM   35  C   UNL     1      44.456 -20.685   3.725  1.00  0.00     0.007 A 
HETATM   36  C   UNL     1      44.236 -19.582   4.541  1.00  0.00     0.003 A 
HETATM   37  C   UNL     1      43.584 -18.449   4.038  1.00  0.00     0.030 A 
ENDBRANCH   5  31
TORSDOF 9
ENDMDL
MODEL 8
REMARK VINA RESULT:      -7.7      1.811      2.368
REMARK  9 active torsions:
REMARK  status: ('A' for Active; 'I' for Inactive)
REMARK    1  A    between atoms: C_2  and  O_3 
REMARK    2  A    between atoms: O_3  and  C_4 
REMARK    3  A    between atoms: C_4  and  C_5 
REMARK    4  A    between atoms: C_8  and  N_9 
REMARK       I    between atoms: N_9  and  C_10 
REMARK    5  A    between atoms: C_10  and  C_11 
REMARK    6  A    between atoms: C_11  and  C_12 
REMARK    7  A    between atoms: N_13  and  C_14 
REMARK    8  A    between atoms: C_14  and  C_15 
REMARK    9  A    between atoms: N_23  and  C_24 
ROOT
HETATM    1  C   UNL     1      42.843 -15.668   4.773  1.00  0.00     0.191 C 
HETATM    2  N   UNL     1      43.258 -16.573   5.829  1.00  0.00    -0.315 N 
HETATM    3  C   UNL     1      43.622 -15.855   6.970  1.00  0.00     0.333 C 
HETATM    4  O   UNL     1      43.664 -16.367   8.078  1.00  0.00    -0.246 OA
HETATM    5  N   UNL     1      43.908 -14.558   6.584  1.00  0.00    -0.232 N 
HETATM    6  C   UNL     1      43.596 -14.422   5.245  1.00  0.00     0.256 C 
HETATM    7  O   UNL     1      43.800 -13.475   4.496  1.00  0.00    -0.270 OA
ENDROOT
BRANCH   1   8
HETATM    8  C   UNL     1      41.335 -15.429   4.815  1.00  0.00     0.138 C 
BRANCH   8   9
HETATM    9  C   UNL     1      40.677 -15.663   3.472  1.00  0.00     0.224 C 
HETATM   10  N   UNL     1      40.181 -14.508   2.891  1.00  0.00    -0.327 N 
HETATM   11  H   UNL     1      40.208 -13.657   3.437  1.00  0.00     0.169 HD
HETATM   12  O   UNL     1      40.649 -16.788   2.987  1.00  0.00    -0.273 OA
BRANCH  10  13
HETATM   13  C   UNL     1      39.696 -14.361   1.570  1.00  0.00     0.034 A 
HETATM   14  C   UNL     1      40.504 -14.384   0.432  1.00  0.00     0.030 A 
HETATM   15  C   UNL     1      39.956 -14.183  -0.843  1.00  0.00     0.020 A 
HETATM   16  C   UNL     1      38.583 -13.959  -0.997  1.00  0.00     0.039 A 
HETATM   17  C   UNL     1      37.768 -13.946   0.141  1.00  0.00     0.020 A 
HETATM   18  C   UNL     1      38.320 -14.143   1.412  1.00  0.00     0.030 A 
BRANCH  16  19
HETATM   19  C   UNL     1      37.949 -13.741  -2.326  1.00  0.00     0.293 C 
HETATM   20  O   UNL     1      37.986 -14.563  -3.228  1.00  0.00    -0.259 OA
BRANCH  19  21
HETATM   21  O   UNL     1      37.331 -12.535  -2.368  1.00  0.00    -0.318 OA
BRANCH  21  22
HETATM   22  C   UNL     1      38.180 -11.405  -2.620  1.00  0.00     0.174 C 
HETATM   23  C   UNL     1      37.915 -10.299  -1.616  1.00  0.00     0.034 C 
ENDBRANCH  21  22
ENDBRANCH  19  21
ENDBRANCH  16  19
ENDBRANCH  10  13
ENDBRANCH   8   9
ENDBRANCH   1   8
BRANCH   2  24
HETATM   24  C   UNL     1      42.851 -17.968   5.869  1.00  0.00     0.168 C 
BRANCH  24  25
HETATM   25  C   UNL     1      43.544 -18.877   4.886  1.00  0.00    -0.023 A 
HETATM   26  C   UNL     1      44.420 -19.850   5.366  1.00  0.00     0.125 A 
HETATM   27  N   UNL     1      45.098 -20.726   4.589  1.00  0.00    -0.273 NA
HETATM   28  C   UNL     1      44.908 -20.625   3.257  1.00  0.00     0.116 A 
HETATM   29  C   UNL     1      44.050 -19.711   2.673  1.00  0.00     0.020 A 
HETATM   30  C   UNL     1      43.347 -18.838   3.502  1.00  0.00     0.012 A 
ENDBRANCH  24  25
ENDBRANCH   2  24
BRANCH   5  31
HETATM   31  C   UNL     1      44.497 -13.556   7.420  1.00  0.00     0.047 A 
HETATM   32  C   UNL     1      45.855 -13.203   7.309  1.00  0.00     0.037 A 
HETATM   33  C   UNL     1      46.441 -12.200   8.104  1.00  0.00    -0.060 A 
HETATM   34  C   UNL     1      47.901 -11.878   7.973  1.00  0.00     0.048 C 
HETATM   35  C   UNL     1      45.661 -11.538   9.049  1.00  0.00     0.007 A 
HETATM   36  C   UNL     1      44.318 -11.868   9.187  1.00  0.00     0.003 A 
HETATM   37  C   UNL     1      43.747 -12.865   8.386  1.00  0.00     0.030 A 
ENDBRANCH   5  31
TORSDOF 9
ENDMDL
MODEL 9
REMARK VINA RESULT:      -7.5      3.938      6.725
REMARK  9 active torsions:
REMARK  status: ('A' for Active; 'I' for Inactive)
REMARK    1  A    between atoms: C_2  and  O_3 
REMARK    2  A    between atoms: O_3  and  C_4 
REMARK    3  A    between atoms: C_4  and  C_5 
REMARK    4  A    between atoms: C_8  and  N_9 
REMARK       I    between atoms: N_9  and  C_10 
REMARK    5  A    between atoms: C_10  and  C_11 
REMARK    6  A    between atoms: C_11  and  C_12 
REMARK    7  A    between atoms: N_13  and  C_14 
REMARK    8  A    between atoms: C_14  and  C_15 
REMARK    9  A    between atoms: N_23  and  C_24 
ROOT
HETATM    1  C   UNL     1      40.736 -13.477   3.667  1.00  0.00     0.191 C 
HETATM    2  N   UNL     1      40.236 -13.647   5.019  1.00  0.00    -0.315 N 
HETATM    3  C   UNL     1      39.375 -12.601   5.354  1.00  0.00     0.333 C 
HETATM    4  O   UNL     1      38.565 -12.688   6.265  1.00  0.00    -0.246 OA
HETATM    5  N   UNL     1      39.636 -11.544   4.503  1.00  0.00    -0.232 N 
HETATM    6  C   UNL     1      40.551 -11.961   3.556  1.00  0.00     0.256 C 
HETATM    7  O   UNL     1      41.126 -11.308   2.694  1.00  0.00    -0.270 OA
ENDROOT
BRANCH   1   8
HETATM    8  C   UNL     1      39.847 -14.199   2.657  1.00  0.00     0.138 C 
BRANCH   8   9
HETATM    9  C   UNL     1      40.338 -15.599   2.354  1.00  0.00     0.224 C 
HETATM   10  N   UNL     1      41.696 -15.765   2.567  1.00  0.00    -0.327 N 
HETATM   11  H   UNL     1      42.241 -14.945   2.799  1.00  0.00     0.169 HD
HETATM   12  O   UNL     1      39.551 -16.464   1.990  1.00  0.00    -0.273 OA
BRANCH  10  13
HETATM   13  C   UNL     1      42.414 -16.985   2.568  1.00  0.00     0.034 A 
HETATM   14  C   UNL     1      42.125 -18.064   1.732  1.00  0.00     0.030 A 
HETATM   15  C   UNL     1      42.852 -19.261   1.825  1.00  0.00     0.020 A 
HETATM   16  C   UNL     1      43.885 -19.391   2.760  1.00  0.00     0.039 A 
HETATM   17  C   UNL     1      44.184 -18.307   3.593  1.00  0.00     0.020 A 
HETATM   18  C   UNL     1      43.453 -17.117   3.500  1.00  0.00     0.030 A 
BRANCH  16  19
HETATM   19  C   UNL     1      44.688 -20.636   2.901  1.00  0.00     0.293 C 
HETATM   20  O   UNL     1      44.675 -21.537   2.077  1.00  0.00    -0.259 OA
BRANCH  19  21
HETATM   21  O   UNL     1      45.422 -20.605   4.041  1.00  0.00    -0.318 OA
BRANCH  21  22
HETATM   22  C   UNL     1      44.769 -21.102   5.219  1.00  0.00     0.174 C 
HETATM   23  C   UNL     1      44.926 -22.608   5.325  1.00  0.00     0.034 C 
ENDBRANCH  21  22
ENDBRANCH  19  21
ENDBRANCH  16  19
ENDBRANCH  10  13
ENDBRANCH   8   9
ENDBRANCH   1   8
BRANCH   2  24
HETATM   24  C   UNL     1      40.209 -14.939   5.686  1.00  0.00     0.168 C 
BRANCH  24  25
HETATM   25  C   UNL     1      41.535 -15.426   6.214  1.00  0.00    -0.023 A 
HETATM   26  C   UNL     1      41.617 -16.707   6.758  1.00  0.00     0.125 A 
HETATM   27  N   UNL     1      42.746 -17.260   7.259  1.00  0.00    -0.273 NA
HETATM   28  C   UNL     1      43.857 -16.494   7.233  1.00  0.00     0.116 A 
HETATM   29  C   UNL     1      43.894 -15.217   6.702  1.00  0.00     0.020 A 
HETATM   30  C   UNL     1      42.721 -14.685   6.171  1.00  0.00     0.012 A 
ENDBRANCH  24  25
ENDBRANCH   2  24
BRANCH   5  31
HETATM   31  C   UNL     1      39.102 -10.222   4.636  1.00  0.00     0.047 A 
HETATM   32  C   UNL     1      39.324  -9.444   5.788  1.00  0.00     0.037 A 
HETATM   33  C   UNL     1      38.830  -8.133   5.919  1.00  0.00    -0.060 A 
HETATM   34  C   UNL     1      39.064  -7.352   7.180  1.00  0.00     0.048 C 
HETATM   35  C   UNL     1      38.079  -7.581   4.884  1.00  0.00     0.007 A 
HETATM   36  C   UNL     1      37.837  -8.326   3.736  1.00  0.00     0.003 A 
HETATM   37  C   UNL     1      38.339  -9.627   3.616  1.00  0.00     0.030 A 
ENDBRANCH   5  31
TORSDOF 9
ENDMDL
MODEL 10
REMARK VINA RESULT:      -7.5      3.605      6.839
REMARK  9 active torsions:
REMARK  status: ('A' for Active; 'I' for Inactive)
REMARK    1  A    between atoms: C_2  and  O_3 
REMARK    2  A    between atoms: O_3  and  C_4 
REMARK    3  A    between atoms: C_4  and  C_5 
REMARK    4  A    between atoms: C_8  and  N_9 
REMARK       I    between atoms: N_9  and  C_10 
REMARK    5  A    between atoms: C_10  and  C_11 
REMARK    6  A    between atoms: C_11  and  C_12 
REMARK    7  A    between atoms: N_13  and  C_14 
REMARK    8  A    between atoms: C_14  and  C_15 
REMARK    9  A    between atoms: N_23  and  C_24 
ROOT
HETATM    1  C   UNL     1      41.881 -15.606   3.701  1.00  0.00     0.191 C 
HETATM    2  N   UNL     1      42.507 -15.525   5.007  1.00  0.00    -0.315 N 
HETATM    3  C   UNL     1      43.401 -16.582   5.184  1.00  0.00     0.333 C 
HETATM    4  O   UNL     1      44.294 -16.550   6.018  1.00  0.00    -0.246 OA
HETATM    5  N   UNL     1      43.065 -17.580   4.289  1.00  0.00    -0.232 N 
HETATM    6  C   UNL     1      42.061 -17.107   3.465  1.00  0.00     0.256 C 
HETATM    7  O   UNL     1      41.410 -17.705   2.618  1.00  0.00    -0.270 OA
ENDROOT
BRANCH   1   8
HETATM    8  C   UNL     1      42.666 -14.804   2.664  1.00  0.00     0.138 C 
BRANCH   8   9
HETATM    9  C   UNL     1      41.761 -14.031   1.728  1.00  0.00     0.224 C 
HETATM   10  N   UNL     1      40.431 -14.041   2.112  1.00  0.00    -0.327 N 
HETATM   11  H   UNL     1      40.171 -14.625   2.897  1.00  0.00     0.169 HD
HETATM   12  O   UNL     1      42.230 -13.448   0.758  1.00  0.00    -0.273 OA
BRANCH  10  13
HETATM   13  C   UNL     1      39.383 -13.260   1.570  1.00  0.00     0.034 A 
HETATM   14  C   UNL     1      39.395 -11.865   1.513  1.00  0.00     0.030 A 
HETATM   15  C   UNL     1      38.296 -11.157   1.004  1.00  0.00     0.020 A 
HETATM   16  C   UNL     1      37.167 -11.841   0.539  1.00  0.00     0.039 A 
HETATM   17  C   UNL     1      37.156 -13.239   0.584  1.00  0.00     0.020 A 
HETATM   18  C   UNL     1      38.253 -13.942   1.098  1.00  0.00     0.030 A 
BRANCH  16  19
HETATM   19  C   UNL     1      35.975 -11.140  -0.012  1.00  0.00     0.293 C 
HETATM   20  O   UNL     1      36.018 -10.418  -0.995  1.00  0.00    -0.259 OA
BRANCH  19  21
HETATM   21  O   UNL     1      34.869 -11.435   0.715  1.00  0.00    -0.318 OA
BRANCH  21  22
HETATM   22  C   UNL     1      34.075 -10.312   1.129  1.00  0.00     0.174 C 
HETATM   23  C   UNL     1      34.833  -9.458   2.129  1.00  0.00     0.034 C 
ENDBRANCH  21  22
ENDBRANCH  19  21
ENDBRANCH  16  19
ENDBRANCH  10  13
ENDBRANCH   8   9
ENDBRANCH   1   8
BRANCH   2  24
HETATM   24  C   UNL     1      42.591 -14.283   5.760  1.00  0.00     0.168 C 
BRANCH  24  25
HETATM   25  C   UNL     1      41.427 -13.341   5.592  1.00  0.00    -0.023 A 
HETATM   26  C   UNL     1      41.643 -12.098   4.998  1.00  0.00     0.125 A 
HETATM   27  N   UNL     1      40.683 -11.168   4.787  1.00  0.00    -0.273 NA
HETATM   28  C   UNL     1      39.437 -11.481   5.201  1.00  0.00     0.116 A 
HETATM   29  C   UNL     1      39.106 -12.690   5.785  1.00  0.00     0.020 A 
HETATM   30  C   UNL     1      40.112 -13.637   5.966  1.00  0.00     0.012 A 
ENDBRANCH  24  25
ENDBRANCH   2  24
BRANCH   5  31
HETATM   31  C   UNL     1      43.615 -18.902   4.275  1.00  0.00     0.047 A 
HETATM   32  C   UNL     1      43.809 -19.612   3.075  1.00  0.00     0.037 A 
HETATM   33  C   UNL     1      44.376 -20.900   3.045  1.00  0.00    -0.060 A 
HETATM   34  C   UNL     1      44.535 -21.633   1.745  1.00  0.00     0.048 C 
HETATM   35  C   UNL     1      44.747 -21.510   4.242  1.00  0.00     0.007 A 
HETATM   36  C   UNL     1      44.562 -20.837   5.444  1.00  0.00     0.003 A 
HETATM   37  C   UNL     1      44.002 -19.554   5.459  1.00  0.00     0.030 A 
ENDBRANCH   5  31
TORSDOF 9
ENDMDL
