MODEL 1
REMARK VINA RESULT:      -8.7      0.000      0.000
REMARK  5 active torsions:
REMARK  status: ('A' for Active; 'I' for Inactive)
REMARK    1  A    between atoms: O_2  and  C_3 
REMARK    2  A    between atoms: C_5  and  C_6 
REMARK    3  A    between atoms: C_6  and  N_7 
REMARK       I    between atoms: N_7  and  C_8 
REMARK    4  A    between atoms: C_8  and  C_9 
REMARK    5  A    between atoms: C_19  and  C_20 
ROOT
HETATM    1  C   UNL     1      43.359 -19.041   2.332  1.00  0.00     0.159 A 
HETATM    2  O   UNL     1      43.729 -20.192   1.580  1.00  0.00    -0.268 OA
HETATM    3  C   UNL     1      44.181 -21.346   2.129  1.00  0.00     0.299 A 
HETATM    4  O   UNL     1      44.474 -22.319   1.446  1.00  0.00    -0.259 OA
HETATM    5  C   UNL     1      44.292 -21.365   3.599  1.00  0.00     0.051 A 
HETATM    6  C   UNL     1      43.911 -20.250   4.350  1.00  0.00    -0.006 A 
HETATM    7  C   UNL     1      44.784 -22.524   4.221  1.00  0.00     0.018 A 
HETATM    8  C   UNL     1      44.900 -22.580   5.606  1.00  0.00     0.001 A 
HETATM    9  C   UNL     1      44.522 -21.481   6.370  1.00  0.00     0.001 A 
HETATM   10  C   UNL     1      44.031 -20.328   5.749  1.00  0.00     0.013 A 
HETATM   11  C   UNL     1      43.405 -19.022   3.683  1.00  0.00     0.025 A 
ENDROOT
BRANCH   1  12
HETATM   12  C   UNL     1      42.926 -17.875   1.470  1.00  0.00     0.276 C 
HETATM   13  N   UNL     1      41.555 -17.735   1.424  1.00  0.00    -0.351 N 
HETATM   14  H   UNL     1      41.007 -18.279   2.075  1.00  0.00     0.163 HD
HETATM   15  O   UNL     1      43.686 -17.137   0.859  1.00  0.00    -0.265 OA
BRANCH  13  16
HETATM   16  C   UNL     1      40.942 -16.646   0.704  1.00  0.00     0.161 C 
BRANCH  16  17
HETATM   17  C   UNL     1      41.046 -15.287   1.358  1.00  0.00    -0.038 A 
HETATM   18  C   UNL     1      41.773 -14.210   0.832  1.00  0.00     0.045 A 
HETATM   19  C   UNL     1      41.806 -12.966   1.477  1.00  0.00     0.068 A 
HETATM   20  C   UNL     1      41.128 -12.799   2.682  1.00  0.00     0.037 A 
HETATM   21  C   UNL     1      40.410 -13.862   3.230  1.00  0.00     0.003 A 
HETATM   22  C   UNL     1      40.366 -15.092   2.572  1.00  0.00     0.009 A 
BRANCH  19  23
HETATM   23  O   UNL     1      42.539 -12.008   0.829  1.00  0.00    -0.356 OA
HETATM   24  C   UNL     1      42.355 -11.902  -0.577  1.00  0.00     0.210 C 
ENDBRANCH  19  23
ENDBRANCH  16  17
ENDBRANCH  13  16
ENDBRANCH   1  12
BRANCH  11  25
HETATM   25  C   UNL     1      42.947 -17.838   4.447  1.00  0.00    -0.022 A 
HETATM   26  C   UNL     1      41.662 -17.823   5.010  1.00  0.00     0.012 A 
HETATM   27  C   UNL     1      41.242 -16.728   5.769  1.00  0.00     0.001 A 
HETATM   28  C   UNL     1      42.100 -15.649   5.972  1.00  0.00     0.000 A 
HETATM   29  C   UNL     1      43.379 -15.658   5.417  1.00  0.00     0.001 A 
HETATM   30  C   UNL     1      43.804 -16.750   4.658  1.00  0.00     0.012 A 
ENDBRANCH  11  25
TORSDOF 5
ENDMDL
MODEL 2
REMARK VINA RESULT:      -8.6      1.044      1.578
REMARK  5 active torsions:
REMARK  status: ('A' for Active; 'I' for Inactive)
REMARK    1  A    between atoms: O_2  and  C_3 
REMARK    2  A    between atoms: C_5  and  C_6 
REMARK    3  A    between atoms: C_6  and  N_7 
REMARK       I    between atoms: N_7  and  C_8 
REMARK    4  A    between atoms: C_8  and  C_9 
REMARK    5  A    between atoms: C_19  and  C_20 
ROOT
HETATM    1  C   UNL     1      43.473 -18.981   2.400  1.00  0.00     0.159 A 
HETATM    2  O   UNL     1      43.890 -20.113   1.645  1.00  0.00    -0.268 OA
HETATM    3  C   UNL     1      44.309 -21.281   2.193  1.00  0.00     0.299 A 
HETATM    4  O   UNL     1      44.645 -22.236   1.506  1.00  0.00    -0.259 OA
HETATM    5  C   UNL     1      44.328 -21.335   3.665  1.00  0.00     0.051 A 
HETATM    6  C   UNL     1      43.899 -20.240   4.418  1.00  0.00    -0.006 A 
HETATM    7  C   UNL     1      44.782 -22.509   4.289  1.00  0.00     0.018 A 
HETATM    8  C   UNL     1      44.810 -22.600   5.676  1.00  0.00     0.001 A 
HETATM    9  C   UNL     1      44.384 -21.520   6.443  1.00  0.00     0.001 A 
HETATM   10  C   UNL     1      43.931 -20.352   5.820  1.00  0.00     0.013 A 
HETATM   11  C   UNL     1      43.434 -18.995   3.752  1.00  0.00     0.025 A 
ENDROOT
BRANCH   1  12
HETATM   12  C   UNL     1      43.093 -17.794   1.541  1.00  0.00     0.276 C 
HETATM   13  N   UNL     1      41.728 -17.665   1.395  1.00  0.00    -0.351 N 
HETATM   14  H   UNL     1      41.138 -18.233   1.988  1.00  0.00     0.163 HD
HETATM   15  O   UNL     1      43.889 -17.032   1.011  1.00  0.00    -0.265 OA
BRANCH  13  16
HETATM   16  C   UNL     1      41.159 -16.561   0.663  1.00  0.00     0.161 C 
BRANCH  16  17
HETATM   17  C   UNL     1      40.755 -15.363   1.492  1.00  0.00    -0.038 A 
HETATM   18  C   UNL     1      41.654 -14.557   2.206  1.00  0.00     0.045 A 
HETATM   19  C   UNL     1      41.215 -13.443   2.934  1.00  0.00     0.068 A 
HETATM   20  C   UNL     1      39.855 -13.142   2.978  1.00  0.00     0.037 A 
HETATM   21  C   UNL     1      38.944 -13.940   2.286  1.00  0.00     0.003 A 
HETATM   22  C   UNL     1      39.390 -15.036   1.547  1.00  0.00     0.009 A 
BRANCH  19  23
HETATM   23  O   UNL     1      42.212 -12.743   3.559  1.00  0.00    -0.356 OA
HETATM   24  C   UNL     1      41.863 -12.055   4.753  1.00  0.00     0.210 C 
ENDBRANCH  19  23
ENDBRANCH  16  17
ENDBRANCH  13  16
ENDBRANCH   1  12
BRANCH  11  25
HETATM   25  C   UNL     1      42.927 -17.830   4.514  1.00  0.00    -0.022 A 
HETATM   26  C   UNL     1      43.795 -16.779   4.843  1.00  0.00     0.012 A 
HETATM   27  C   UNL     1      43.313 -15.658   5.522  1.00  0.00     0.001 A 
HETATM   28  C   UNL     1      41.965 -15.580   5.872  1.00  0.00     0.000 A 
HETATM   29  C   UNL     1      41.097 -16.621   5.547  1.00  0.00     0.001 A 
HETATM   30  C   UNL     1      41.574 -17.743   4.867  1.00  0.00     0.012 A 
ENDBRANCH  11  25
TORSDOF 5
ENDMDL
MODEL 3
REMARK VINA RESULT:      -8.5      2.369      3.492
REMARK  5 active torsions:
REMARK  status: ('A' for Active; 'I' for Inactive)
REMARK    1  A    between atoms: O_2  and  C_3 
REMARK    2  A    between atoms: C_5  and  C_6 
REMARK    3  A    between atoms: C_6  and  N_7 
REMARK       I    between atoms: N_7  and  C_8 
REMARK    4  A    between atoms: C_8  and  C_9 
REMARK    5  A    between atoms: C_19  and  C_20 
ROOT
HETATM    1  C   UNL     1      42.764 -17.845   5.637  1.00  0.00     0.159 A 
HETATM    2  O   UNL     1      43.085 -18.409   6.904  1.00  0.00    -0.268 OA
HETATM    3  C   UNL     1      43.695 -19.609   7.070  1.00  0.00     0.299 A 
HETATM    4  O   UNL     1      43.967 -20.051   8.178  1.00  0.00    -0.259 OA
HETATM    5  C   UNL     1      44.019 -20.347   5.836  1.00  0.00     0.051 A 
HETATM    6  C   UNL     1      43.731 -19.794   4.586  1.00  0.00    -0.006 A 
HETATM    7  C   UNL     1      44.624 -21.610   5.948  1.00  0.00     0.018 A 
HETATM    8  C   UNL     1      44.948 -22.335   4.806  1.00  0.00     0.001 A 
HETATM    9  C   UNL     1      44.672 -21.799   3.553  1.00  0.00     0.001 A 
HETATM   10  C   UNL     1      44.071 -20.541   3.443  1.00  0.00     0.013 A 
HETATM   11  C   UNL     1      43.078 -18.464   4.476  1.00  0.00     0.025 A 
ENDROOT
BRANCH   1  12
HETATM   12  C   UNL     1      42.051 -16.514   5.736  1.00  0.00     0.276 C 
HETATM   13  N   UNL     1      42.804 -15.474   5.232  1.00  0.00    -0.351 N 
HETATM   14  H   UNL     1      43.637 -15.709   4.710  1.00  0.00     0.163 HD
HETATM   15  O   UNL     1      40.941 -16.351   6.221  1.00  0.00    -0.265 OA
BRANCH  13  16
HETATM   16  C   UNL     1      42.278 -14.132   5.179  1.00  0.00     0.161 C 
BRANCH  16  17
HETATM   17  C   UNL     1      41.682 -13.714   3.854  1.00  0.00    -0.038 A 
HETATM   18  C   UNL     1      42.388 -13.039   2.848  1.00  0.00     0.045 A 
HETATM   19  C   UNL     1      41.781 -12.703   1.630  1.00  0.00     0.068 A 
HETATM   20  C   UNL     1      40.441 -13.018   1.420  1.00  0.00     0.037 A 
HETATM   21  C   UNL     1      39.717 -13.676   2.414  1.00  0.00     0.003 A 
HETATM   22  C   UNL     1      40.333 -14.025   3.617  1.00  0.00     0.009 A 
BRANCH  19  23
HETATM   23  O   UNL     1      42.605 -12.068   0.740  1.00  0.00    -0.356 OA
HETATM   24  C   UNL     1      42.238 -12.130  -0.632  1.00  0.00     0.210 C 
ENDBRANCH  19  23
ENDBRANCH  16  17
ENDBRANCH  13  16
ENDBRANCH   1  12
BRANCH  11  25
HETATM   25  C   UNL     1      42.799 -17.824   3.169  1.00  0.00    -0.022 A 
HETATM   26  C   UNL     1      41.486 -17.774   2.681  1.00  0.00     0.012 A 
HETATM   27  C   UNL     1      41.211 -17.132   1.471  1.00  0.00     0.001 A 
HETATM   28  C   UNL     1      42.243 -16.537   0.747  1.00  0.00     0.000 A 
HETATM   29  C   UNL     1      43.550 -16.582   1.227  1.00  0.00     0.001 A 
HETATM   30  C   UNL     1      43.830 -17.221   2.436  1.00  0.00     0.012 A 
ENDBRANCH  11  25
TORSDOF 5
ENDMDL
MODEL 4
REMARK VINA RESULT:      -8.4      2.435      7.535
REMARK  5 active torsions:
REMARK  status: ('A' for Active; 'I' for Inactive)
REMARK    1  A    between atoms: O_2  and  C_3 
REMARK    2  A    between atoms: C_5  and  C_6 
REMARK    3  A    between atoms: C_6  and  N_7 
REMARK       I    between atoms: N_7  and  C_8 
REMARK    4  A    between atoms: C_8  and  C_9 
REMARK    5  A    between atoms: C_19  and  C_20 
ROOT
HETATM    1  C   UNL     1      40.431 -14.986   2.690  1.00  0.00     0.159 A 
HETATM    2  O   UNL     1      39.367 -14.043   2.617  1.00  0.00    -0.268 OA
HETATM    3  C   UNL     1      38.824 -13.596   1.458  1.00  0.00     0.299 A 
HETATM    4  O   UNL     1      37.899 -12.795   1.441  1.00  0.00    -0.259 OA
HETATM    5  C   UNL     1      39.409 -14.137   0.218  1.00  0.00     0.051 A 
HETATM    6  C   UNL     1      40.437 -15.081   0.276  1.00  0.00    -0.006 A 
HETATM    7  C   UNL     1      38.907 -13.687  -1.014  1.00  0.00     0.018 A 
HETATM    8  C   UNL     1      39.430 -14.178  -2.205  1.00  0.00     0.001 A 
HETATM    9  C   UNL     1      40.453 -15.120  -2.168  1.00  0.00     0.001 A 
HETATM   10  C   UNL     1      40.950 -15.568  -0.940  1.00  0.00     0.013 A 
HETATM   11  C   UNL     1      40.973 -15.542   1.583  1.00  0.00     0.025 A 
ENDROOT
BRANCH   1  12
HETATM   12  C   UNL     1      40.874 -15.283   4.106  1.00  0.00     0.276 C 
HETATM   13  N   UNL     1      40.619 -16.586   4.475  1.00  0.00    -0.351 N 
HETATM   14  H   UNL     1      40.342 -17.233   3.749  1.00  0.00     0.163 HD
HETATM   15  O   UNL     1      41.386 -14.470   4.863  1.00  0.00    -0.265 OA
BRANCH  13  16
HETATM   16  C   UNL     1      41.021 -17.086   5.767  1.00  0.00     0.161 C 
BRANCH  16  17
HETATM   17  C   UNL     1      42.442 -17.595   5.859  1.00  0.00    -0.038 A 
HETATM   18  C   UNL     1      42.890 -18.796   5.288  1.00  0.00     0.045 A 
HETATM   19  C   UNL     1      44.229 -19.196   5.388  1.00  0.00     0.068 A 
HETATM   20  C   UNL     1      45.133 -18.405   6.094  1.00  0.00     0.037 A 
HETATM   21  C   UNL     1      44.704 -17.215   6.682  1.00  0.00     0.003 A 
HETATM   22  C   UNL     1      43.373 -16.813   6.561  1.00  0.00     0.009 A 
BRANCH  19  23
HETATM   23  O   UNL     1      44.518 -20.378   4.760  1.00  0.00    -0.356 OA
HETATM   24  C   UNL     1      44.591 -21.538   5.578  1.00  0.00     0.210 C 
ENDBRANCH  19  23
ENDBRANCH  16  17
ENDBRANCH  13  16
ENDBRANCH   1  12
BRANCH  11  25
HETATM   25  C   UNL     1      42.030 -16.575   1.685  1.00  0.00    -0.022 A 
HETATM   26  C   UNL     1      41.686 -17.934   1.651  1.00  0.00     0.012 A 
HETATM   27  C   UNL     1      42.682 -18.912   1.701  1.00  0.00     0.001 A 
HETATM   28  C   UNL     1      44.023 -18.538   1.784  1.00  0.00     0.000 A 
HETATM   29  C   UNL     1      44.372 -17.189   1.817  1.00  0.00     0.001 A 
HETATM   30  C   UNL     1      43.380 -16.208   1.765  1.00  0.00     0.012 A 
ENDBRANCH  11  25
TORSDOF 5
ENDMDL
MODEL 5
REMARK VINA RESULT:      -8.3      2.795      8.136
REMARK  5 active torsions:
REMARK  status: ('A' for Active; 'I' for Inactive)
REMARK    1  A    between atoms: O_2  and  C_3 
REMARK    2  A    between atoms: C_5  and  C_6 
REMARK    3  A    between atoms: C_6  and  N_7 
REMARK       I    between atoms: N_7  and  C_8 
REMARK    4  A    between atoms: C_8  and  C_9 
REMARK    5  A    between atoms: C_19  and  C_20 
ROOT
HETATM    1  C   UNL     1      40.667 -14.827   5.085  1.00  0.00     0.159 A 
HETATM    2  O   UNL     1      40.184 -14.027   6.159  1.00  0.00    -0.268 OA
HETATM    3  C   UNL     1      39.497 -12.869   5.996  1.00  0.00     0.299 A 
HETATM    4  O   UNL     1      39.087 -12.219   6.948  1.00  0.00    -0.259 OA
HETATM    5  C   UNL     1      39.267 -12.443   4.604  1.00  0.00     0.051 A 
HETATM    6  C   UNL     1      39.714 -13.230   3.541  1.00  0.00    -0.006 A 
HETATM    7  C   UNL     1      38.587 -11.235   4.376  1.00  0.00     0.018 A 
HETATM    8  C   UNL     1      38.347 -10.802   3.075  1.00  0.00     0.001 A 
HETATM    9  C   UNL     1      38.782 -11.575   2.004  1.00  0.00     0.001 A 
HETATM   10  C   UNL     1      39.458 -12.777   2.234  1.00  0.00     0.013 A 
HETATM   11  C   UNL     1      40.445 -14.500   3.791  1.00  0.00     0.025 A 
ENDROOT
BRANCH   1  12
HETATM   12  C   UNL     1      41.436 -16.047   5.544  1.00  0.00     0.276 C 
HETATM   13  N   UNL     1      42.801 -15.865   5.478  1.00  0.00    -0.351 N 
HETATM   14  H   UNL     1      43.140 -14.927   5.312  1.00  0.00     0.163 HD
HETATM   15  O   UNL     1      40.926 -17.094   5.917  1.00  0.00    -0.265 OA
BRANCH  13  16
HETATM   16  C   UNL     1      43.710 -16.889   5.928  1.00  0.00     0.161 C 
BRANCH  16  17
HETATM   17  C   UNL     1      43.995 -17.995   4.937  1.00  0.00    -0.038 A 
HETATM   18  C   UNL     1      44.515 -19.251   5.282  1.00  0.00     0.045 A 
HETATM   19  C   UNL     1      44.730 -20.243   4.316  1.00  0.00     0.068 A 
HETATM   20  C   UNL     1      44.451 -19.971   2.978  1.00  0.00     0.037 A 
HETATM   21  C   UNL     1      43.948 -18.723   2.612  1.00  0.00     0.003 A 
HETATM   22  C   UNL     1      43.717 -17.747   3.583  1.00  0.00     0.009 A 
BRANCH  19  23
HETATM   23  O   UNL     1      45.219 -21.422   4.810  1.00  0.00    -0.356 OA
HETATM   24  C   UNL     1      44.641 -22.618   4.304  1.00  0.00     0.210 C 
ENDBRANCH  19  23
ENDBRANCH  16  17
ENDBRANCH  13  16
ENDBRANCH   1  12
BRANCH  11  25
HETATM   25  C   UNL     1      40.894 -15.385   2.692  1.00  0.00    -0.022 A 
HETATM   26  C   UNL     1      40.206 -16.579   2.430  1.00  0.00     0.012 A 
HETATM   27  C   UNL     1      40.597 -17.396   1.366  1.00  0.00     0.001 A 
HETATM   28  C   UNL     1      41.671 -17.023   0.559  1.00  0.00     0.000 A 
HETATM   29  C   UNL     1      42.358 -15.837   0.812  1.00  0.00     0.001 A 
HETATM   30  C   UNL     1      41.970 -15.017   1.874  1.00  0.00     0.012 A 
ENDBRANCH  11  25
TORSDOF 5
ENDMDL
MODEL 6
REMARK VINA RESULT:      -8.2      2.755      4.313
REMARK  5 active torsions:
REMARK  status: ('A' for Active; 'I' for Inactive)
REMARK    1  A    between atoms: O_2  and  C_3 
REMARK    2  A    between atoms: C_5  and  C_6 
REMARK    3  A    between atoms: C_6  and  N_7 
REMARK       I    between atoms: N_7  and  C_8 
REMARK    4  A    between atoms: C_8  and  C_9 
REMARK    5  A    between atoms: C_19  and  C_20 
ROOT
HETATM    1  C   UNL     1      42.831 -16.717   4.791  1.00  0.00     0.159 A 
HETATM    2  O   UNL     1      43.642 -17.358   5.770  1.00  0.00    -0.268 OA
HETATM    3  C   UNL     1      44.259 -18.551   5.584  1.00  0.00     0.299 A 
HETATM    4  O   UNL     1      44.960 -19.061   6.448  1.00  0.00    -0.259 OA
HETATM    5  C   UNL     1      44.042 -19.196   4.277  1.00  0.00     0.051 A 
HETATM    6  C   UNL     1      43.268 -18.567   3.299  1.00  0.00    -0.006 A 
HETATM    7  C   UNL     1      44.631 -20.448   4.039  1.00  0.00     0.018 A 
HETATM    8  C   UNL     1      44.452 -21.086   2.816  1.00  0.00     0.001 A 
HETATM    9  C   UNL     1      43.687 -20.473   1.829  1.00  0.00     0.001 A 
HETATM   10  C   UNL     1      43.102 -19.226   2.067  1.00  0.00     0.013 A 
HETATM   11  C   UNL     1      42.635 -17.248   3.563  1.00  0.00     0.025 A 
ENDROOT
BRANCH   1  12
HETATM   12  C   UNL     1      42.229 -15.414   5.270  1.00  0.00     0.276 C 
HETATM   13  N   UNL     1      42.997 -14.322   4.926  1.00  0.00    -0.351 N 
HETATM   14  H   UNL     1      43.751 -14.468   4.268  1.00  0.00     0.163 HD
HETATM   15  O   UNL     1      41.192 -15.316   5.909  1.00  0.00    -0.265 OA
BRANCH  13  16
HETATM   16  C   UNL     1      42.566 -12.981   5.238  1.00  0.00     0.161 C 
BRANCH  16  17
HETATM   17  C   UNL     1      41.492 -12.412   4.339  1.00  0.00    -0.038 A 
HETATM   18  C   UNL     1      40.273 -11.890   4.796  1.00  0.00     0.045 A 
HETATM   19  C   UNL     1      39.330 -11.353   3.910  1.00  0.00     0.068 A 
HETATM   20  C   UNL     1      39.591 -11.360   2.541  1.00  0.00     0.037 A 
HETATM   21  C   UNL     1      40.791 -11.888   2.065  1.00  0.00     0.003 A 
HETATM   22  C   UNL     1      41.733 -12.404   2.955  1.00  0.00     0.009 A 
BRANCH  19  23
HETATM   23  O   UNL     1      38.201 -10.862   4.509  1.00  0.00    -0.356 OA
HETATM   24  C   UNL     1      37.631  -9.691   3.941  1.00  0.00     0.210 C 
ENDBRANCH  19  23
ENDBRANCH  16  17
ENDBRANCH  13  16
ENDBRANCH   1  12
BRANCH  11  25
HETATM   25  C   UNL     1      41.846 -16.528   2.536  1.00  0.00    -0.022 A 
HETATM   26  C   UNL     1      40.451 -16.449   2.653  1.00  0.00     0.012 A 
HETATM   27  C   UNL     1      39.707 -15.734   1.712  1.00  0.00     0.001 A 
HETATM   28  C   UNL     1      40.352 -15.093   0.655  1.00  0.00     0.000 A 
HETATM   29  C   UNL     1      41.738 -15.165   0.534  1.00  0.00     0.001 A 
HETATM   30  C   UNL     1      42.486 -15.879   1.472  1.00  0.00     0.012 A 
ENDBRANCH  11  25
TORSDOF 5
ENDMDL
MODEL 7
REMARK VINA RESULT:      -8.2      2.713      4.084
REMARK  5 active torsions:
REMARK  status: ('A' for Active; 'I' for Inactive)
REMARK    1  A    between atoms: O_2  and  C_3 
REMARK    2  A    between atoms: C_5  and  C_6 
REMARK    3  A    between atoms: C_6  and  N_7 
REMARK       I    between atoms: N_7  and  C_8 
REMARK    4  A    between atoms: C_8  and  C_9 
REMARK    5  A    between atoms: C_19  and  C_20 
ROOT
HETATM    1  C   UNL     1      42.403 -17.361   5.567  1.00  0.00     0.159 A 
HETATM    2  O   UNL     1      42.827 -17.953   6.790  1.00  0.00    -0.268 OA
HETATM    3  C   UNL     1      43.562 -19.090   6.870  1.00  0.00     0.299 A 
HETATM    4  O   UNL     1      43.919 -19.557   7.943  1.00  0.00    -0.259 OA
HETATM    5  C   UNL     1      43.913 -19.725   5.588  1.00  0.00     0.051 A 
HETATM    6  C   UNL     1      43.524 -19.142   4.380  1.00  0.00    -0.006 A 
HETATM    7  C   UNL     1      44.648 -20.922   5.611  1.00  0.00     0.018 A 
HETATM    8  C   UNL     1      45.002 -21.549   4.420  1.00  0.00     0.001 A 
HETATM    9  C   UNL     1      44.626 -20.981   3.208  1.00  0.00     0.001 A 
HETATM   10  C   UNL     1      43.895 -19.789   3.188  1.00  0.00     0.013 A 
HETATM   11  C   UNL     1      42.734 -17.883   4.364  1.00  0.00     0.025 A 
ENDROOT
BRANCH   1  12
HETATM   12  C   UNL     1      41.561 -16.118   5.762  1.00  0.00     0.276 C 
HETATM   13  N   UNL     1      42.211 -14.972   5.355  1.00  0.00    -0.351 N 
HETATM   14  H   UNL     1      43.067 -15.082   4.828  1.00  0.00     0.163 HD
HETATM   15  O   UNL     1      40.437 -16.104   6.242  1.00  0.00    -0.265 OA
BRANCH  13  16
HETATM   16  C   UNL     1      41.556 -13.688   5.402  1.00  0.00     0.161 C 
BRANCH  16  17
HETATM   17  C   UNL     1      40.888 -13.246   4.120  1.00  0.00    -0.038 A 
HETATM   18  C   UNL     1      39.933 -14.002   3.425  1.00  0.00     0.045 A 
HETATM   19  C   UNL     1      39.331 -13.521   2.255  1.00  0.00     0.068 A 
HETATM   20  C   UNL     1      39.707 -12.278   1.750  1.00  0.00     0.037 A 
HETATM   21  C   UNL     1      40.666 -11.517   2.418  1.00  0.00     0.003 A 
HETATM   22  C   UNL     1      41.246 -11.994   3.594  1.00  0.00     0.009 A 
BRANCH  19  23
HETATM   23  O   UNL     1      38.402 -14.363   1.705  1.00  0.00    -0.356 OA
HETATM   24  C   UNL     1      37.580 -13.828   0.676  1.00  0.00     0.210 C 
ENDBRANCH  19  23
ENDBRANCH  16  17
ENDBRANCH  13  16
ENDBRANCH   1  12
BRANCH  11  25
HETATM   25  C   UNL     1      42.343 -17.209   3.104  1.00  0.00    -0.022 A 
HETATM   26  C   UNL     1      43.232 -16.323   2.480  1.00  0.00     0.012 A 
HETATM   27  C   UNL     1      42.887 -15.719   1.268  1.00  0.00     0.001 A 
HETATM   28  C   UNL     1      41.657 -16.000   0.675  1.00  0.00     0.000 A 
HETATM   29  C   UNL     1      40.769 -16.881   1.289  1.00  0.00     0.001 A 
HETATM   30  C   UNL     1      41.110 -17.488   2.500  1.00  0.00     0.012 A 
ENDBRANCH  11  25
TORSDOF 5
ENDMDL
MODEL 8
REMARK VINA RESULT:      -8.0      1.897      2.956
REMARK  5 active torsions:
REMARK  status: ('A' for Active; 'I' for Inactive)
REMARK    1  A    between atoms: O_2  and  C_3 
REMARK    2  A    between atoms: C_5  and  C_6 
REMARK    3  A    between atoms: C_6  and  N_7 
REMARK       I    between atoms: N_7  and  C_8 
REMARK    4  A    between atoms: C_8  and  C_9 
REMARK    5  A    between atoms: C_19  and  C_20 
ROOT
HETATM    1  C   UNL     1      42.123 -17.332   2.167  1.00  0.00     0.159 A 
HETATM    2  O   UNL     1      42.314 -18.634   1.623  1.00  0.00    -0.268 OA
HETATM    3  C   UNL     1      43.061 -19.601   2.210  1.00  0.00     0.299 A 
HETATM    4  O   UNL     1      43.187 -20.713   1.715  1.00  0.00    -0.259 OA
HETATM    5  C   UNL     1      43.708 -19.237   3.484  1.00  0.00     0.051 A 
HETATM    6  C   UNL     1      43.509 -17.972   4.040  1.00  0.00    -0.006 A 
HETATM    7  C   UNL     1      44.519 -20.190   4.121  1.00  0.00     0.018 A 
HETATM    8  C   UNL     1      45.142 -19.885   5.327  1.00  0.00     0.001 A 
HETATM    9  C   UNL     1      44.954 -18.630   5.898  1.00  0.00     0.001 A 
HETATM   10  C   UNL     1      44.144 -17.684   5.262  1.00  0.00     0.013 A 
HETATM   11  C   UNL     1      42.661 -16.964   3.352  1.00  0.00     0.025 A 
ENDROOT
BRANCH   1  12
HETATM   12  C   UNL     1      41.277 -16.434   1.291  1.00  0.00     0.276 C 
HETATM   13  N   UNL     1      41.986 -15.913   0.230  1.00  0.00    -0.351 N 
HETATM   14  H   UNL     1      42.901 -16.299   0.043  1.00  0.00     0.163 HD
HETATM   15  O   UNL     1      40.100 -16.169   1.492  1.00  0.00    -0.265 OA
BRANCH  13  16
HETATM   16  C   UNL     1      41.344 -15.079  -0.757  1.00  0.00     0.161 C 
BRANCH  16  17
HETATM   17  C   UNL     1      41.755 -13.624  -0.754  1.00  0.00    -0.038 A 
HETATM   18  C   UNL     1      42.185 -12.922  -1.889  1.00  0.00     0.045 A 
HETATM   19  C   UNL     1      42.527 -11.565  -1.822  1.00  0.00     0.068 A 
HETATM   20  C   UNL     1      42.468 -10.901  -0.599  1.00  0.00     0.037 A 
HETATM   21  C   UNL     1      42.057 -11.585   0.545  1.00  0.00     0.003 A 
HETATM   22  C   UNL     1      41.699 -12.932   0.467  1.00  0.00     0.009 A 
BRANCH  19  23
HETATM   23  O   UNL     1      42.904 -11.013  -3.017  1.00  0.00    -0.356 OA
HETATM   24  C   UNL     1      42.074 -11.282  -4.139  1.00  0.00     0.210 C 
ENDBRANCH  19  23
ENDBRANCH  16  17
ENDBRANCH  13  16
ENDBRANCH   1  12
BRANCH  11  25
HETATM   25  C   UNL     1      42.389 -15.628   3.933  1.00  0.00    -0.022 A 
HETATM   26  C   UNL     1      43.187 -14.533   3.574  1.00  0.00     0.012 A 
HETATM   27  C   UNL     1      42.908 -13.263   4.083  1.00  0.00     0.001 A 
HETATM   28  C   UNL     1      41.830 -13.081   4.949  1.00  0.00     0.000 A 
HETATM   29  C   UNL     1      41.031 -14.165   5.309  1.00  0.00     0.001 A 
HETATM   30  C   UNL     1      41.306 -15.436   4.801  1.00  0.00     0.012 A 
ENDBRANCH  11  25
TORSDOF 5
ENDMDL
MODEL 9
REMARK VINA RESULT:      -7.9      3.000      4.053
REMARK  5 active torsions:
REMARK  status: ('A' for Active; 'I' for Inactive)
REMARK    1  A    between atoms: O_2  and  C_3 
REMARK    2  A    between atoms: C_5  and  C_6 
REMARK    3  A    between atoms: C_6  and  N_7 
REMARK       I    between atoms: N_7  and  C_8 
REMARK    4  A    between atoms: C_8  and  C_9 
REMARK    5  A    between atoms: C_19  and  C_20 
ROOT
HETATM    1  C   UNL     1      41.748 -16.686   2.500  1.00  0.00     0.159 A 
HETATM    2  O   UNL     1      42.031 -17.877   1.774  1.00  0.00    -0.268 OA
HETATM    3  C   UNL     1      42.846 -18.864   2.221  1.00  0.00     0.299 A 
HETATM    4  O   UNL     1      43.051 -19.880   1.570  1.00  0.00    -0.259 OA
HETATM    5  C   UNL     1      43.465 -18.646   3.540  1.00  0.00     0.051 A 
HETATM    6  C   UNL     1      43.177 -17.493   4.273  1.00  0.00    -0.006 A 
HETATM    7  C   UNL     1      44.343 -19.622   4.040  1.00  0.00     0.018 A 
HETATM    8  C   UNL     1      44.943 -19.453   5.283  1.00  0.00     0.001 A 
HETATM    9  C   UNL     1      44.666 -18.313   6.029  1.00  0.00     0.001 A 
HETATM   10  C   UNL     1      43.791 -17.343   5.530  1.00  0.00     0.013 A 
HETATM   11  C   UNL     1      42.258 -16.458   3.732  1.00  0.00     0.025 A 
ENDROOT
BRANCH   1  12
HETATM   12  C   UNL     1      40.839 -15.731   1.757  1.00  0.00     0.276 C 
HETATM   13  N   UNL     1      41.541 -14.815   1.003  1.00  0.00    -0.351 N 
HETATM   14  H   UNL     1      42.532 -14.970   0.881  1.00  0.00     0.163 HD
HETATM   15  O   UNL     1      39.618 -15.739   1.817  1.00  0.00    -0.265 OA
BRANCH  13  16
HETATM   16  C   UNL     1      40.857 -13.855   0.172  1.00  0.00     0.161 C 
BRANCH  16  17
HETATM   17  C   UNL     1      40.309 -14.389  -1.132  1.00  0.00    -0.038 A 
HETATM   18  C   UNL     1      39.117 -13.950  -1.727  1.00  0.00     0.045 A 
HETATM   19  C   UNL     1      38.679 -14.470  -2.952  1.00  0.00     0.068 A 
HETATM   20  C   UNL     1      39.422 -15.465  -3.583  1.00  0.00     0.037 A 
HETATM   21  C   UNL     1      40.603 -15.925  -3.000  1.00  0.00     0.003 A 
HETATM   22  C   UNL     1      41.043 -15.389  -1.790  1.00  0.00     0.009 A 
BRANCH  19  23
HETATM   23  O   UNL     1      37.511 -13.925  -3.416  1.00  0.00    -0.356 OA
HETATM   24  C   UNL     1      36.756 -14.709  -4.331  1.00  0.00     0.210 C 
ENDBRANCH  19  23
ENDBRANCH  16  17
ENDBRANCH  13  16
ENDBRANCH   1  12
BRANCH  11  25
HETATM   25  C   UNL     1      41.892 -15.244   4.499  1.00  0.00    -0.022 A 
HETATM   26  C   UNL     1      42.694 -14.097   4.418  1.00  0.00     0.012 A 
HETATM   27  C   UNL     1      42.329 -12.936   5.103  1.00  0.00     0.001 A 
HETATM   28  C   UNL     1      41.163 -12.914   5.868  1.00  0.00     0.000 A 
HETATM   29  C   UNL     1      40.361 -14.050   5.950  1.00  0.00     0.001 A 
HETATM   30  C   UNL     1      40.720 -15.213   5.267  1.00  0.00     0.012 A 
ENDBRANCH  11  25
TORSDOF 5
ENDMDL
MODEL 10
REMARK VINA RESULT:      -7.7      3.709      5.676
REMARK  5 active torsions:
REMARK  status: ('A' for Active; 'I' for Inactive)
REMARK    1  A    between atoms: O_2  and  C_3 
REMARK    2  A    between atoms: C_5  and  C_6 
REMARK    3  A    between atoms: C_6  and  N_7 
REMARK       I    between atoms: N_7  and  C_8 
REMARK    4  A    between atoms: C_8  and  C_9 
REMARK    5  A    between atoms: C_19  and  C_20 
ROOT
HETATM    1  C   UNL     1      42.831 -16.931   4.998  1.00  0.00     0.159 A 
HETATM    2  O   UNL     1      43.613 -17.660   5.937  1.00  0.00    -0.268 OA
HETATM    3  C   UNL     1      44.214 -18.846   5.668  1.00  0.00     0.299 A 
HETATM    4  O   UNL     1      44.891 -19.433   6.501  1.00  0.00    -0.259 OA
HETATM    5  C   UNL     1      44.011 -19.382   4.311  1.00  0.00     0.051 A 
HETATM    6  C   UNL     1      43.265 -18.665   3.372  1.00  0.00    -0.006 A 
HETATM    7  C   UNL     1      44.585 -20.622   3.985  1.00  0.00     0.018 A 
HETATM    8  C   UNL     1      44.419 -21.158   2.713  1.00  0.00     0.001 A 
HETATM    9  C   UNL     1      43.682 -20.457   1.764  1.00  0.00     0.001 A 
HETATM   10  C   UNL     1      43.112 -19.222   2.090  1.00  0.00     0.013 A 
HETATM   11  C   UNL     1      42.649 -17.360   3.728  1.00  0.00     0.025 A 
ENDROOT
BRANCH   1  12
HETATM   12  C   UNL     1      42.241 -15.659   5.568  1.00  0.00     0.276 C 
HETATM   13  N   UNL     1      43.100 -14.585   5.459  1.00  0.00    -0.351 N 
HETATM   14  H   UNL     1      43.921 -14.700   4.880  1.00  0.00     0.163 HD
HETATM   15  O   UNL     1      41.138 -15.572   6.088  1.00  0.00    -0.265 OA
BRANCH  13  16
HETATM   16  C   UNL     1      42.702 -13.268   5.889  1.00  0.00     0.161 C 
BRANCH  16  17
HETATM   17  C   UNL     1      43.428 -12.726   7.099  1.00  0.00    -0.038 A 
HETATM   18  C   UNL     1      42.929 -11.715   7.933  1.00  0.00     0.045 A 
HETATM   19  C   UNL     1      43.643 -11.276   9.056  1.00  0.00     0.068 A 
HETATM   20  C   UNL     1      44.889 -11.832   9.339  1.00  0.00     0.037 A 
HETATM   21  C   UNL     1      45.409 -12.828   8.514  1.00  0.00     0.003 A 
HETATM   22  C   UNL     1      44.684 -13.273   7.408  1.00  0.00     0.009 A 
BRANCH  19  23
HETATM   23  O   UNL     1      43.015 -10.301   9.784  1.00  0.00    -0.356 OA
HETATM   24  C   UNL     1      41.809 -10.668  10.442  1.00  0.00     0.210 C 
ENDBRANCH  19  23
ENDBRANCH  16  17
ENDBRANCH  13  16
ENDBRANCH   1  12
BRANCH  11  25
HETATM   25  C   UNL     1      41.891 -16.548   2.748  1.00  0.00    -0.022 A 
HETATM   26  C   UNL     1      42.574 -15.693   1.871  1.00  0.00     0.012 A 
HETATM   27  C   UNL     1      41.869 -14.959   0.915  1.00  0.00     0.001 A 
HETATM   28  C   UNL     1      40.483 -15.078   0.827  1.00  0.00     0.000 A 
HETATM   29  C   UNL     1      39.798 -15.928   1.694  1.00  0.00     0.001 A 
HETATM   30  C   UNL     1      40.498 -16.665   2.651  1.00  0.00     0.012 A 
ENDBRANCH  11  25
TORSDOF 5
ENDMDL
