MODEL 1
REMARK VINA RESULT:      -8.0      0.000      0.000
REMARK  8 active torsions:
REMARK  status: ('A' for Active; 'I' for Inactive)
REMARK    1  A    between atoms: C_2  and  C_3 
REMARK    2  A    between atoms: C_3  and  O_4 
REMARK    3  A    between atoms: O_4  and  C_5 
REMARK    4  A    between atoms: C_8  and  C_9 
REMARK    5  A    between atoms: N_10  and  N_11 
REMARK       I    between atoms: N_11  and  C_12 
REMARK    6  A    between atoms: C_12  and  C_13 
REMARK    7  A    between atoms: C_17  and  C_18 
REMARK    8  A    between atoms: C_21  and  O_22 
ROOT
HETATM    1  N   UNL     1      43.345 -13.471   6.543  1.00  0.00    -0.242 N 
HETATM    2  C   UNL     1      44.050 -14.369   7.340  1.00  0.00     0.289 C 
HETATM    3  O   UNL     1      44.759 -13.934   8.247  1.00  0.00    -0.264 OA
HETATM    4  H   UNL     1      43.506 -12.490   6.748  1.00  0.00     0.192 HD
ENDROOT
BRANCH   2   5
HETATM    5  C   UNL     1      43.923 -15.776   7.042  1.00  0.00     0.121 A 
HETATM    6  N   UNL     1      43.175 -16.656   7.765  1.00  0.00    -0.272 N 
HETATM    7  H   UNL     1      42.607 -16.421   8.574  1.00  0.00     0.189 HD
HETATM    8  N   UNL     1      43.177 -17.911   7.300  1.00  0.00    -0.174 NA
HETATM    9  C   UNL     1      43.954 -17.856   6.206  1.00  0.00     0.089 A 
HETATM   10  C   UNL     1      44.475 -16.541   6.034  1.00  0.00     0.071 A 
BRANCH   9  11
HETATM   11  C   UNL     1      44.156 -19.035   5.359  1.00  0.00    -0.005 A 
HETATM   12  C   UNL     1      44.056 -18.950   3.966  1.00  0.00     0.016 A 
HETATM   13  C   UNL     1      44.213 -20.094   3.175  1.00  0.00     0.037 A 
HETATM   14  C   UNL     1      44.476 -21.336   3.757  1.00  0.00     0.068 A 
HETATM   15  C   UNL     1      44.580 -21.428   5.144  1.00  0.00     0.037 A 
HETATM   16  C   UNL     1      44.417 -20.285   5.937  1.00  0.00     0.016 A 
BRANCH  14  17
HETATM   17  O   UNL     1      44.602 -22.369   2.870  1.00  0.00    -0.356 OA
HETATM   18  C   UNL     1      44.247 -22.099   1.520  1.00  0.00     0.210 C 
ENDBRANCH  14  17
ENDBRANCH   9  11
ENDBRANCH   2   5
BRANCH   1  19
HETATM   19  N   UNL     1      42.735 -13.843   5.382  1.00  0.00    -0.184 NA
HETATM   20  C   UNL     1      43.372 -13.597   4.283  1.00  0.00     0.150 C 
BRANCH  20  21
HETATM   21  C   UNL     1      42.813 -14.031   2.985  1.00  0.00    -0.017 A 
HETATM   22  C   UNL     1      42.876 -15.377   2.606  1.00  0.00     0.016 A 
HETATM   23  C   UNL     1      42.358 -15.786   1.376  1.00  0.00     0.037 A 
HETATM   24  C   UNL     1      41.777 -14.855   0.515  1.00  0.00     0.068 A 
HETATM   25  C   UNL     1      41.728 -13.508   0.896  1.00  0.00     0.037 A 
HETATM   26  C   UNL     1      42.243 -13.090   2.127  1.00  0.00     0.016 A 
BRANCH  24  27
HETATM   27  O   UNL     1      41.238 -15.131  -0.711  1.00  0.00    -0.351 OA
BRANCH  27  28
HETATM   28  C   UNL     1      41.346 -14.105  -1.703  1.00  0.00     0.175 C 
BRANCH  28  29
HETATM   29  C   UNL     1      41.345 -14.765  -3.076  1.00  0.00     0.022 C 
HETATM   30  C   UNL     1      40.341 -15.903  -3.150  1.00  0.00     0.007 C 
ENDBRANCH  28  29
ENDBRANCH  27  28
ENDBRANCH  24  27
ENDBRANCH  20  21
ENDBRANCH   1  19
TORSDOF 8
ENDMDL
MODEL 2
REMARK VINA RESULT:      -7.9      2.357      7.500
REMARK  8 active torsions:
REMARK  status: ('A' for Active; 'I' for Inactive)
REMARK    1  A    between atoms: C_2  and  C_3 
REMARK    2  A    between atoms: C_3  and  O_4 
REMARK    3  A    between atoms: O_4  and  C_5 
REMARK    4  A    between atoms: C_8  and  C_9 
REMARK    5  A    between atoms: N_10  and  N_11 
REMARK       I    between atoms: N_11  and  C_12 
REMARK    6  A    between atoms: C_12  and  C_13 
REMARK    7  A    between atoms: C_17  and  C_18 
REMARK    8  A    between atoms: C_21  and  O_22 
ROOT
HETATM    1  N   UNL     1      40.354 -14.794   6.186  1.00  0.00    -0.242 N 
HETATM    2  C   UNL     1      39.858 -13.831   5.312  1.00  0.00     0.289 C 
HETATM    3  O   UNL     1      39.061 -12.993   5.734  1.00  0.00    -0.264 OA
HETATM    4  H   UNL     1      39.976 -14.762   7.127  1.00  0.00     0.192 HD
ENDROOT
BRANCH   2   5
HETATM    5  C   UNL     1      40.298 -13.879   3.938  1.00  0.00     0.121 A 
HETATM    6  N   UNL     1      41.573 -13.631   3.524  1.00  0.00    -0.272 N 
HETATM    7  H   UNL     1      42.357 -13.411   4.131  1.00  0.00     0.189 HD
HETATM    8  N   UNL     1      41.771 -13.755   2.206  1.00  0.00    -0.174 NA
HETATM    9  C   UNL     1      40.569 -14.116   1.724  1.00  0.00     0.089 A 
HETATM   10  C   UNL     1      39.609 -14.163   2.776  1.00  0.00     0.071 A 
BRANCH   9  11
HETATM   11  C   UNL     1      40.382 -14.420   0.304  1.00  0.00    -0.005 A 
HETATM   12  C   UNL     1      41.269 -15.260  -0.378  1.00  0.00     0.016 A 
HETATM   13  C   UNL     1      41.099 -15.509  -1.745  1.00  0.00     0.037 A 
HETATM   14  C   UNL     1      40.041 -14.930  -2.451  1.00  0.00     0.068 A 
HETATM   15  C   UNL     1      39.151 -14.095  -1.778  1.00  0.00     0.037 A 
HETATM   16  C   UNL     1      39.325 -13.840  -0.412  1.00  0.00     0.016 A 
BRANCH  14  17
HETATM   17  O   UNL     1      39.995 -15.253  -3.779  1.00  0.00    -0.356 OA
HETATM   18  C   UNL     1      38.935 -16.106  -4.193  1.00  0.00     0.210 C 
ENDBRANCH  14  17
ENDBRANCH   9  11
ENDBRANCH   2   5
BRANCH   1  19
HETATM   19  N   UNL     1      41.043 -15.890   5.756  1.00  0.00    -0.184 NA
HETATM   20  C   UNL     1      42.302 -15.941   6.051  1.00  0.00     0.150 C 
BRANCH  20  21
HETATM   21  C   UNL     1      43.105 -17.126   5.683  1.00  0.00    -0.017 A 
HETATM   22  C   UNL     1      44.307 -17.395   6.346  1.00  0.00     0.016 A 
HETATM   23  C   UNL     1      45.072 -18.509   5.992  1.00  0.00     0.037 A 
HETATM   24  C   UNL     1      44.642 -19.359   4.974  1.00  0.00     0.068 A 
HETATM   25  C   UNL     1      43.443 -19.077   4.308  1.00  0.00     0.037 A 
HETATM   26  C   UNL     1      42.671 -17.965   4.657  1.00  0.00     0.016 A 
BRANCH  24  27
HETATM   27  O   UNL     1      45.300 -20.476   4.537  1.00  0.00    -0.351 OA
BRANCH  27  28
HETATM   28  C   UNL     1      44.789 -21.735   4.983  1.00  0.00     0.175 C 
BRANCH  28  29
HETATM   29  C   UNL     1      44.762 -22.689   3.795  1.00  0.00     0.022 C 
HETATM   30  C   UNL     1      44.354 -21.979   2.517  1.00  0.00     0.007 C 
ENDBRANCH  28  29
ENDBRANCH  27  28
ENDBRANCH  24  27
ENDBRANCH  20  21
ENDBRANCH   1  19
TORSDOF 8
ENDMDL
MODEL 3
REMARK VINA RESULT:      -7.6      2.924      6.589
REMARK  8 active torsions:
REMARK  status: ('A' for Active; 'I' for Inactive)
REMARK    1  A    between atoms: C_2  and  C_3 
REMARK    2  A    between atoms: C_3  and  O_4 
REMARK    3  A    between atoms: O_4  and  C_5 
REMARK    4  A    between atoms: C_8  and  C_9 
REMARK    5  A    between atoms: N_10  and  N_11 
REMARK       I    between atoms: N_11  and  C_12 
REMARK    6  A    between atoms: C_12  and  C_13 
REMARK    7  A    between atoms: C_17  and  C_18 
REMARK    8  A    between atoms: C_21  and  O_22 
ROOT
HETATM    1  N   UNL     1      39.784 -13.719   2.862  1.00  0.00    -0.242 N 
HETATM    2  C   UNL     1      39.593 -14.899   2.150  1.00  0.00     0.289 C 
HETATM    3  O   UNL     1      38.489 -15.128   1.657  1.00  0.00    -0.264 OA
HETATM    4  H   UNL     1      38.960 -13.135   2.964  1.00  0.00     0.192 HD
ENDROOT
BRANCH   2   5
HETATM    5  C   UNL     1      40.710 -15.808   2.041  1.00  0.00     0.121 A 
HETATM    6  N   UNL     1      41.785 -15.620   1.225  1.00  0.00    -0.272 N 
HETATM    7  H   UNL     1      41.935 -14.815   0.624  1.00  0.00     0.189 HD
HETATM    8  N   UNL     1      42.721 -16.575   1.299  1.00  0.00    -0.174 NA
HETATM    9  C   UNL     1      42.247 -17.431   2.220  1.00  0.00     0.089 A 
HETATM   10  C   UNL     1      40.968 -17.005   2.679  1.00  0.00     0.071 A 
BRANCH   9  11
HETATM   11  C   UNL     1      43.027 -18.597   2.642  1.00  0.00    -0.005 A 
HETATM   12  C   UNL     1      43.200 -19.696   1.794  1.00  0.00     0.016 A 
HETATM   13  C   UNL     1      43.915 -20.818   2.227  1.00  0.00     0.037 A 
HETATM   14  C   UNL     1      44.473 -20.861   3.507  1.00  0.00     0.068 A 
HETATM   15  C   UNL     1      44.309 -19.768   4.356  1.00  0.00     0.037 A 
HETATM   16  C   UNL     1      43.588 -18.647   3.926  1.00  0.00     0.016 A 
BRANCH  14  17
HETATM   17  O   UNL     1      45.141 -22.017   3.802  1.00  0.00    -0.356 OA
HETATM   18  C   UNL     1      45.142 -22.425   5.165  1.00  0.00     0.210 C 
ENDBRANCH  14  17
ENDBRANCH   9  11
ENDBRANCH   2   5
BRANCH   1  19
HETATM   19  N   UNL     1      40.887 -13.498   3.634  1.00  0.00    -0.184 NA
HETATM   20  C   UNL     1      40.882 -14.015   4.821  1.00  0.00     0.150 C 
BRANCH  20  21
HETATM   21  C   UNL     1      42.066 -13.883   5.695  1.00  0.00    -0.017 A 
HETATM   22  C   UNL     1      42.889 -14.988   5.938  1.00  0.00     0.016 A 
HETATM   23  C   UNL     1      44.002 -14.866   6.773  1.00  0.00     0.037 A 
HETATM   24  C   UNL     1      44.298 -13.642   7.372  1.00  0.00     0.068 A 
HETATM   25  C   UNL     1      43.464 -12.543   7.133  1.00  0.00     0.037 A 
HETATM   26  C   UNL     1      42.348 -12.656   6.297  1.00  0.00     0.016 A 
BRANCH  24  27
HETATM   27  O   UNL     1      45.354 -13.397   8.206  1.00  0.00    -0.351 OA
BRANCH  27  28
HETATM   28  C   UNL     1      45.411 -12.098   8.802  1.00  0.00     0.175 C 
BRANCH  28  29
HETATM   29  C   UNL     1      45.087 -12.238  10.285  1.00  0.00     0.022 C 
HETATM   30  C   UNL     1      44.839 -10.887  10.932  1.00  0.00     0.007 C 
ENDBRANCH  28  29
ENDBRANCH  27  28
ENDBRANCH  24  27
ENDBRANCH  20  21
ENDBRANCH   1  19
TORSDOF 8
ENDMDL
MODEL 4
REMARK VINA RESULT:      -7.5      1.681      2.211
REMARK  8 active torsions:
REMARK  status: ('A' for Active; 'I' for Inactive)
REMARK    1  A    between atoms: C_2  and  C_3 
REMARK    2  A    between atoms: C_3  and  O_4 
REMARK    3  A    between atoms: O_4  and  C_5 
REMARK    4  A    between atoms: C_8  and  C_9 
REMARK    5  A    between atoms: N_10  and  N_11 
REMARK       I    between atoms: N_11  and  C_12 
REMARK    6  A    between atoms: C_12  and  C_13 
REMARK    7  A    between atoms: C_17  and  C_18 
REMARK    8  A    between atoms: C_21  and  O_22 
ROOT
HETATM    1  N   UNL     1      41.287 -12.568   4.485  1.00  0.00    -0.242 N 
HETATM    2  C   UNL     1      42.024 -13.175   5.499  1.00  0.00     0.289 C 
HETATM    3  O   UNL     1      42.499 -12.477   6.393  1.00  0.00    -0.264 OA
HETATM    4  H   UNL     1      41.231 -11.556   4.536  1.00  0.00     0.192 HD
ENDROOT
BRANCH   2   5
HETATM    5  C   UNL     1      42.207 -14.606   5.433  1.00  0.00     0.121 A 
HETATM    6  N   UNL     1      41.481 -15.514   6.145  1.00  0.00    -0.272 N 
HETATM    7  H   UNL     1      40.720 -15.291   6.780  1.00  0.00     0.189 HD
HETATM    8  N   UNL     1      41.798 -16.794   5.914  1.00  0.00    -0.174 NA
HETATM    9  C   UNL     1      42.774 -16.731   4.992  1.00  0.00     0.089 A 
HETATM   10  C   UNL     1      43.087 -15.373   4.695  1.00  0.00     0.071 A 
BRANCH   9  11
HETATM   11  C   UNL     1      43.352 -17.948   4.418  1.00  0.00    -0.005 A 
HETATM   12  C   UNL     1      43.035 -18.354   3.117  1.00  0.00     0.016 A 
HETATM   13  C   UNL     1      43.566 -19.540   2.597  1.00  0.00     0.037 A 
HETATM   14  C   UNL     1      44.423 -20.336   3.361  1.00  0.00     0.068 A 
HETATM   15  C   UNL     1      44.747 -19.936   4.657  1.00  0.00     0.037 A 
HETATM   16  C   UNL     1      44.211 -18.752   5.180  1.00  0.00     0.016 A 
BRANCH  14  17
HETATM   17  O   UNL     1      44.865 -21.467   2.734  1.00  0.00    -0.356 OA
HETATM   18  C   UNL     1      44.112 -21.913   1.613  1.00  0.00     0.210 C 
ENDBRANCH  14  17
ENDBRANCH   9  11
ENDBRANCH   2   5
BRANCH   1  19
HETATM   19  N   UNL     1      40.934 -13.223   3.342  1.00  0.00    -0.184 NA
HETATM   20  C   UNL     1      41.784 -13.196   2.367  1.00  0.00     0.150 C 
BRANCH  20  21
HETATM   21  C   UNL     1      41.509 -13.939   1.119  1.00  0.00    -0.017 A 
HETATM   22  C   UNL     1      41.720 -15.321   1.061  1.00  0.00     0.016 A 
HETATM   23  C   UNL     1      41.471 -16.022  -0.121  1.00  0.00     0.037 A 
HETATM   24  C   UNL     1      41.013 -15.347  -1.252  1.00  0.00     0.068 A 
HETATM   25  C   UNL     1      40.814 -13.962  -1.190  1.00  0.00     0.037 A 
HETATM   26  C   UNL     1      41.060 -13.253  -0.009  1.00  0.00     0.016 A 
BRANCH  24  27
HETATM   27  O   UNL     1      40.735 -15.919  -2.463  1.00  0.00    -0.351 OA
BRANCH  27  28
HETATM   28  C   UNL     1      40.158 -15.066  -3.456  1.00  0.00     0.175 C 
BRANCH  28  29
HETATM   29  C   UNL     1      38.927 -15.760  -4.026  1.00  0.00     0.022 C 
HETATM   30  C   UNL     1      37.643 -15.142  -3.502  1.00  0.00     0.007 C 
ENDBRANCH  28  29
ENDBRANCH  27  28
ENDBRANCH  24  27
ENDBRANCH  20  21
ENDBRANCH   1  19
TORSDOF 8
ENDMDL
MODEL 5
REMARK VINA RESULT:      -7.4      2.630      7.934
REMARK  8 active torsions:
REMARK  status: ('A' for Active; 'I' for Inactive)
REMARK    1  A    between atoms: C_2  and  C_3 
REMARK    2  A    between atoms: C_3  and  O_4 
REMARK    3  A    between atoms: O_4  and  C_5 
REMARK    4  A    between atoms: C_8  and  C_9 
REMARK    5  A    between atoms: N_10  and  N_11 
REMARK       I    between atoms: N_11  and  C_12 
REMARK    6  A    between atoms: C_12  and  C_13 
REMARK    7  A    between atoms: C_17  and  C_18 
REMARK    8  A    between atoms: C_21  and  O_22 
ROOT
HETATM    1  N   UNL     1      40.438 -14.518   6.268  1.00  0.00    -0.242 N 
HETATM    2  C   UNL     1      39.716 -13.738   5.369  1.00  0.00     0.289 C 
HETATM    3  O   UNL     1      39.011 -12.826   5.800  1.00  0.00    -0.264 OA
HETATM    4  H   UNL     1      40.292 -14.298   7.248  1.00  0.00     0.192 HD
ENDROOT
BRANCH   2   5
HETATM    5  C   UNL     1      39.821 -14.059   3.965  1.00  0.00     0.121 A 
HETATM    6  N   UNL     1      39.572 -15.287   3.430  1.00  0.00    -0.272 N 
HETATM    7  H   UNL     1      39.262 -16.104   3.948  1.00  0.00     0.189 HD
HETATM    8  N   UNL     1      39.705 -15.358   2.100  1.00  0.00    -0.174 NA
HETATM    9  C   UNL     1      40.047 -14.112   1.735  1.00  0.00     0.089 A 
HETATM   10  C   UNL     1      40.171 -13.276   2.882  1.00  0.00     0.071 A 
BRANCH   9  11
HETATM   11  C   UNL     1      40.222 -13.756   0.324  1.00  0.00    -0.005 A 
HETATM   12  C   UNL     1      39.136 -13.744  -0.558  1.00  0.00     0.016 A 
HETATM   13  C   UNL     1      39.327 -13.440  -1.911  1.00  0.00     0.037 A 
HETATM   14  C   UNL     1      40.599 -13.139  -2.404  1.00  0.00     0.068 A 
HETATM   15  C   UNL     1      41.686 -13.146  -1.530  1.00  0.00     0.037 A 
HETATM   16  C   UNL     1      41.496 -13.456  -0.178  1.00  0.00     0.016 A 
BRANCH  14  17
HETATM   17  O   UNL     1      40.644 -12.866  -3.743  1.00  0.00    -0.356 OA
HETATM   18  C   UNL     1      40.336 -11.534  -4.134  1.00  0.00     0.210 C 
ENDBRANCH  14  17
ENDBRANCH   9  11
ENDBRANCH   2   5
BRANCH   1  19
HETATM   19  N   UNL     1      41.045 -15.684   5.905  1.00  0.00    -0.184 NA
HETATM   20  C   UNL     1      42.339 -15.686   5.885  1.00  0.00     0.150 C 
BRANCH  20  21
HETATM   21  C   UNL     1      43.076 -16.929   5.571  1.00  0.00    -0.017 A 
HETATM   22  C   UNL     1      42.623 -17.780   4.557  1.00  0.00     0.016 A 
HETATM   23  C   UNL     1      43.312 -18.959   4.268  1.00  0.00     0.037 A 
HETATM   24  C   UNL     1      44.456 -19.297   4.990  1.00  0.00     0.068 A 
HETATM   25  C   UNL     1      44.898 -18.446   6.010  1.00  0.00     0.037 A 
HETATM   26  C   UNL     1      44.214 -17.262   6.306  1.00  0.00     0.016 A 
BRANCH  24  27
HETATM   27  O   UNL     1      45.215 -20.420   4.802  1.00  0.00    -0.351 OA
BRANCH  27  28
HETATM   28  C   UNL     1      44.679 -21.646   5.306  1.00  0.00     0.175 C 
BRANCH  28  29
HETATM   29  C   UNL     1      44.773 -22.698   4.207  1.00  0.00     0.022 C 
HETATM   30  C   UNL     1      44.495 -22.103   2.838  1.00  0.00     0.007 C 
ENDBRANCH  28  29
ENDBRANCH  27  28
ENDBRANCH  24  27
ENDBRANCH  20  21
ENDBRANCH   1  19
TORSDOF 8
ENDMDL
MODEL 6
REMARK VINA RESULT:      -7.4      4.311      8.103
REMARK  8 active torsions:
REMARK  status: ('A' for Active; 'I' for Inactive)
REMARK    1  A    between atoms: C_2  and  C_3 
REMARK    2  A    between atoms: C_3  and  O_4 
REMARK    3  A    between atoms: O_4  and  C_5 
REMARK    4  A    between atoms: C_8  and  C_9 
REMARK    5  A    between atoms: N_10  and  N_11 
REMARK       I    between atoms: N_11  and  C_12 
REMARK    6  A    between atoms: C_12  and  C_13 
REMARK    7  A    between atoms: C_17  and  C_18 
REMARK    8  A    between atoms: C_21  and  O_22 
ROOT
HETATM    1  N   UNL     1      39.765 -11.661   4.769  1.00  0.00    -0.242 N 
HETATM    2  C   UNL     1      39.544 -12.781   3.972  1.00  0.00     0.289 C 
HETATM    3  O   UNL     1      38.831 -12.674   2.975  1.00  0.00    -0.264 OA
HETATM    4  H   UNL     1      39.270 -10.822   4.485  1.00  0.00     0.192 HD
ENDROOT
BRANCH   2   5
HETATM    5  C   UNL     1      40.159 -14.024   4.374  1.00  0.00     0.121 A 
HETATM    6  N   UNL     1      39.782 -14.759   5.458  1.00  0.00    -0.272 N 
HETATM    7  H   UNL     1      39.017 -14.532   6.087  1.00  0.00     0.189 HD
HETATM    8  N   UNL     1      40.470 -15.894   5.635  1.00  0.00    -0.174 NA
HETATM    9  C   UNL     1      41.337 -15.918   4.609  1.00  0.00     0.089 A 
HETATM   10  C   UNL     1      41.200 -14.740   3.819  1.00  0.00     0.071 A 
BRANCH   9  11
HETATM   11  C   UNL     1      42.238 -17.054   4.406  1.00  0.00    -0.005 A 
HETATM   12  C   UNL     1      42.260 -17.751   3.192  1.00  0.00     0.016 A 
HETATM   13  C   UNL     1      43.099 -18.859   3.029  1.00  0.00     0.037 A 
HETATM   14  C   UNL     1      43.933 -19.285   4.065  1.00  0.00     0.068 A 
HETATM   15  C   UNL     1      43.920 -18.594   5.276  1.00  0.00     0.037 A 
HETATM   16  C   UNL     1      43.075 -17.489   5.443  1.00  0.00     0.016 A 
BRANCH  14  17
HETATM   17  O   UNL     1      44.697 -20.381   3.772  1.00  0.00    -0.356 OA
HETATM   18  C   UNL     1      44.919 -21.306   4.829  1.00  0.00     0.210 C 
ENDBRANCH  14  17
ENDBRANCH   9  11
ENDBRANCH   2   5
BRANCH   1  19
HETATM   19  N   UNL     1      40.335 -11.740   6.005  1.00  0.00    -0.184 NA
HETATM   20  C   UNL     1      40.093 -10.767   6.824  1.00  0.00     0.150 C 
BRANCH  20  21
HETATM   21  C   UNL     1      40.615 -10.811   8.206  1.00  0.00    -0.017 A 
HETATM   22  C   UNL     1      39.753 -11.072   9.276  1.00  0.00     0.016 A 
HETATM   23  C   UNL     1      40.244 -11.102  10.583  1.00  0.00     0.037 A 
HETATM   24  C   UNL     1      41.596 -10.869  10.830  1.00  0.00     0.068 A 
HETATM   25  C   UNL     1      42.451 -10.597   9.755  1.00  0.00     0.037 A 
HETATM   26  C   UNL     1      41.968 -10.567   8.442  1.00  0.00     0.016 A 
BRANCH  24  27
HETATM   27  O   UNL     1      42.194 -10.871  12.060  1.00  0.00    -0.351 OA
BRANCH  27  28
HETATM   28  C   UNL     1      43.385 -10.090  12.194  1.00  0.00     0.175 C 
BRANCH  28  29
HETATM   29  C   UNL     1      43.380  -9.440  13.572  1.00  0.00     0.022 C 
HETATM   30  C   UNL     1      42.400 -10.123  14.509  1.00  0.00     0.007 C 
ENDBRANCH  28  29
ENDBRANCH  27  28
ENDBRANCH  24  27
ENDBRANCH  20  21
ENDBRANCH   1  19
TORSDOF 8
ENDMDL
MODEL 7
REMARK VINA RESULT:      -7.3      3.645      8.576
REMARK  8 active torsions:
REMARK  status: ('A' for Active; 'I' for Inactive)
REMARK    1  A    between atoms: C_2  and  C_3 
REMARK    2  A    between atoms: C_3  and  O_4 
REMARK    3  A    between atoms: O_4  and  C_5 
REMARK    4  A    between atoms: C_8  and  C_9 
REMARK    5  A    between atoms: N_10  and  N_11 
REMARK       I    between atoms: N_11  and  C_12 
REMARK    6  A    between atoms: C_12  and  C_13 
REMARK    7  A    between atoms: C_17  and  C_18 
REMARK    8  A    between atoms: C_21  and  O_22 
ROOT
HETATM    1  N   UNL     1      41.215 -15.822  -1.222  1.00  0.00    -0.242 N 
HETATM    2  C   UNL     1      40.639 -14.562  -1.083  1.00  0.00     0.289 C 
HETATM    3  O   UNL     1      40.685 -13.776  -2.028  1.00  0.00    -0.264 OA
HETATM    4  H   UNL     1      41.684 -15.989  -2.106  1.00  0.00     0.192 HD
ENDROOT
BRANCH   2   5
HETATM    5  C   UNL     1      40.027 -14.239   0.184  1.00  0.00     0.121 A 
HETATM    6  N   UNL     1      38.755 -14.576   0.539  1.00  0.00    -0.272 N 
HETATM    7  H   UNL     1      38.106 -15.109  -0.032  1.00  0.00     0.189 HD
HETATM    8  N   UNL     1      38.396 -14.199   1.772  1.00  0.00    -0.174 NA
HETATM    9  C   UNL     1      39.490 -13.593   2.264  1.00  0.00     0.089 A 
HETATM   10  C   UNL     1      40.521 -13.562   1.281  1.00  0.00     0.071 A 
BRANCH   9  11
HETATM   11  C   UNL     1      39.524 -13.091   3.639  1.00  0.00    -0.005 A 
HETATM   12  C   UNL     1      39.895 -13.922   4.703  1.00  0.00     0.016 A 
HETATM   13  C   UNL     1      39.884 -13.437   6.016  1.00  0.00     0.037 A 
HETATM   14  C   UNL     1      39.511 -12.119   6.289  1.00  0.00     0.068 A 
HETATM   15  C   UNL     1      39.144 -11.284   5.234  1.00  0.00     0.037 A 
HETATM   16  C   UNL     1      39.148 -11.771   3.921  1.00  0.00     0.016 A 
BRANCH  14  17
HETATM   17  O   UNL     1      39.541 -11.778   7.613  1.00  0.00    -0.356 OA
HETATM   18  C   UNL     1      40.088 -10.505   7.933  1.00  0.00     0.210 C 
ENDBRANCH  14  17
ENDBRANCH   9  11
ENDBRANCH   2   5
BRANCH   1  19
HETATM   19  N   UNL     1      41.419 -16.657  -0.163  1.00  0.00    -0.184 NA
HETATM   20  C   UNL     1      42.582 -16.606   0.404  1.00  0.00     0.150 C 
BRANCH  20  21
HETATM   21  C   UNL     1      42.862 -17.427   1.601  1.00  0.00    -0.017 A 
HETATM   22  C   UNL     1      42.071 -17.292   2.748  1.00  0.00     0.016 A 
HETATM   23  C   UNL     1      42.342 -18.059   3.883  1.00  0.00     0.037 A 
HETATM   24  C   UNL     1      43.404 -18.962   3.882  1.00  0.00     0.068 A 
HETATM   25  C   UNL     1      44.198 -19.083   2.734  1.00  0.00     0.037 A 
HETATM   26  C   UNL     1      43.933 -18.320   1.593  1.00  0.00     0.016 A 
BRANCH  24  27
HETATM   27  O   UNL     1      43.770 -19.765   4.927  1.00  0.00    -0.351 OA
BRANCH  27  28
HETATM   28  C   UNL     1      45.064 -20.368   4.848  1.00  0.00     0.175 C 
BRANCH  28  29
HETATM   29  C   UNL     1      44.918 -21.855   5.149  1.00  0.00     0.022 C 
HETATM   30  C   UNL     1      44.562 -22.646   3.902  1.00  0.00     0.007 C 
ENDBRANCH  28  29
ENDBRANCH  27  28
ENDBRANCH  24  27
ENDBRANCH  20  21
ENDBRANCH   1  19
TORSDOF 8
ENDMDL
MODEL 8
REMARK VINA RESULT:      -7.3      3.487      6.296
REMARK  8 active torsions:
REMARK  status: ('A' for Active; 'I' for Inactive)
REMARK    1  A    between atoms: C_2  and  C_3 
REMARK    2  A    between atoms: C_3  and  O_4 
REMARK    3  A    between atoms: O_4  and  C_5 
REMARK    4  A    between atoms: C_8  and  C_9 
REMARK    5  A    between atoms: N_10  and  N_11 
REMARK       I    between atoms: N_11  and  C_12 
REMARK    6  A    between atoms: C_12  and  C_13 
REMARK    7  A    between atoms: C_17  and  C_18 
REMARK    8  A    between atoms: C_21  and  O_22 
ROOT
HETATM    1  N   UNL     1      41.287 -13.614   0.026  1.00  0.00    -0.242 N 
HETATM    2  C   UNL     1      41.334 -14.902  -0.501  1.00  0.00     0.289 C 
HETATM    3  O   UNL     1      41.196 -15.057  -1.714  1.00  0.00    -0.264 OA
HETATM    4  H   UNL     1      41.093 -12.878  -0.645  1.00  0.00     0.192 HD
ENDROOT
BRANCH   2   5
HETATM    5  C   UNL     1      41.527 -15.998   0.419  1.00  0.00     0.121 A 
HETATM    6  N   UNL     1      40.528 -16.609   1.116  1.00  0.00    -0.272 N 
HETATM    7  H   UNL     1      39.540 -16.382   1.051  1.00  0.00     0.189 HD
HETATM    8  N   UNL     1      40.925 -17.623   1.896  1.00  0.00    -0.174 NA
HETATM    9  C   UNL     1      42.251 -17.695   1.694  1.00  0.00     0.089 A 
HETATM   10  C   UNL     1      42.673 -16.665   0.805  1.00  0.00     0.071 A 
BRANCH   9  11
HETATM   11  C   UNL     1      43.057 -18.740   2.328  1.00  0.00    -0.005 A 
HETATM   12  C   UNL     1      43.287 -19.964   1.689  1.00  0.00     0.016 A 
HETATM   13  C   UNL     1      44.028 -20.966   2.326  1.00  0.00     0.037 A 
HETATM   14  C   UNL     1      44.554 -20.765   3.604  1.00  0.00     0.068 A 
HETATM   15  C   UNL     1      44.333 -19.547   4.246  1.00  0.00     0.037 A 
HETATM   16  C   UNL     1      43.587 -18.546   3.612  1.00  0.00     0.016 A 
BRANCH  14  17
HETATM   17  O   UNL     1      45.252 -21.826   4.109  1.00  0.00    -0.356 OA
HETATM   18  C   UNL     1      44.904 -22.255   5.420  1.00  0.00     0.210 C 
ENDBRANCH  14  17
ENDBRANCH   9  11
ENDBRANCH   2   5
BRANCH   1  19
HETATM   19  N   UNL     1      41.191 -13.372   1.364  1.00  0.00    -0.184 NA
HETATM   20  C   UNL     1      40.028 -13.021   1.812  1.00  0.00     0.150 C 
BRANCH  20  21
HETATM   21  C   UNL     1      39.821 -12.808   3.260  1.00  0.00    -0.017 A 
HETATM   22  C   UNL     1      40.402 -13.678   4.189  1.00  0.00     0.016 A 
HETATM   23  C   UNL     1      40.198 -13.484   5.557  1.00  0.00     0.037 A 
HETATM   24  C   UNL     1      39.412 -12.423   6.005  1.00  0.00     0.068 A 
HETATM   25  C   UNL     1      38.825 -11.563   5.068  1.00  0.00     0.037 A 
HETATM   26  C   UNL     1      39.026 -11.749   3.697  1.00  0.00     0.016 A 
BRANCH  24  27
HETATM   27  O   UNL     1      39.138 -12.130   7.313  1.00  0.00    -0.351 OA
BRANCH  27  28
HETATM   28  C   UNL     1      39.444 -10.802   7.748  1.00  0.00     0.175 C 
BRANCH  28  29
HETATM   29  C   UNL     1      40.947 -10.708   7.978  1.00  0.00     0.022 C 
HETATM   30  C   UNL     1      41.562  -9.559   7.200  1.00  0.00     0.007 C 
ENDBRANCH  28  29
ENDBRANCH  27  28
ENDBRANCH  24  27
ENDBRANCH  20  21
ENDBRANCH   1  19
TORSDOF 8
ENDMDL
MODEL 9
REMARK VINA RESULT:      -7.0      2.094      2.471
REMARK  8 active torsions:
REMARK  status: ('A' for Active; 'I' for Inactive)
REMARK    1  A    between atoms: C_2  and  C_3 
REMARK    2  A    between atoms: C_3  and  O_4 
REMARK    3  A    between atoms: O_4  and  C_5 
REMARK    4  A    between atoms: C_8  and  C_9 
REMARK    5  A    between atoms: N_10  and  N_11 
REMARK       I    between atoms: N_11  and  C_12 
REMARK    6  A    between atoms: C_12  and  C_13 
REMARK    7  A    between atoms: C_17  and  C_18 
REMARK    8  A    between atoms: C_21  and  O_22 
ROOT
HETATM    1  N   UNL     1      43.136 -13.096   6.915  1.00  0.00    -0.242 N 
HETATM    2  C   UNL     1      44.082 -14.072   7.217  1.00  0.00     0.289 C 
HETATM    3  O   UNL     1      45.110 -13.744   7.809  1.00  0.00    -0.264 OA
HETATM    4  H   UNL     1      43.391 -12.149   7.174  1.00  0.00     0.192 HD
ENDROOT
BRANCH   2   5
HETATM    5  C   UNL     1      43.809 -15.426   6.798  1.00  0.00     0.121 A 
HETATM    6  N   UNL     1      42.692 -16.131   7.134  1.00  0.00    -0.272 N 
HETATM    7  H   UNL     1      41.919 -15.779   7.691  1.00  0.00     0.189 HD
HETATM    8  N   UNL     1      42.628 -17.364   6.617  1.00  0.00    -0.174 NA
HETATM    9  C   UNL     1      43.753 -17.476   5.892  1.00  0.00     0.089 A 
HETATM   10  C   UNL     1      44.541 -16.296   6.014  1.00  0.00     0.071 A 
BRANCH   9  11
HETATM   11  C   UNL     1      44.027 -18.678   5.100  1.00  0.00    -0.005 A 
HETATM   12  C   UNL     1      43.789 -18.706   3.721  1.00  0.00     0.016 A 
HETATM   13  C   UNL     1      44.020 -19.875   2.987  1.00  0.00     0.037 A 
HETATM   14  C   UNL     1      44.494 -21.030   3.612  1.00  0.00     0.068 A 
HETATM   15  C   UNL     1      44.736 -21.010   4.985  1.00  0.00     0.037 A 
HETATM   16  C   UNL     1      44.500 -19.843   5.721  1.00  0.00     0.016 A 
BRANCH  14  17
HETATM   17  O   UNL     1      44.670 -22.100   2.779  1.00  0.00    -0.356 OA
HETATM   18  C   UNL     1      44.121 -21.990   1.472  1.00  0.00     0.210 C 
ENDBRANCH  14  17
ENDBRANCH   9  11
ENDBRANCH   2   5
BRANCH   1  19
HETATM   19  N   UNL     1      42.095 -13.322   6.063  1.00  0.00    -0.184 NA
HETATM   20  C   UNL     1      42.007 -12.547   5.030  1.00  0.00     0.150 C 
BRANCH  20  21
HETATM   21  C   UNL     1      40.951 -12.769   4.020  1.00  0.00    -0.017 A 
HETATM   22  C   UNL     1      39.951 -11.810   3.825  1.00  0.00     0.016 A 
HETATM   23  C   UNL     1      38.946 -12.024   2.879  1.00  0.00     0.037 A 
HETATM   24  C   UNL     1      38.932 -13.197   2.125  1.00  0.00     0.068 A 
HETATM   25  C   UNL     1      39.930 -14.157   2.333  1.00  0.00     0.037 A 
HETATM   26  C   UNL     1      40.941 -13.949   3.278  1.00  0.00     0.016 A 
BRANCH  24  27
HETATM   27  O   UNL     1      38.006 -13.522   1.172  1.00  0.00    -0.351 OA
BRANCH  27  28
HETATM   28  C   UNL     1      38.507 -13.818  -0.134  1.00  0.00     0.175 C 
BRANCH  28  29
HETATM   29  C   UNL     1      37.889 -12.832  -1.119  1.00  0.00     0.022 C 
HETATM   30  C   UNL     1      36.947 -11.865  -0.425  1.00  0.00     0.007 C 
ENDBRANCH  28  29
ENDBRANCH  27  28
ENDBRANCH  24  27
ENDBRANCH  20  21
ENDBRANCH   1  19
TORSDOF 8
ENDMDL
MODEL 10
REMARK VINA RESULT:      -7.0      3.752      7.240
REMARK  8 active torsions:
REMARK  status: ('A' for Active; 'I' for Inactive)
REMARK    1  A    between atoms: C_2  and  C_3 
REMARK    2  A    between atoms: C_3  and  O_4 
REMARK    3  A    between atoms: O_4  and  C_5 
REMARK    4  A    between atoms: C_8  and  C_9 
REMARK    5  A    between atoms: N_10  and  N_11 
REMARK       I    between atoms: N_11  and  C_12 
REMARK    6  A    between atoms: C_12  and  C_13 
REMARK    7  A    between atoms: C_17  and  C_18 
REMARK    8  A    between atoms: C_21  and  O_22 
ROOT
HETATM    1  N   UNL     1      41.947 -12.094   2.840  1.00  0.00    -0.242 N 
HETATM    2  C   UNL     1      42.094 -13.252   2.081  1.00  0.00     0.289 C 
HETATM    3  O   UNL     1      42.103 -13.166   0.854  1.00  0.00    -0.264 OA
HETATM    4  H   UNL     1      41.810 -11.241   2.308  1.00  0.00     0.192 HD
ENDROOT
BRANCH   2   5
HETATM    5  C   UNL     1      42.211 -14.507   2.785  1.00  0.00     0.121 A 
HETATM    6  N   UNL     1      41.267 -15.015   3.626  1.00  0.00    -0.272 N 
HETATM    7  H   UNL     1      40.370 -14.585   3.834  1.00  0.00     0.189 HD
HETATM    8  N   UNL     1      41.568 -16.207   4.155  1.00  0.00    -0.174 NA
HETATM    9  C   UNL     1      42.765 -16.510   3.627  1.00  0.00     0.089 A 
HETATM   10  C   UNL     1      43.221 -15.449   2.794  1.00  0.00     0.071 A 
BRANCH   9  11
HETATM   11  C   UNL     1      43.416 -17.791   3.912  1.00  0.00    -0.005 A 
HETATM   12  C   UNL     1      43.808 -18.129   5.212  1.00  0.00     0.016 A 
HETATM   13  C   UNL     1      44.464 -19.340   5.461  1.00  0.00     0.037 A 
HETATM   14  C   UNL     1      44.735 -20.234   4.422  1.00  0.00     0.068 A 
HETATM   15  C   UNL     1      44.344 -19.906   3.124  1.00  0.00     0.037 A 
HETATM   16  C   UNL     1      43.694 -18.692   2.874  1.00  0.00     0.016 A 
BRANCH  14  17
HETATM   17  O   UNL     1      45.384 -21.376   4.803  1.00  0.00    -0.356 OA
HETATM   18  C   UNL     1      44.726 -22.607   4.529  1.00  0.00     0.210 C 
ENDBRANCH  14  17
ENDBRANCH   9  11
ENDBRANCH   2   5
BRANCH   1  19
HETATM   19  N   UNL     1      41.688 -12.122   4.179  1.00  0.00    -0.184 NA
HETATM   20  C   UNL     1      41.316 -11.009   4.725  1.00  0.00     0.150 C 
BRANCH  20  21
HETATM   21  C   UNL     1      40.948 -10.969   6.156  1.00  0.00    -0.017 A 
HETATM   22  C   UNL     1      41.748 -10.274   7.069  1.00  0.00     0.016 A 
HETATM   23  C   UNL     1      41.407 -10.245   8.423  1.00  0.00     0.037 A 
HETATM   24  C   UNL     1      40.268 -10.911   8.874  1.00  0.00     0.068 A 
HETATM   25  C   UNL     1      39.478 -11.614   7.955  1.00  0.00     0.037 A 
HETATM   26  C   UNL     1      39.812 -11.647   6.597  1.00  0.00     0.016 A 
BRANCH  24  27
HETATM   27  O   UNL     1      39.831 -10.957  10.169  1.00  0.00    -0.351 OA
BRANCH  27  28
HETATM   28  C   UNL     1      40.775 -10.585  11.177  1.00  0.00     0.175 C 
BRANCH  28  29
HETATM   29  C   UNL     1      40.406 -11.306  12.468  1.00  0.00     0.022 C 
HETATM   30  C   UNL     1      41.175 -10.756  13.656  1.00  0.00     0.007 C 
ENDBRANCH  28  29
ENDBRANCH  27  28
ENDBRANCH  24  27
ENDBRANCH  20  21
ENDBRANCH   1  19
TORSDOF 8
ENDMDL
