MODEL 1
REMARK VINA RESULT:      -8.6      0.000      0.000
REMARK  5 active torsions:
REMARK  status: ('A' for Active; 'I' for Inactive)
REMARK    1  A    between atoms: C_8  and  C_9 
REMARK    2  A    between atoms: C_9  and  N_10 
REMARK       I    between atoms: N_10  and  C_11 
REMARK       I    between atoms: C_11  and  N_12 
REMARK    3  A    between atoms: C_13  and  C_14 
REMARK    4  A    between atoms: C_14  and  C_15 
REMARK    5  A    between atoms: C_15  and  C_16 
ROOT
HETATM    1  N   UNL     1      40.962 -14.961   0.635  1.00  0.00    -0.339 N 
HETATM    2  C   UNL     1      40.500 -15.075   1.916  1.00  0.00     0.318 C 
HETATM    3  N   UNL     1      41.263 -15.868   2.760  1.00  0.00    -0.330 N 
HETATM    4  C   UNL     1      42.536 -16.540   2.416  1.00  0.00     0.089 C 
HETATM    5  C   UNL     1      43.622 -16.172   3.445  1.00  0.00     0.025 C 
HETATM    6  C   UNL     1      43.171 -16.382   4.888  1.00  0.00     0.004 C 
HETATM    7  C   UNL     1      41.858 -15.651   5.150  1.00  0.00     0.020 C 
HETATM    8  C   UNL     1      40.791 -16.050   4.137  1.00  0.00     0.128 C 
HETATM    9  O   UNL     1      39.488 -14.483   2.283  1.00  0.00    -0.247 OA
HETATM   10  H   UNL     1      41.431 -15.759   0.247  1.00  0.00     0.164 HD
ENDROOT
BRANCH   4  11
HETATM   11  C   UNL     1      42.368 -18.069   2.289  1.00  0.00     0.030 C 
BRANCH  11  12
HETATM   12  C   UNL     1      43.611 -18.755   1.715  1.00  0.00     0.040 C 
BRANCH  12  13
HETATM   13  C   UNL     1      44.033 -19.935   2.555  1.00  0.00    -0.058 A 
HETATM   14  C   UNL     1      44.006 -21.229   2.018  1.00  0.00     0.007 A 
HETATM   15  C   UNL     1      44.379 -22.325   2.797  1.00  0.00     0.001 A 
HETATM   16  C   UNL     1      44.779 -22.137   4.119  1.00  0.00     0.000 A 
HETATM   17  C   UNL     1      44.802 -20.855   4.664  1.00  0.00     0.001 A 
HETATM   18  C   UNL     1      44.428 -19.757   3.887  1.00  0.00     0.007 A 
ENDBRANCH  12  13
ENDBRANCH  11  12
ENDBRANCH   4  11
BRANCH   1  19
HETATM   19  C   UNL     1      40.251 -14.147  -0.323  1.00  0.00     0.167 C 
BRANCH  19  20
HETATM   20  C   UNL     1      41.144 -13.944  -1.495  1.00  0.00     0.009 A 
HETATM   21  C   UNL     1      41.235 -14.689  -2.657  1.00  0.00     0.034 A 
HETATM   22  C   UNL     1      40.507 -15.891  -3.124  1.00  0.00     0.070 C 
HETATM   23  N   UNL     1      42.201 -14.085  -3.413  1.00  0.00    -0.282 N 
HETATM   24  H   UNL     1      42.532 -14.348  -4.335  1.00  0.00     0.189 HD
HETATM   25  N   UNL     1      42.757 -13.018  -2.826  1.00  0.00    -0.179 NA
HETATM   26  C   UNL     1      42.114 -12.915  -1.659  1.00  0.00     0.060 A 
HETATM   27  C   UNL     1      42.459 -11.832  -0.704  1.00  0.00     0.073 C 
ENDBRANCH  19  20
ENDBRANCH   1  19
TORSDOF 5
ENDMDL
MODEL 2
REMARK VINA RESULT:      -8.5      0.330      1.912
REMARK  5 active torsions:
REMARK  status: ('A' for Active; 'I' for Inactive)
REMARK    1  A    between atoms: C_8  and  C_9 
REMARK    2  A    between atoms: C_9  and  N_10 
REMARK       I    between atoms: N_10  and  C_11 
REMARK       I    between atoms: C_11  and  N_12 
REMARK    3  A    between atoms: C_13  and  C_14 
REMARK    4  A    between atoms: C_14  and  C_15 
REMARK    5  A    between atoms: C_15  and  C_16 
ROOT
HETATM    1  N   UNL     1      40.844 -15.123   0.497  1.00  0.00    -0.339 N 
HETATM    2  C   UNL     1      40.416 -15.177   1.793  1.00  0.00     0.318 C 
HETATM    3  N   UNL     1      41.213 -15.913   2.658  1.00  0.00    -0.330 N 
HETATM    4  C   UNL     1      42.488 -16.581   2.316  1.00  0.00     0.089 C 
HETATM    5  C   UNL     1      43.593 -16.142   3.297  1.00  0.00     0.025 C 
HETATM    6  C   UNL     1      43.181 -16.285   4.760  1.00  0.00     0.004 C 
HETATM    7  C   UNL     1      41.862 -15.562   5.018  1.00  0.00     0.020 C 
HETATM    8  C   UNL     1      40.778 -16.030   4.053  1.00  0.00     0.128 C 
HETATM    9  O   UNL     1      39.402 -14.584   2.154  1.00  0.00    -0.247 OA
HETATM   10  H   UNL     1      41.318 -15.932   0.138  1.00  0.00     0.164 HD
ENDROOT
BRANCH   4  11
HETATM   11  C   UNL     1      42.344 -18.117   2.272  1.00  0.00     0.030 C 
BRANCH  11  12
HETATM   12  C   UNL     1      43.592 -18.813   1.720  1.00  0.00     0.040 C 
BRANCH  12  13
HETATM   13  C   UNL     1      44.007 -19.977   2.585  1.00  0.00    -0.058 A 
HETATM   14  C   UNL     1      44.405 -19.765   3.912  1.00  0.00     0.007 A 
HETATM   15  C   UNL     1      44.804 -20.837   4.710  1.00  0.00     0.001 A 
HETATM   16  C   UNL     1      44.815 -22.129   4.188  1.00  0.00     0.000 A 
HETATM   17  C   UNL     1      44.428 -22.350   2.868  1.00  0.00     0.001 A 
HETATM   18  C   UNL     1      44.028 -21.279   2.067  1.00  0.00     0.007 A 
ENDBRANCH  12  13
ENDBRANCH  11  12
ENDBRANCH   4  11
BRANCH   1  19
HETATM   19  C   UNL     1      40.096 -14.371  -0.484  1.00  0.00     0.167 C 
BRANCH  19  20
HETATM   20  C   UNL     1      40.949 -14.231  -1.694  1.00  0.00     0.009 A 
HETATM   21  C   UNL     1      41.966 -13.327  -1.941  1.00  0.00     0.034 A 
HETATM   22  C   UNL     1      42.540 -12.232  -1.124  1.00  0.00     0.070 C 
HETATM   23  N   UNL     1      42.433 -13.621  -3.191  1.00  0.00    -0.282 N 
HETATM   24  H   UNL     1      43.185 -13.172  -3.703  1.00  0.00     0.189 HD
HETATM   25  N   UNL     1      41.788 -14.634  -3.784  1.00  0.00    -0.179 NA
HETATM   26  C   UNL     1      40.887 -15.022  -2.876  1.00  0.00     0.060 A 
HETATM   27  C   UNL     1      39.958 -16.143  -3.170  1.00  0.00     0.073 C 
ENDBRANCH  19  20
ENDBRANCH   1  19
TORSDOF 5
ENDMDL
MODEL 3
REMARK VINA RESULT:      -8.0      2.332      6.026
REMARK  5 active torsions:
REMARK  status: ('A' for Active; 'I' for Inactive)
REMARK    1  A    between atoms: C_8  and  C_9 
REMARK    2  A    between atoms: C_9  and  N_10 
REMARK       I    between atoms: N_10  and  C_11 
REMARK       I    between atoms: C_11  and  N_12 
REMARK    3  A    between atoms: C_13  and  C_14 
REMARK    4  A    between atoms: C_14  and  C_15 
REMARK    5  A    between atoms: C_15  and  C_16 
ROOT
HETATM    1  N   UNL     1      42.065 -14.956   3.996  1.00  0.00    -0.339 N 
HETATM    2  C   UNL     1      42.130 -14.195   2.863  1.00  0.00     0.318 C 
HETATM    3  N   UNL     1      42.195 -14.899   1.670  1.00  0.00    -0.330 N 
HETATM    4  C   UNL     1      42.143 -16.370   1.519  1.00  0.00     0.089 C 
HETATM    5  C   UNL     1      41.045 -16.758   0.510  1.00  0.00     0.025 C 
HETATM    6  C   UNL     1      41.149 -15.994  -0.807  1.00  0.00     0.004 C 
HETATM    7  C   UNL     1      41.191 -14.491  -0.553  1.00  0.00     0.020 C 
HETATM    8  C   UNL     1      42.301 -14.127   0.428  1.00  0.00     0.128 C 
HETATM    9  O   UNL     1      42.105 -12.968   2.919  1.00  0.00    -0.247 OA
HETATM   10  H   UNL     1      42.552 -15.834   3.984  1.00  0.00     0.164 HD
ENDROOT
BRANCH   4  11
HETATM   11  C   UNL     1      43.513 -16.960   1.123  1.00  0.00     0.030 C 
BRANCH  11  12
HETATM   12  C   UNL     1      43.546 -18.489   1.208  1.00  0.00     0.040 C 
BRANCH  12  13
HETATM   13  C   UNL     1      44.001 -18.961   2.566  1.00  0.00    -0.058 A 
HETATM   14  C   UNL     1      44.481 -20.266   2.736  1.00  0.00     0.007 A 
HETATM   15  C   UNL     1      44.888 -20.712   3.994  1.00  0.00     0.001 A 
HETATM   16  C   UNL     1      44.815 -19.858   5.093  1.00  0.00     0.000 A 
HETATM   17  C   UNL     1      44.333 -18.561   4.936  1.00  0.00     0.001 A 
HETATM   18  C   UNL     1      43.924 -18.113   3.679  1.00  0.00     0.007 A 
ENDBRANCH  12  13
ENDBRANCH  11  12
ENDBRANCH   4  11
BRANCH   1  19
HETATM   19  C   UNL     1      41.979 -14.324   5.291  1.00  0.00     0.167 C 
BRANCH  19  20
HETATM   20  C   UNL     1      42.511 -15.281   6.297  1.00  0.00     0.009 A 
HETATM   21  C   UNL     1      43.706 -15.235   6.994  1.00  0.00     0.034 A 
HETATM   22  C   UNL     1      44.821 -14.260   6.987  1.00  0.00     0.070 C 
HETATM   23  N   UNL     1      43.715 -16.343   7.795  1.00  0.00    -0.282 N 
HETATM   24  H   UNL     1      44.428 -16.635   8.454  1.00  0.00     0.189 HD
HETATM   25  N   UNL     1      42.629 -17.115   7.661  1.00  0.00    -0.179 NA
HETATM   26  C   UNL     1      41.882 -16.472   6.757  1.00  0.00     0.060 A 
HETATM   27  C   UNL     1      40.572 -17.029   6.332  1.00  0.00     0.073 C 
ENDBRANCH  19  20
ENDBRANCH   1  19
TORSDOF 5
ENDMDL
MODEL 4
REMARK VINA RESULT:      -8.0      2.138      2.813
REMARK  5 active torsions:
REMARK  status: ('A' for Active; 'I' for Inactive)
REMARK    1  A    between atoms: C_8  and  C_9 
REMARK    2  A    between atoms: C_9  and  N_10 
REMARK       I    between atoms: N_10  and  C_11 
REMARK       I    between atoms: C_11  and  N_12 
REMARK    3  A    between atoms: C_13  and  C_14 
REMARK    4  A    between atoms: C_14  and  C_15 
REMARK    5  A    between atoms: C_15  and  C_16 
ROOT
HETATM    1  N   UNL     1      41.526 -14.378   3.073  1.00  0.00    -0.339 N 
HETATM    2  C   UNL     1      40.905 -14.980   4.131  1.00  0.00     0.318 C 
HETATM    3  N   UNL     1      41.532 -16.110   4.632  1.00  0.00    -0.330 N 
HETATM    4  C   UNL     1      42.818 -16.675   4.166  1.00  0.00     0.089 C 
HETATM    5  C   UNL     1      43.777 -16.857   5.359  1.00  0.00     0.025 C 
HETATM    6  C   UNL     1      43.142 -17.615   6.522  1.00  0.00     0.004 C 
HETATM    7  C   UNL     1      41.828 -16.959   6.935  1.00  0.00     0.020 C 
HETATM    8  C   UNL     1      40.886 -16.812   5.745  1.00  0.00     0.128 C 
HETATM    9  O   UNL     1      39.871 -14.517   4.609  1.00  0.00    -0.247 OA
HETATM   10  H   UNL     1      42.018 -14.975   2.433  1.00  0.00     0.164 HD
ENDROOT
BRANCH   4  11
HETATM   11  C   UNL     1      42.624 -17.992   3.386  1.00  0.00     0.030 C 
BRANCH  11  12
HETATM   12  C   UNL     1      43.916 -18.488   2.729  1.00  0.00     0.040 C 
BRANCH  12  13
HETATM   13  C   UNL     1      44.183 -19.937   3.051  1.00  0.00    -0.058 A 
HETATM   14  C   UNL     1      44.631 -20.306   4.326  1.00  0.00     0.007 A 
HETATM   15  C   UNL     1      44.894 -21.644   4.623  1.00  0.00     0.001 A 
HETATM   16  C   UNL     1      44.716 -22.623   3.648  1.00  0.00     0.000 A 
HETATM   17  C   UNL     1      44.278 -22.265   2.375  1.00  0.00     0.001 A 
HETATM   18  C   UNL     1      44.014 -20.928   2.074  1.00  0.00     0.007 A 
ENDBRANCH  12  13
ENDBRANCH  11  12
ENDBRANCH   4  11
BRANCH   1  19
HETATM   19  C   UNL     1      40.966 -13.184   2.484  1.00  0.00     0.167 C 
BRANCH  19  20
HETATM   20  C   UNL     1      40.092 -13.604   1.357  1.00  0.00     0.009 A 
HETATM   21  C   UNL     1      40.339 -14.537   0.365  1.00  0.00     0.034 A 
HETATM   22  C   UNL     1      41.506 -15.408   0.093  1.00  0.00     0.070 C 
HETATM   23  N   UNL     1      39.221 -14.553  -0.420  1.00  0.00    -0.282 N 
HETATM   24  H   UNL     1      39.037 -15.123  -1.239  1.00  0.00     0.189 HD
HETATM   25  N   UNL     1      38.273 -13.692  -0.028  1.00  0.00    -0.179 NA
HETATM   26  C   UNL     1      38.788 -13.114   1.061  1.00  0.00     0.060 A 
HETATM   27  C   UNL     1      38.021 -12.076   1.796  1.00  0.00     0.073 C 
ENDBRANCH  19  20
ENDBRANCH   1  19
TORSDOF 5
ENDMDL
MODEL 5
REMARK VINA RESULT:      -7.8      4.867      7.540
REMARK  5 active torsions:
REMARK  status: ('A' for Active; 'I' for Inactive)
REMARK    1  A    between atoms: C_8  and  C_9 
REMARK    2  A    between atoms: C_9  and  N_10 
REMARK       I    between atoms: N_10  and  C_11 
REMARK       I    between atoms: C_11  and  N_12 
REMARK    3  A    between atoms: C_13  and  C_14 
REMARK    4  A    between atoms: C_14  and  C_15 
REMARK    5  A    between atoms: C_15  and  C_16 
ROOT
HETATM    1  N   UNL     1      44.440 -13.941   7.537  1.00  0.00    -0.339 N 
HETATM    2  C   UNL     1      44.040 -14.194   6.255  1.00  0.00     0.318 C 
HETATM    3  N   UNL     1      43.563 -15.473   6.016  1.00  0.00    -0.330 N 
HETATM    4  C   UNL     1      43.401 -16.548   7.020  1.00  0.00     0.089 C 
HETATM    5  C   UNL     1      41.964 -17.102   6.973  1.00  0.00     0.025 C 
HETATM    6  C   UNL     1      41.520 -17.487   5.564  1.00  0.00     0.004 C 
HETATM    7  C   UNL     1      41.718 -16.319   4.603  1.00  0.00     0.020 C 
HETATM    8  C   UNL     1      43.153 -15.804   4.648  1.00  0.00     0.128 C 
HETATM    9  O   UNL     1      44.083 -13.320   5.391  1.00  0.00    -0.247 OA
HETATM   10  H   UNL     1      44.846 -14.706   8.047  1.00  0.00     0.164 HD
ENDROOT
BRANCH   4  11
HETATM   11  C   UNL     1      44.448 -17.668   6.844  1.00  0.00     0.030 C 
BRANCH  11  12
HETATM   12  C   UNL     1      43.868 -19.065   7.088  1.00  0.00     0.040 C 
BRANCH  12  13
HETATM   13  C   UNL     1      44.198 -20.009   5.959  1.00  0.00    -0.058 A 
HETATM   14  C   UNL     1      44.385 -19.517   4.660  1.00  0.00     0.007 A 
HETATM   15  C   UNL     1      44.676 -20.389   3.609  1.00  0.00     0.001 A 
HETATM   16  C   UNL     1      44.777 -21.758   3.847  1.00  0.00     0.000 A 
HETATM   17  C   UNL     1      44.586 -22.257   5.134  1.00  0.00     0.001 A 
HETATM   18  C   UNL     1      44.295 -21.388   6.186  1.00  0.00     0.007 A 
ENDBRANCH  12  13
ENDBRANCH  11  12
ENDBRANCH   4  11
BRANCH   1  19
HETATM   19  C   UNL     1      44.939 -12.636   7.898  1.00  0.00     0.167 C 
BRANCH  19  20
HETATM   20  C   UNL     1      43.946 -12.007   8.809  1.00  0.00     0.009 A 
HETATM   21  C   UNL     1      42.749 -11.386   8.495  1.00  0.00     0.034 A 
HETATM   22  C   UNL     1      42.067 -11.144   7.203  1.00  0.00     0.070 C 
HETATM   23  N   UNL     1      42.212 -10.985   9.686  1.00  0.00    -0.282 N 
HETATM   24  H   UNL     1      41.334 -10.504   9.849  1.00  0.00     0.189 HD
HETATM   25  N   UNL     1      42.973 -11.280  10.748  1.00  0.00    -0.179 NA
HETATM   26  C   UNL     1      44.029 -11.913  10.227  1.00  0.00     0.060 A 
HETATM   27  C   UNL     1      45.121 -12.404  11.106  1.00  0.00     0.073 C 
ENDBRANCH  19  20
ENDBRANCH   1  19
TORSDOF 5
ENDMDL
MODEL 6
REMARK VINA RESULT:      -7.5      4.999      8.304
REMARK  5 active torsions:
REMARK  status: ('A' for Active; 'I' for Inactive)
REMARK    1  A    between atoms: C_8  and  C_9 
REMARK    2  A    between atoms: C_9  and  N_10 
REMARK       I    between atoms: N_10  and  C_11 
REMARK       I    between atoms: C_11  and  N_12 
REMARK    3  A    between atoms: C_13  and  C_14 
REMARK    4  A    between atoms: C_14  and  C_15 
REMARK    5  A    between atoms: C_15  and  C_16 
ROOT
HETATM    1  N   UNL     1      42.298 -11.768   7.611  1.00  0.00    -0.339 N 
HETATM    2  C   UNL     1      41.833 -11.438   6.369  1.00  0.00     0.318 C 
HETATM    3  N   UNL     1      41.568 -12.505   5.524  1.00  0.00    -0.330 N 
HETATM    4  C   UNL     1      41.689 -13.940   5.864  1.00  0.00     0.089 C 
HETATM    5  C   UNL     1      40.372 -14.672   5.538  1.00  0.00     0.025 C 
HETATM    6  C   UNL     1      39.877 -14.401   4.120  1.00  0.00     0.004 C 
HETATM    7  C   UNL     1      39.779 -12.901   3.864  1.00  0.00     0.020 C 
HETATM    8  C   UNL     1      41.100 -12.201   4.168  1.00  0.00     0.128 C 
HETATM    9  O   UNL     1      41.644 -10.266   6.051  1.00  0.00    -0.247 OA
HETATM   10  H   UNL     1      42.876 -12.587   7.679  1.00  0.00     0.164 HD
ENDROOT
BRANCH   4  11
HETATM   11  C   UNL     1      42.895 -14.601   5.165  1.00  0.00     0.030 C 
BRANCH  11  12
HETATM   12  C   UNL     1      42.964 -16.113   5.406  1.00  0.00     0.040 C 
BRANCH  12  13
HETATM   13  C   UNL     1      43.302 -16.863   4.142  1.00  0.00    -0.058 A 
HETATM   14  C   UNL     1      43.625 -18.225   4.195  1.00  0.00     0.007 A 
HETATM   15  C   UNL     1      43.954 -18.920   3.030  1.00  0.00     0.001 A 
HETATM   16  C   UNL     1      43.968 -18.258   1.804  1.00  0.00     0.000 A 
HETATM   17  C   UNL     1      43.655 -16.901   1.742  1.00  0.00     0.001 A 
HETATM   18  C   UNL     1      43.326 -16.204   2.906  1.00  0.00     0.007 A 
ENDBRANCH  12  13
ENDBRANCH  11  12
ENDBRANCH   4  11
BRANCH   1  19
HETATM   19  C   UNL     1      42.592 -10.734   8.575  1.00  0.00     0.167 C 
BRANCH  19  20
HETATM   20  C   UNL     1      43.175 -11.388   9.776  1.00  0.00     0.009 A 
HETATM   21  C   UNL     1      42.700 -11.401  11.076  1.00  0.00     0.034 A 
HETATM   22  C   UNL     1      41.497 -10.800  11.698  1.00  0.00     0.070 C 
HETATM   23  N   UNL     1      43.596 -12.142  11.794  1.00  0.00    -0.282 N 
HETATM   24  H   UNL     1      43.570 -12.375  12.781  1.00  0.00     0.189 HD
HETATM   25  N   UNL     1      44.625 -12.597  11.069  1.00  0.00    -0.179 NA
HETATM   26  C   UNL     1      44.375 -12.152   9.833  1.00  0.00     0.060 A 
HETATM   27  C   UNL     1      45.311 -12.454   8.721  1.00  0.00     0.073 C 
ENDBRANCH  19  20
ENDBRANCH   1  19
TORSDOF 5
ENDMDL
MODEL 7
REMARK VINA RESULT:      -7.5      1.672      2.450
REMARK  5 active torsions:
REMARK  status: ('A' for Active; 'I' for Inactive)
REMARK    1  A    between atoms: C_8  and  C_9 
REMARK    2  A    between atoms: C_9  and  N_10 
REMARK       I    between atoms: N_10  and  C_11 
REMARK       I    between atoms: C_11  and  N_12 
REMARK    3  A    between atoms: C_13  and  C_14 
REMARK    4  A    between atoms: C_14  and  C_15 
REMARK    5  A    between atoms: C_15  and  C_16 
ROOT
HETATM    1  N   UNL     1      41.244 -15.096   0.897  1.00  0.00    -0.339 N 
HETATM    2  C   UNL     1      40.756 -15.945   1.850  1.00  0.00     0.318 C 
HETATM    3  N   UNL     1      41.682 -16.403   2.775  1.00  0.00    -0.330 N 
HETATM    4  C   UNL     1      43.108 -16.013   2.852  1.00  0.00     0.089 C 
HETATM    5  C   UNL     1      43.445 -15.525   4.274  1.00  0.00     0.025 C 
HETATM    6  C   UNL     1      43.001 -16.501   5.360  1.00  0.00     0.004 C 
HETATM    7  C   UNL     1      41.522 -16.838   5.204  1.00  0.00     0.020 C 
HETATM    8  C   UNL     1      41.216 -17.344   3.798  1.00  0.00     0.128 C 
HETATM    9  O   UNL     1      39.566 -16.250   1.882  1.00  0.00    -0.247 OA
HETATM   10  H   UNL     1      42.190 -15.244   0.594  1.00  0.00     0.164 HD
ENDROOT
BRANCH   4  11
HETATM   11  C   UNL     1      44.044 -17.156   2.406  1.00  0.00     0.030 C 
BRANCH  11  12
HETATM   12  C   UNL     1      43.284 -18.357   1.835  1.00  0.00     0.040 C 
BRANCH  12  13
HETATM   13  C   UNL     1      43.750 -19.653   2.449  1.00  0.00    -0.058 A 
HETATM   14  C   UNL     1      44.313 -19.664   3.732  1.00  0.00     0.007 A 
HETATM   15  C   UNL     1      44.761 -20.859   4.297  1.00  0.00     0.001 A 
HETATM   16  C   UNL     1      44.654 -22.051   3.583  1.00  0.00     0.000 A 
HETATM   17  C   UNL     1      44.102 -22.049   2.304  1.00  0.00     0.001 A 
HETATM   18  C   UNL     1      43.654 -20.856   1.736  1.00  0.00     0.007 A 
ENDBRANCH  12  13
ENDBRANCH  11  12
ENDBRANCH   4  11
BRANCH   1  19
HETATM   19  C   UNL     1      40.362 -14.548  -0.107  1.00  0.00     0.167 C 
BRANCH  19  20
HETATM   20  C   UNL     1      40.385 -13.068   0.028  1.00  0.00     0.009 A 
HETATM   21  C   UNL     1      39.576 -12.252   0.800  1.00  0.00     0.034 A 
HETATM   22  C   UNL     1      38.457 -12.554   1.723  1.00  0.00     0.070 C 
HETATM   23  N   UNL     1      40.008 -10.975   0.575  1.00  0.00    -0.282 N 
HETATM   24  H   UNL     1      39.657 -10.113   0.978  1.00  0.00     0.189 HD
HETATM   25  N   UNL     1      41.022 -10.894  -0.296  1.00  0.00    -0.179 NA
HETATM   26  C   UNL     1      41.268 -12.165  -0.629  1.00  0.00     0.060 A 
HETATM   27  C   UNL     1      42.345 -12.494  -1.598  1.00  0.00     0.073 C 
ENDBRANCH  19  20
ENDBRANCH   1  19
TORSDOF 5
ENDMDL
MODEL 8
REMARK VINA RESULT:      -7.5      2.886      6.298
REMARK  5 active torsions:
REMARK  status: ('A' for Active; 'I' for Inactive)
REMARK    1  A    between atoms: C_8  and  C_9 
REMARK    2  A    between atoms: C_9  and  N_10 
REMARK       I    between atoms: N_10  and  C_11 
REMARK       I    between atoms: C_11  and  N_12 
REMARK    3  A    between atoms: C_13  and  C_14 
REMARK    4  A    between atoms: C_14  and  C_15 
REMARK    5  A    between atoms: C_15  and  C_16 
ROOT
HETATM    1  N   UNL     1      42.455 -14.152   3.414  1.00  0.00    -0.339 N 
HETATM    2  C   UNL     1      42.199 -15.398   3.913  1.00  0.00     0.318 C 
HETATM    3  N   UNL     1      42.433 -16.452   3.043  1.00  0.00    -0.330 N 
HETATM    4  C   UNL     1      42.977 -16.349   1.670  1.00  0.00     0.089 C 
HETATM    5  C   UNL     1      44.192 -17.283   1.513  1.00  0.00     0.025 C 
HETATM    6  C   UNL     1      43.908 -18.711   1.970  1.00  0.00     0.004 C 
HETATM    7  C   UNL     1      43.357 -18.718   3.393  1.00  0.00     0.020 C 
HETATM    8  C   UNL     1      42.141 -17.808   3.519  1.00  0.00     0.128 C 
HETATM    9  O   UNL     1      41.813 -15.554   5.069  1.00  0.00    -0.247 OA
HETATM   10  H   UNL     1      42.287 -14.009   2.435  1.00  0.00     0.164 HD
ENDROOT
BRANCH   4  11
HETATM   11  C   UNL     1      41.902 -16.628   0.599  1.00  0.00     0.030 C 
BRANCH  11  12
HETATM   12  C   UNL     1      41.576 -15.394  -0.248  1.00  0.00     0.040 C 
BRANCH  12  13
HETATM   13  C   UNL     1      40.212 -14.840   0.080  1.00  0.00    -0.058 A 
HETATM   14  C   UNL     1      39.611 -15.128   1.313  1.00  0.00     0.007 A 
HETATM   15  C   UNL     1      38.343 -14.630   1.615  1.00  0.00     0.001 A 
HETATM   16  C   UNL     1      37.663 -13.844   0.686  1.00  0.00     0.000 A 
HETATM   17  C   UNL     1      38.249 -13.558  -0.545  1.00  0.00     0.001 A 
HETATM   18  C   UNL     1      39.518 -14.055  -0.850  1.00  0.00     0.007 A 
ENDBRANCH  12  13
ENDBRANCH  11  12
ENDBRANCH   4  11
BRANCH   1  19
HETATM   19  C   UNL     1      42.260 -12.985   4.242  1.00  0.00     0.167 C 
BRANCH  19  20
HETATM   20  C   UNL     1      40.945 -12.390   3.884  1.00  0.00     0.009 A 
HETATM   21  C   UNL     1      40.563 -11.769   2.708  1.00  0.00     0.034 A 
HETATM   22  C   UNL     1      41.294 -11.493   1.449  1.00  0.00     0.070 C 
HETATM   23  N   UNL     1      39.257 -11.407   2.883  1.00  0.00    -0.282 N 
HETATM   24  H   UNL     1      38.642 -10.937   2.227  1.00  0.00     0.189 HD
HETATM   25  N   UNL     1      38.765 -11.728   4.087  1.00  0.00    -0.179 NA
HETATM   26  C   UNL     1      39.782 -12.338   4.703  1.00  0.00     0.060 A 
HETATM   27  C   UNL     1      39.625 -12.847   6.089  1.00  0.00     0.073 C 
ENDBRANCH  19  20
ENDBRANCH   1  19
TORSDOF 5
ENDMDL
MODEL 9
REMARK VINA RESULT:      -7.4      5.048      8.305
REMARK  5 active torsions:
REMARK  status: ('A' for Active; 'I' for Inactive)
REMARK    1  A    between atoms: C_8  and  C_9 
REMARK    2  A    between atoms: C_9  and  N_10 
REMARK       I    between atoms: N_10  and  C_11 
REMARK       I    between atoms: C_11  and  N_12 
REMARK    3  A    between atoms: C_13  and  C_14 
REMARK    4  A    between atoms: C_14  and  C_15 
REMARK    5  A    between atoms: C_15  and  C_16 
ROOT
HETATM    1  N   UNL     1      42.028 -11.501   7.386  1.00  0.00    -0.339 N 
HETATM    2  C   UNL     1      41.633 -11.303   6.093  1.00  0.00     0.318 C 
HETATM    3  N   UNL     1      41.487 -12.449   5.327  1.00  0.00    -0.330 N 
HETATM    4  C   UNL     1      41.663 -13.842   5.796  1.00  0.00     0.089 C 
HETATM    5  C   UNL     1      40.415 -14.677   5.449  1.00  0.00     0.025 C 
HETATM    6  C   UNL     1      40.005 -14.554   3.984  1.00  0.00     0.004 C 
HETATM    7  C   UNL     1      39.843 -13.088   3.595  1.00  0.00     0.020 C 
HETATM    8  C   UNL     1      41.098 -12.287   3.923  1.00  0.00     0.128 C 
HETATM    9  O   UNL     1      41.401 -10.174   5.664  1.00  0.00    -0.247 OA
HETATM   10  H   UNL     1      42.644 -12.275   7.561  1.00  0.00     0.164 HD
ENDROOT
BRANCH   4  11
HETATM   11  C   UNL     1      42.950 -14.483   5.235  1.00  0.00     0.030 C 
BRANCH  11  12
HETATM   12  C   UNL     1      43.005 -15.997   5.464  1.00  0.00     0.040 C 
BRANCH  12  13
HETATM   13  C   UNL     1      43.349 -16.738   4.196  1.00  0.00    -0.058 A 
HETATM   14  C   UNL     1      43.356 -16.067   2.966  1.00  0.00     0.007 A 
HETATM   15  C   UNL     1      43.659 -16.752   1.789  1.00  0.00     0.001 A 
HETATM   16  C   UNL     1      43.952 -18.114   1.830  1.00  0.00     0.000 A 
HETATM   17  C   UNL     1      43.941 -18.792   3.048  1.00  0.00     0.001 A 
HETATM   18  C   UNL     1      43.638 -18.109   4.227  1.00  0.00     0.007 A 
ENDBRANCH  12  13
ENDBRANCH  11  12
ENDBRANCH   4  11
BRANCH   1  19
HETATM   19  C   UNL     1      42.196 -10.376   8.275  1.00  0.00     0.167 C 
BRANCH  19  20
HETATM   20  C   UNL     1      41.722 -10.789   9.622  1.00  0.00     0.009 A 
HETATM   21  C   UNL     1      42.464 -11.153  10.732  1.00  0.00     0.034 A 
HETATM   22  C   UNL     1      43.925 -11.252  10.958  1.00  0.00     0.070 C 
HETATM   23  N   UNL     1      41.556 -11.437  11.713  1.00  0.00    -0.282 N 
HETATM   24  H   UNL     1      41.734 -11.729  12.668  1.00  0.00     0.189 HD
HETATM   25  N   UNL     1      40.282 -11.303  11.325  1.00  0.00    -0.179 NA
HETATM   26  C   UNL     1      40.369 -10.898  10.054  1.00  0.00     0.060 A 
HETATM   27  C   UNL     1      39.140 -10.639   9.261  1.00  0.00     0.073 C 
ENDBRANCH  19  20
ENDBRANCH   1  19
TORSDOF 5
ENDMDL
MODEL 10
REMARK VINA RESULT:      -7.4      4.231      7.290
REMARK  5 active torsions:
REMARK  status: ('A' for Active; 'I' for Inactive)
REMARK    1  A    between atoms: C_8  and  C_9 
REMARK    2  A    between atoms: C_9  and  N_10 
REMARK       I    between atoms: N_10  and  C_11 
REMARK       I    between atoms: C_11  and  N_12 
REMARK    3  A    between atoms: C_13  and  C_14 
REMARK    4  A    between atoms: C_14  and  C_15 
REMARK    5  A    between atoms: C_15  and  C_16 
ROOT
HETATM    1  N   UNL     1      42.544 -12.843   6.727  1.00  0.00    -0.339 N 
HETATM    2  C   UNL     1      42.167 -12.840   5.413  1.00  0.00     0.318 C 
HETATM    3  N   UNL     1      42.085 -14.086   4.811  1.00  0.00    -0.330 N 
HETATM    4  C   UNL     1      42.311 -15.393   5.469  1.00  0.00     0.089 C 
HETATM    5  C   UNL     1      41.107 -16.322   5.222  1.00  0.00     0.025 C 
HETATM    6  C   UNL     1      40.721 -16.420   3.749  1.00  0.00     0.004 C 
HETATM    7  C   UNL     1      40.505 -15.029   3.159  1.00  0.00     0.020 C 
HETATM    8  C   UNL     1      41.718 -14.135   3.392  1.00  0.00     0.128 C 
HETATM    9  O   UNL     1      41.896 -11.793   4.831  1.00  0.00    -0.247 OA
HETATM   10  H   UNL     1      43.189 -13.556   7.015  1.00  0.00     0.164 HD
ENDROOT
BRANCH   4  11
HETATM   11  C   UNL     1      43.635 -16.046   5.020  1.00  0.00     0.030 C 
BRANCH  11  12
HETATM   12  C   UNL     1      43.879 -17.406   5.682  1.00  0.00     0.040 C 
BRANCH  12  13
HETATM   13  C   UNL     1      44.124 -18.487   4.659  1.00  0.00    -0.058 A 
HETATM   14  C   UNL     1      43.829 -18.259   3.308  1.00  0.00     0.007 A 
HETATM   15  C   UNL     1      44.039 -19.262   2.360  1.00  0.00     0.001 A 
HETATM   16  C   UNL     1      44.541 -20.500   2.755  1.00  0.00     0.000 A 
HETATM   17  C   UNL     1      44.831 -20.738   4.097  1.00  0.00     0.001 A 
HETATM   18  C   UNL     1      44.621 -19.738   5.047  1.00  0.00     0.007 A 
ENDBRANCH  12  13
ENDBRANCH  11  12
ENDBRANCH   4  11
BRANCH   1  19
HETATM   19  C   UNL     1      42.646 -11.600   7.455  1.00  0.00     0.167 C 
BRANCH  19  20
HETATM   20  C   UNL     1      43.634 -11.796   8.549  1.00  0.00     0.009 A 
HETATM   21  C   UNL     1      43.684 -11.196   9.794  1.00  0.00     0.034 A 
HETATM   22  C   UNL     1      42.808 -10.196  10.448  1.00  0.00     0.070 C 
HETATM   23  N   UNL     1      44.780 -11.721  10.420  1.00  0.00    -0.282 N 
HETATM   24  H   UNL     1      45.126 -11.523  11.353  1.00  0.00     0.189 HD
HETATM   25  N   UNL     1      45.457 -12.602   9.672  1.00  0.00    -0.179 NA
HETATM   26  C   UNL     1      44.762 -12.664   8.532  1.00  0.00     0.060 A 
HETATM   27  C   UNL     1      45.209 -13.551   7.427  1.00  0.00     0.073 C 
ENDBRANCH  19  20
ENDBRANCH   1  19
TORSDOF 5
ENDMDL
