MODEL 1
REMARK VINA RESULT:      -9.2      0.000      0.000
REMARK  9 active torsions:
REMARK  status: ('A' for Active; 'I' for Inactive)
REMARK    1  A    between atoms: C_2  and  C_3 
REMARK    2  A    between atoms: C_3  and  O_4 
REMARK    3  A    between atoms: O_4  and  C_5 
REMARK    4  A    between atoms: C_7  and  C_8 
REMARK       I    between atoms: C_8  and  N_9 
REMARK    5  A    between atoms: N_9  and  C_10 
REMARK    6  A    between atoms: C_10  and  N_11 
REMARK    7  A    between atoms: N_11  and  C_12 
REMARK    8  A    between atoms: C_14  and  O_15 
REMARK    9  A    between atoms: C_16  and  C_17 
ROOT
HETATM    1  C   UNL     1      40.270 -11.997   5.485  1.00  0.00     0.036 A 
HETATM    2  C   UNL     1      39.756 -13.210   5.942  1.00  0.00     0.067 A 
HETATM    3  C   UNL     1      40.375 -14.421   5.612  1.00  0.00     0.082 A 
HETATM    4  C   UNL     1      41.534 -14.451   4.822  1.00  0.00     0.050 A 
HETATM    5  C   UNL     1      42.079 -13.215   4.426  1.00  0.00     0.021 A 
HETATM    6  C   UNL     1      41.468 -12.000   4.772  1.00  0.00     0.030 A 
ENDROOT
BRANCH   1   7
HETATM    7  N   UNL     1      39.649 -10.760   5.755  1.00  0.00    -0.333 N 
HETATM    8  H   UNL     1      38.859 -10.508   5.158  1.00  0.00     0.168 HD
BRANCH   7   9
HETATM    9  C   UNL     1      39.806  -9.936   6.847  1.00  0.00     0.179 C 
HETATM   10  S   UNL     1      38.980  -8.530   7.230  1.00  0.00    -0.040 SA
BRANCH   9  11
HETATM   11  N   UNL     1      40.788 -10.310   7.739  1.00  0.00    -0.299 N 
HETATM   12  C   UNL     1      40.678 -10.656   9.078  1.00  0.00     0.257 C 
HETATM   13  O   UNL     1      39.642 -11.055   9.599  1.00  0.00    -0.267 OA
HETATM   14  H   UNL     1      41.716 -10.214   7.349  1.00  0.00     0.171 HD
BRANCH  12  15
HETATM   15  C   UNL     1      41.960 -10.612   9.835  1.00  0.00     0.035 A 
HETATM   16  C   UNL     1      43.188 -10.741   9.175  1.00  0.00     0.053 A 
HETATM   17  C   UNL     1      44.384 -10.765   9.894  1.00  0.00     0.069 A 
HETATM   18  C   UNL     1      44.356 -10.608  11.279  1.00  0.00     0.037 A 
HETATM   19  C   UNL     1      43.132 -10.438  11.939  1.00  0.00     0.004 A 
HETATM   20  C   UNL     1      41.935 -10.439  11.221  1.00  0.00     0.017 A 
BRANCH  17  21
HETATM   21  O   UNL     1      45.500 -10.928   9.125  1.00  0.00    -0.351 OA
BRANCH  21  22
HETATM   22  C   UNL     1      46.065 -12.239   9.071  1.00  0.00     0.175 C 
BRANCH  22  23
HETATM   23  C   UNL     1      45.947 -12.725   7.630  1.00  0.00     0.022 C 
HETATM   24  C   UNL     1      44.827 -13.734   7.456  1.00  0.00     0.007 C 
ENDBRANCH  22  23
ENDBRANCH  21  22
ENDBRANCH  17  21
ENDBRANCH  12  15
ENDBRANCH   9  11
ENDBRANCH   7   9
ENDBRANCH   1   7
BRANCH   3  25
HETATM   25  O   UNL     1      39.804 -15.578   6.070  1.00  0.00    -0.360 OA
HETATM   26  H   UNL     1      39.627 -16.174   5.325  1.00  0.00     0.217 HD
ENDBRANCH   3  25
BRANCH   4  27
HETATM   27  C   UNL     1      42.170 -15.683   4.350  1.00  0.00     0.183 A 
HETATM   28  O   UNL     1      43.116 -16.254   5.161  1.00  0.00    -0.288 OA
HETATM   29  C   UNL     1      43.454 -17.414   4.534  1.00  0.00     0.112 A 
HETATM   30  C   UNL     1      42.722 -17.480   3.362  1.00  0.00     0.094 A 
HETATM   31  C   UNL     1      44.355 -18.379   4.980  1.00  0.00    -0.025 A 
HETATM   32  N   UNL     1      41.930 -16.364   3.239  1.00  0.00    -0.221 NA
HETATM   33  C   UNL     1      42.871 -18.601   2.534  1.00  0.00     0.041 A 
HETATM   34  C   UNL     1      43.747 -19.626   2.941  1.00  0.00    -0.059 A 
HETATM   35  C   UNL     1      44.478 -19.500   4.136  1.00  0.00     0.016 A 
HETATM   36  C   UNL     1      43.915 -20.841   2.073  1.00  0.00     0.048 C 
HETATM   37  C   UNL     1      45.121 -18.279   6.260  1.00  0.00     0.051 C 
ENDBRANCH   4  27
TORSDOF 9
ENDMDL
MODEL 2
REMARK VINA RESULT:      -9.1      1.523      2.174
REMARK  9 active torsions:
REMARK  status: ('A' for Active; 'I' for Inactive)
REMARK    1  A    between atoms: C_2  and  C_3 
REMARK    2  A    between atoms: C_3  and  O_4 
REMARK    3  A    between atoms: O_4  and  C_5 
REMARK    4  A    between atoms: C_7  and  C_8 
REMARK       I    between atoms: C_8  and  N_9 
REMARK    5  A    between atoms: N_9  and  C_10 
REMARK    6  A    between atoms: C_10  and  N_11 
REMARK    7  A    between atoms: N_11  and  C_12 
REMARK    8  A    between atoms: C_14  and  O_15 
REMARK    9  A    between atoms: C_16  and  C_17 
ROOT
HETATM    1  C   UNL     1      41.018 -12.893   5.705  1.00  0.00     0.036 A 
HETATM    2  C   UNL     1      40.226 -13.986   6.055  1.00  0.00     0.067 A 
HETATM    3  C   UNL     1      40.721 -15.291   5.952  1.00  0.00     0.082 A 
HETATM    4  C   UNL     1      42.027 -15.539   5.505  1.00  0.00     0.050 A 
HETATM    5  C   UNL     1      42.836 -14.423   5.221  1.00  0.00     0.021 A 
HETATM    6  C   UNL     1      42.346 -13.113   5.340  1.00  0.00     0.030 A 
ENDROOT
BRANCH   1   7
HETATM    7  N   UNL     1      40.542 -11.566   5.748  1.00  0.00    -0.333 N 
HETATM    8  H   UNL     1      39.706 -11.365   5.196  1.00  0.00     0.168 HD
BRANCH   7   9
HETATM    9  C   UNL     1      40.905 -10.547   6.599  1.00  0.00     0.179 C 
HETATM   10  S   UNL     1      41.148  -8.925   6.253  1.00  0.00    -0.040 SA
BRANCH   9  11
HETATM   11  N   UNL     1      41.114 -10.911   7.911  1.00  0.00    -0.299 N 
HETATM   12  C   UNL     1      40.244 -10.861   8.990  1.00  0.00     0.257 C 
HETATM   13  O   UNL     1      39.022 -10.839   8.884  1.00  0.00    -0.267 OA
HETATM   14  H   UNL     1      42.079 -11.157   8.091  1.00  0.00     0.171 HD
BRANCH  12  15
HETATM   15  C   UNL     1      40.905 -10.947  10.322  1.00  0.00     0.035 A 
HETATM   16  C   UNL     1      42.298 -10.863  10.439  1.00  0.00     0.053 A 
HETATM   17  C   UNL     1      42.919 -11.010  11.680  1.00  0.00     0.069 A 
HETATM   18  C   UNL     1      42.138 -11.190  12.821  1.00  0.00     0.037 A 
HETATM   19  C   UNL     1      40.743 -11.234  12.715  1.00  0.00     0.004 A 
HETATM   20  C   UNL     1      40.124 -11.112  11.468  1.00  0.00     0.017 A 
BRANCH  17  21
HETATM   21  O   UNL     1      44.281 -10.937  11.640  1.00  0.00    -0.351 OA
BRANCH  21  22
HETATM   22  C   UNL     1      44.956 -11.879  10.804  1.00  0.00     0.175 C 
BRANCH  22  23
HETATM   23  C   UNL     1      45.712 -11.084   9.743  1.00  0.00     0.022 C 
HETATM   24  C   UNL     1      46.183 -11.961   8.598  1.00  0.00     0.007 C 
ENDBRANCH  22  23
ENDBRANCH  21  22
ENDBRANCH  17  21
ENDBRANCH  12  15
ENDBRANCH   9  11
ENDBRANCH   7   9
ENDBRANCH   1   7
BRANCH   3  25
HETATM   25  O   UNL     1      39.883 -16.322   6.286  1.00  0.00    -0.360 OA
HETATM   26  H   UNL     1      40.400 -17.066   6.633  1.00  0.00     0.217 HD
ENDBRANCH   3  25
BRANCH   4  27
HETATM   27  C   UNL     1      42.572 -16.879   5.271  1.00  0.00     0.183 A 
HETATM   28  O   UNL     1      42.846 -17.229   3.974  1.00  0.00    -0.288 OA
HETATM   29  C   UNL     1      43.425 -18.458   4.064  1.00  0.00     0.112 A 
HETATM   30  C   UNL     1      43.449 -18.808   5.402  1.00  0.00     0.094 A 
HETATM   31  C   UNL     1      43.923 -19.230   3.016  1.00  0.00    -0.025 A 
HETATM   32  N   UNL     1      42.880 -17.812   6.159  1.00  0.00    -0.221 NA
HETATM   33  C   UNL     1      44.022 -20.033   5.770  1.00  0.00     0.041 A 
HETATM   34  C   UNL     1      44.568 -20.850   4.761  1.00  0.00    -0.059 A 
HETATM   35  C   UNL     1      44.503 -20.451   3.413  1.00  0.00     0.016 A 
HETATM   36  C   UNL     1      45.195 -22.164   5.134  1.00  0.00     0.048 C 
HETATM   37  C   UNL     1      43.890 -18.814   1.581  1.00  0.00     0.051 C 
ENDBRANCH   4  27
TORSDOF 9
ENDMDL
MODEL 3
REMARK VINA RESULT:      -9.1      1.815      3.191
REMARK  9 active torsions:
REMARK  status: ('A' for Active; 'I' for Inactive)
REMARK    1  A    between atoms: C_2  and  C_3 
REMARK    2  A    between atoms: C_3  and  O_4 
REMARK    3  A    between atoms: O_4  and  C_5 
REMARK    4  A    between atoms: C_7  and  C_8 
REMARK       I    between atoms: C_8  and  N_9 
REMARK    5  A    between atoms: N_9  and  C_10 
REMARK    6  A    between atoms: C_10  and  N_11 
REMARK    7  A    between atoms: N_11  and  C_12 
REMARK    8  A    between atoms: C_14  and  O_15 
REMARK    9  A    between atoms: C_16  and  C_17 
ROOT
HETATM    1  C   UNL     1      41.044 -12.982   5.637  1.00  0.00     0.036 A 
HETATM    2  C   UNL     1      40.258 -14.067   6.020  1.00  0.00     0.067 A 
HETATM    3  C   UNL     1      40.753 -15.374   5.941  1.00  0.00     0.082 A 
HETATM    4  C   UNL     1      42.055 -15.630   5.484  1.00  0.00     0.050 A 
HETATM    5  C   UNL     1      42.858 -14.519   5.166  1.00  0.00     0.021 A 
HETATM    6  C   UNL     1      42.368 -13.208   5.262  1.00  0.00     0.030 A 
ENDROOT
BRANCH   1   7
HETATM    7  N   UNL     1      40.567 -11.654   5.657  1.00  0.00    -0.333 N 
HETATM    8  H   UNL     1      40.226 -11.281   4.769  1.00  0.00     0.168 HD
BRANCH   7   9
HETATM    9  C   UNL     1      40.283 -10.856   6.741  1.00  0.00     0.179 C 
HETATM   10  S   UNL     1      39.133  -9.645   6.884  1.00  0.00    -0.040 SA
BRANCH   9  11
HETATM   11  N   UNL     1      41.061 -11.069   7.858  1.00  0.00    -0.299 N 
HETATM   12  C   UNL     1      42.095 -10.300   8.374  1.00  0.00     0.257 C 
HETATM   13  O   UNL     1      42.243  -9.106   8.139  1.00  0.00    -0.267 OA
HETATM   14  H   UNL     1      40.886 -11.971   8.280  1.00  0.00     0.171 HD
BRANCH  12  15
HETATM   15  C   UNL     1      42.973 -11.014   9.342  1.00  0.00     0.035 A 
HETATM   16  C   UNL     1      42.578 -11.192  10.674  1.00  0.00     0.053 A 
HETATM   17  C   UNL     1      43.431 -11.803  11.595  1.00  0.00     0.069 A 
HETATM   18  C   UNL     1      44.667 -12.286  11.170  1.00  0.00     0.037 A 
HETATM   19  C   UNL     1      45.050 -12.148   9.829  1.00  0.00     0.004 A 
HETATM   20  C   UNL     1      44.206 -11.513   8.915  1.00  0.00     0.017 A 
BRANCH  17  21
HETATM   21  O   UNL     1      42.928 -11.880  12.861  1.00  0.00    -0.351 OA
BRANCH  21  22
HETATM   22  C   UNL     1      41.923 -10.929  13.219  1.00  0.00     0.175 C 
BRANCH  22  23
HETATM   23  C   UNL     1      42.494 -10.069  14.343  1.00  0.00     0.022 C 
HETATM   24  C   UNL     1      43.172  -8.817  13.818  1.00  0.00     0.007 C 
ENDBRANCH  22  23
ENDBRANCH  21  22
ENDBRANCH  17  21
ENDBRANCH  12  15
ENDBRANCH   9  11
ENDBRANCH   7   9
ENDBRANCH   1   7
BRANCH   3  25
HETATM   25  O   UNL     1      39.921 -16.398   6.307  1.00  0.00    -0.360 OA
HETATM   26  H   UNL     1      40.254 -16.818   7.116  1.00  0.00     0.217 HD
ENDBRANCH   3  25
BRANCH   4  27
HETATM   27  C   UNL     1      42.598 -16.974   5.273  1.00  0.00     0.183 A 
HETATM   28  O   UNL     1      42.839 -17.359   3.979  1.00  0.00    -0.288 OA
HETATM   29  C   UNL     1      43.425 -18.583   4.088  1.00  0.00     0.112 A 
HETATM   30  C   UNL     1      43.487 -18.896   5.434  1.00  0.00     0.094 A 
HETATM   31  C   UNL     1      43.897 -19.383   3.049  1.00  0.00    -0.025 A 
HETATM   32  N   UNL     1      42.935 -17.881   6.178  1.00  0.00    -0.221 NA
HETATM   33  C   UNL     1      44.075 -20.107   5.820  1.00  0.00     0.041 A 
HETATM   34  C   UNL     1      44.597 -20.951   4.820  1.00  0.00    -0.059 A 
HETATM   35  C   UNL     1      44.493 -20.590   3.464  1.00  0.00     0.016 A 
HETATM   36  C   UNL     1      45.239 -22.251   5.212  1.00  0.00     0.048 C 
HETATM   37  C   UNL     1      43.823 -19.008   1.604  1.00  0.00     0.051 C 
ENDBRANCH   4  27
TORSDOF 9
ENDMDL
MODEL 4
REMARK VINA RESULT:      -8.9      1.278      1.857
REMARK  9 active torsions:
REMARK  status: ('A' for Active; 'I' for Inactive)
REMARK    1  A    between atoms: C_2  and  C_3 
REMARK    2  A    between atoms: C_3  and  O_4 
REMARK    3  A    between atoms: O_4  and  C_5 
REMARK    4  A    between atoms: C_7  and  C_8 
REMARK       I    between atoms: C_8  and  N_9 
REMARK    5  A    between atoms: N_9  and  C_10 
REMARK    6  A    between atoms: C_10  and  N_11 
REMARK    7  A    between atoms: N_11  and  C_12 
REMARK    8  A    between atoms: C_14  and  O_15 
REMARK    9  A    between atoms: C_16  and  C_17 
ROOT
HETATM    1  C   UNL     1      40.651 -12.484   5.217  1.00  0.00     0.036 A 
HETATM    2  C   UNL     1      41.596 -12.451   4.192  1.00  0.00     0.067 A 
HETATM    3  C   UNL     1      42.136 -13.635   3.677  1.00  0.00     0.082 A 
HETATM    4  C   UNL     1      41.738 -14.887   4.168  1.00  0.00     0.050 A 
HETATM    5  C   UNL     1      40.734 -14.906   5.154  1.00  0.00     0.021 A 
HETATM    6  C   UNL     1      40.179 -13.719   5.658  1.00  0.00     0.030 A 
ENDROOT
BRANCH   1   7
HETATM    7  N   UNL     1      40.118 -11.313   5.796  1.00  0.00    -0.333 N 
HETATM    8  H   UNL     1      39.099 -11.236   5.810  1.00  0.00     0.168 HD
BRANCH   7   9
HETATM    9  C   UNL     1      40.758 -10.355   6.548  1.00  0.00     0.179 C 
HETATM   10  S   UNL     1      41.227  -8.809   6.102  1.00  0.00    -0.040 SA
BRANCH   9  11
HETATM   11  N   UNL     1      41.073 -10.721   7.838  1.00  0.00    -0.299 N 
HETATM   12  C   UNL     1      40.238 -10.904   8.931  1.00  0.00     0.257 C 
HETATM   13  O   UNL     1      39.038 -11.141   8.845  1.00  0.00    -0.267 OA
HETATM   14  H   UNL     1      42.071 -10.760   7.993  1.00  0.00     0.171 HD
BRANCH  12  15
HETATM   15  C   UNL     1      40.934 -10.902  10.248  1.00  0.00     0.035 A 
HETATM   16  C   UNL     1      42.314 -10.675  10.331  1.00  0.00     0.053 A 
HETATM   17  C   UNL     1      42.974 -10.738  11.558  1.00  0.00     0.069 A 
HETATM   18  C   UNL     1      42.242 -10.979  12.720  1.00  0.00     0.037 A 
HETATM   19  C   UNL     1      40.856 -11.166  12.648  1.00  0.00     0.004 A 
HETATM   20  C   UNL     1      40.201 -11.128  11.415  1.00  0.00     0.017 A 
BRANCH  17  21
HETATM   21  O   UNL     1      44.321 -10.528  11.484  1.00  0.00    -0.351 OA
BRANCH  21  22
HETATM   22  C   UNL     1      45.117 -11.598  10.972  1.00  0.00     0.175 C 
BRANCH  22  23
HETATM   23  C   UNL     1      45.850 -11.069   9.742  1.00  0.00     0.022 C 
HETATM   24  C   UNL     1      45.917 -12.099   8.630  1.00  0.00     0.007 C 
ENDBRANCH  22  23
ENDBRANCH  21  22
ENDBRANCH  17  21
ENDBRANCH  12  15
ENDBRANCH   9  11
ENDBRANCH   7   9
ENDBRANCH   1   7
BRANCH   3  25
HETATM   25  O   UNL     1      43.080 -13.532   2.690  1.00  0.00    -0.360 OA
HETATM   26  H   UNL     1      42.909 -14.196   2.003  1.00  0.00     0.217 HD
ENDBRANCH   3  25
BRANCH   4  27
HETATM   27  C   UNL     1      42.339 -16.157   3.753  1.00  0.00     0.183 A 
HETATM   28  O   UNL     1      43.194 -16.767   4.634  1.00  0.00    -0.288 OA
HETATM   29  C   UNL     1      43.512 -17.951   4.043  1.00  0.00     0.112 A 
HETATM   30  C   UNL     1      42.862 -17.993   2.823  1.00  0.00     0.094 A 
HETATM   31  C   UNL     1      44.327 -18.956   4.561  1.00  0.00    -0.025 A 
HETATM   32  N   UNL     1      42.141 -16.839   2.634  1.00  0.00    -0.221 NA
HETATM   33  C   UNL     1      43.007 -19.131   2.018  1.00  0.00     0.041 A 
HETATM   34  C   UNL     1      43.797 -20.196   2.495  1.00  0.00    -0.059 A 
HETATM   35  C   UNL     1      44.448 -20.093   3.738  1.00  0.00     0.016 A 
HETATM   36  C   UNL     1      43.960 -21.429   1.652  1.00  0.00     0.048 C 
HETATM   37  C   UNL     1      45.006 -18.880   5.890  1.00  0.00     0.051 C 
ENDBRANCH   4  27
TORSDOF 9
ENDMDL
MODEL 5
REMARK VINA RESULT:      -8.9      1.712      2.980
REMARK  9 active torsions:
REMARK  status: ('A' for Active; 'I' for Inactive)
REMARK    1  A    between atoms: C_2  and  C_3 
REMARK    2  A    between atoms: C_3  and  O_4 
REMARK    3  A    between atoms: O_4  and  C_5 
REMARK    4  A    between atoms: C_7  and  C_8 
REMARK       I    between atoms: C_8  and  N_9 
REMARK    5  A    between atoms: N_9  and  C_10 
REMARK    6  A    between atoms: C_10  and  N_11 
REMARK    7  A    between atoms: N_11  and  C_12 
REMARK    8  A    between atoms: C_14  and  O_15 
REMARK    9  A    between atoms: C_16  and  C_17 
ROOT
HETATM    1  C   UNL     1      41.700 -12.808   4.739  1.00  0.00     0.036 A 
HETATM    2  C   UNL     1      40.767 -13.733   4.272  1.00  0.00     0.067 A 
HETATM    3  C   UNL     1      41.152 -15.042   3.956  1.00  0.00     0.082 A 
HETATM    4  C   UNL     1      42.481 -15.464   4.108  1.00  0.00     0.050 A 
HETATM    5  C   UNL     1      43.396 -14.538   4.644  1.00  0.00     0.021 A 
HETATM    6  C   UNL     1      43.007 -13.232   4.978  1.00  0.00     0.030 A 
ENDROOT
BRANCH   1   7
HETATM    7  N   UNL     1      41.364 -11.468   5.023  1.00  0.00    -0.333 N 
HETATM    8  H   UNL     1      41.392 -10.816   4.237  1.00  0.00     0.168 HD
BRANCH   7   9
HETATM    9  C   UNL     1      40.786 -10.946   6.158  1.00  0.00     0.179 C 
HETATM   10  S   UNL     1      39.415  -9.994   6.297  1.00  0.00    -0.040 SA
BRANCH   9  11
HETATM   11  N   UNL     1      41.433 -11.232   7.341  1.00  0.00    -0.299 N 
HETATM   12  C   UNL     1      42.161 -10.394   8.173  1.00  0.00     0.257 C 
HETATM   13  O   UNL     1      42.036  -9.174   8.196  1.00  0.00    -0.267 OA
HETATM   14  H   UNL     1      41.432 -12.221   7.548  1.00  0.00     0.171 HD
BRANCH  12  15
HETATM   15  C   UNL     1      43.048 -11.100   9.139  1.00  0.00     0.035 A 
HETATM   16  C   UNL     1      42.730 -11.152  10.502  1.00  0.00     0.053 A 
HETATM   17  C   UNL     1      43.596 -11.757  11.413  1.00  0.00     0.069 A 
HETATM   18  C   UNL     1      44.765 -12.361  10.953  1.00  0.00     0.037 A 
HETATM   19  C   UNL     1      45.068 -12.347   9.585  1.00  0.00     0.004 A 
HETATM   20  C   UNL     1      44.212 -11.719   8.678  1.00  0.00     0.017 A 
BRANCH  17  21
HETATM   21  O   UNL     1      43.173 -11.706  12.710  1.00  0.00    -0.351 OA
BRANCH  21  22
HETATM   22  C   UNL     1      41.949 -11.014  12.966  1.00  0.00     0.175 C 
BRANCH  22  23
HETATM   23  C   UNL     1      42.147 -10.200  14.241  1.00  0.00     0.022 C 
HETATM   24  C   UNL     1      43.228  -9.146  14.085  1.00  0.00     0.007 C 
ENDBRANCH  22  23
ENDBRANCH  21  22
ENDBRANCH  17  21
ENDBRANCH  12  15
ENDBRANCH   9  11
ENDBRANCH   7   9
ENDBRANCH   1   7
BRANCH   3  25
HETATM   25  O   UNL     1      40.192 -15.893   3.477  1.00  0.00    -0.360 OA
HETATM   26  H   UNL     1      39.896 -16.486   4.186  1.00  0.00     0.217 HD
ENDBRANCH   3  25
BRANCH   4  27
HETATM   27  C   UNL     1      42.973 -16.780   3.695  1.00  0.00     0.183 A 
HETATM   28  O   UNL     1      43.467 -17.602   4.675  1.00  0.00    -0.288 OA
HETATM   29  C   UNL     1      43.749 -18.771   4.035  1.00  0.00     0.112 A 
HETATM   30  C   UNL     1      43.442 -18.595   2.697  1.00  0.00     0.094 A 
HETATM   31  C   UNL     1      44.241 -19.943   4.605  1.00  0.00    -0.025 A 
HETATM   32  N   UNL     1      42.975 -17.320   2.485  1.00  0.00    -0.221 NA
HETATM   33  C   UNL     1      43.622 -19.669   1.816  1.00  0.00     0.041 A 
HETATM   34  C   UNL     1      44.092 -20.893   2.333  1.00  0.00    -0.059 A 
HETATM   35  C   UNL     1      44.403 -21.011   3.700  1.00  0.00     0.016 A 
HETATM   36  C   UNL     1      44.284 -22.060   1.407  1.00  0.00     0.048 C 
HETATM   37  C   UNL     1      44.552 -20.100   6.058  1.00  0.00     0.051 C 
ENDBRANCH   4  27
TORSDOF 9
ENDMDL
MODEL 6
REMARK VINA RESULT:      -8.8      2.236      3.054
REMARK  9 active torsions:
REMARK  status: ('A' for Active; 'I' for Inactive)
REMARK    1  A    between atoms: C_2  and  C_3 
REMARK    2  A    between atoms: C_3  and  O_4 
REMARK    3  A    between atoms: O_4  and  C_5 
REMARK    4  A    between atoms: C_7  and  C_8 
REMARK       I    between atoms: C_8  and  N_9 
REMARK    5  A    between atoms: N_9  and  C_10 
REMARK    6  A    between atoms: C_10  and  N_11 
REMARK    7  A    between atoms: N_11  and  C_12 
REMARK    8  A    between atoms: C_14  and  O_15 
REMARK    9  A    between atoms: C_16  and  C_17 
ROOT
HETATM    1  C   UNL     1      39.771 -13.246   5.063  1.00  0.00     0.036 A 
HETATM    2  C   UNL     1      39.844 -13.517   3.697  1.00  0.00     0.067 A 
HETATM    3  C   UNL     1      40.493 -14.666   3.229  1.00  0.00     0.082 A 
HETATM    4  C   UNL     1      41.078 -15.581   4.116  1.00  0.00     0.050 A 
HETATM    5  C   UNL     1      40.936 -15.328   5.493  1.00  0.00     0.021 A 
HETATM    6  C   UNL     1      40.270 -14.186   5.963  1.00  0.00     0.030 A 
ENDROOT
BRANCH   1   7
HETATM    7  N   UNL     1      39.169 -12.076   5.573  1.00  0.00    -0.333 N 
HETATM    8  H   UNL     1      38.259 -12.193   6.021  1.00  0.00     0.168 HD
BRANCH   7   9
HETATM    9  C   UNL     1      39.724 -10.830   5.755  1.00  0.00     0.179 C 
HETATM   10  S   UNL     1      40.089  -9.664   4.608  1.00  0.00    -0.040 SA
BRANCH   9  11
HETATM   11  N   UNL     1      40.039 -10.502   7.055  1.00  0.00    -0.299 N 
HETATM   12  C   UNL     1      39.491 -10.971   8.241  1.00  0.00     0.257 C 
HETATM   13  O   UNL     1      38.893 -12.036   8.345  1.00  0.00    -0.267 OA
HETATM   14  H   UNL     1      40.702  -9.740   7.108  1.00  0.00     0.171 HD
BRANCH  12  15
HETATM   15  C   UNL     1      39.778 -10.123   9.432  1.00  0.00     0.035 A 
HETATM   16  C   UNL     1      41.095  -9.899   9.854  1.00  0.00     0.053 A 
HETATM   17  C   UNL     1      41.357  -9.159  11.007  1.00  0.00     0.069 A 
HETATM   18  C   UNL     1      40.298  -8.595  11.717  1.00  0.00     0.037 A 
HETATM   19  C   UNL     1      38.982  -8.781  11.276  1.00  0.00     0.004 A 
HETATM   20  C   UNL     1      38.720  -9.544  10.135  1.00  0.00     0.017 A 
BRANCH  17  21
HETATM   21  O   UNL     1      42.682  -9.049  11.315  1.00  0.00    -0.351 OA
BRANCH  21  22
HETATM   22  C   UNL     1      43.244 -10.072  12.139  1.00  0.00     0.175 C 
BRANCH  22  23
HETATM   23  C   UNL     1      43.357  -9.507  13.552  1.00  0.00     0.022 C 
HETATM   24  C   UNL     1      42.371 -10.154  14.507  1.00  0.00     0.007 C 
ENDBRANCH  22  23
ENDBRANCH  21  22
ENDBRANCH  17  21
ENDBRANCH  12  15
ENDBRANCH   9  11
ENDBRANCH   7   9
ENDBRANCH   1   7
BRANCH   3  25
HETATM   25  O   UNL     1      40.553 -14.860   1.874  1.00  0.00    -0.360 OA
HETATM   26  H   UNL     1      41.384 -14.497   1.528  1.00  0.00     0.217 HD
ENDBRANCH   3  25
BRANCH   4  27
HETATM   27  C   UNL     1      41.863 -16.744   3.693  1.00  0.00     0.183 A 
HETATM   28  O   UNL     1      42.853 -17.176   4.538  1.00  0.00    -0.288 OA
HETATM   29  C   UNL     1      43.336 -18.306   3.953  1.00  0.00     0.112 A 
HETATM   30  C   UNL     1      42.641 -18.491   2.771  1.00  0.00     0.094 A 
HETATM   31  C   UNL     1      44.335 -19.144   4.444  1.00  0.00    -0.025 A 
HETATM   32  N   UNL     1      41.726 -17.480   2.600  1.00  0.00    -0.221 NA
HETATM   33  C   UNL     1      42.936 -19.610   1.981  1.00  0.00     0.041 A 
HETATM   34  C   UNL     1      43.919 -20.513   2.435  1.00  0.00    -0.059 A 
HETATM   35  C   UNL     1      44.605 -20.268   3.638  1.00  0.00     0.016 A 
HETATM   36  C   UNL     1      44.245 -21.725   1.608  1.00  0.00     0.048 C 
HETATM   37  C   UNL     1      45.058 -18.919   5.732  1.00  0.00     0.051 C 
ENDBRANCH   4  27
TORSDOF 9
ENDMDL
MODEL 7
REMARK VINA RESULT:      -8.7      1.028      1.845
REMARK  9 active torsions:
REMARK  status: ('A' for Active; 'I' for Inactive)
REMARK    1  A    between atoms: C_2  and  C_3 
REMARK    2  A    between atoms: C_3  and  O_4 
REMARK    3  A    between atoms: O_4  and  C_5 
REMARK    4  A    between atoms: C_7  and  C_8 
REMARK       I    between atoms: C_8  and  N_9 
REMARK    5  A    between atoms: N_9  and  C_10 
REMARK    6  A    between atoms: C_10  and  N_11 
REMARK    7  A    between atoms: N_11  and  C_12 
REMARK    8  A    between atoms: C_14  and  O_15 
REMARK    9  A    between atoms: C_16  and  C_17 
ROOT
HETATM    1  C   UNL     1      40.328 -11.975   5.548  1.00  0.00     0.036 A 
HETATM    2  C   UNL     1      41.463 -12.072   4.743  1.00  0.00     0.067 A 
HETATM    3  C   UNL     1      42.032 -13.318   4.454  1.00  0.00     0.082 A 
HETATM    4  C   UNL     1      41.475 -14.503   4.955  1.00  0.00     0.050 A 
HETATM    5  C   UNL     1      40.291 -14.394   5.708  1.00  0.00     0.021 A 
HETATM    6  C   UNL     1      39.710 -13.146   5.983  1.00  0.00     0.030 A 
ENDROOT
BRANCH   1   7
HETATM    7  N   UNL     1      39.752 -10.737   5.902  1.00  0.00    -0.333 N 
HETATM    8  H   UNL     1      39.089 -10.337   5.236  1.00  0.00     0.168 HD
BRANCH   7   9
HETATM    9  C   UNL     1      39.781 -10.089   7.116  1.00  0.00     0.179 C 
HETATM   10  S   UNL     1      38.795  -8.852   7.671  1.00  0.00    -0.040 SA
BRANCH   9  11
HETATM   11  N   UNL     1      40.764 -10.501   7.988  1.00  0.00    -0.299 N 
HETATM   12  C   UNL     1      40.746 -10.559   9.375  1.00  0.00     0.257 C 
HETATM   13  O   UNL     1      39.720 -10.614  10.044  1.00  0.00    -0.267 OA
HETATM   14  H   UNL     1      41.639 -10.689   7.518  1.00  0.00     0.171 HD
BRANCH  12  15
HETATM   15  C   UNL     1      42.091 -10.664  10.007  1.00  0.00     0.035 A 
HETATM   16  C   UNL     1      43.244 -10.794   9.223  1.00  0.00     0.053 A 
HETATM   17  C   UNL     1      44.495 -10.958   9.819  1.00  0.00     0.069 A 
HETATM   18  C   UNL     1      44.601 -10.941  11.209  1.00  0.00     0.037 A 
HETATM   19  C   UNL     1      43.456 -10.770  11.997  1.00  0.00     0.004 A 
HETATM   20  C   UNL     1      42.201 -10.631  11.399  1.00  0.00     0.017 A 
BRANCH  17  21
HETATM   21  O   UNL     1      45.525 -11.104   8.935  1.00  0.00    -0.351 OA
BRANCH  21  22
HETATM   22  C   UNL     1      46.145 -12.390   8.869  1.00  0.00     0.175 C 
BRANCH  22  23
HETATM   23  C   UNL     1      45.896 -12.941   7.468  1.00  0.00     0.022 C 
HETATM   24  C   UNL     1      44.596 -13.719   7.381  1.00  0.00     0.007 C 
ENDBRANCH  22  23
ENDBRANCH  21  22
ENDBRANCH  17  21
ENDBRANCH  12  15
ENDBRANCH   9  11
ENDBRANCH   7   9
ENDBRANCH   1   7
BRANCH   3  25
HETATM   25  O   UNL     1      43.162 -13.341   3.680  1.00  0.00    -0.360 OA
HETATM   26  H   UNL     1      43.186 -14.160   3.161  1.00  0.00     0.217 HD
ENDBRANCH   3  25
BRANCH   4  27
HETATM   27  C   UNL     1      42.078 -15.827   4.783  1.00  0.00     0.183 A 
HETATM   28  O   UNL     1      42.461 -16.184   3.516  1.00  0.00    -0.288 OA
HETATM   29  C   UNL     1      43.071 -17.392   3.668  1.00  0.00     0.112 A 
HETATM   30  C   UNL     1      43.004 -17.725   5.009  1.00  0.00     0.094 A 
HETATM   31  C   UNL     1      43.671 -18.161   2.672  1.00  0.00    -0.025 A 
HETATM   32  N   UNL     1      42.348 -16.739   5.706  1.00  0.00    -0.221 NA
HETATM   33  C   UNL     1      43.586 -18.925   5.438  1.00  0.00     0.041 A 
HETATM   34  C   UNL     1      44.234 -19.737   4.485  1.00  0.00    -0.059 A 
HETATM   35  C   UNL     1      44.258 -19.357   3.131  1.00  0.00     0.016 A 
HETATM   36  C   UNL     1      44.872 -21.024   4.924  1.00  0.00     0.048 C 
HETATM   37  C   UNL     1      43.734 -17.764   1.233  1.00  0.00     0.051 C 
ENDBRANCH   4  27
TORSDOF 9
ENDMDL
MODEL 8
REMARK VINA RESULT:      -8.6      2.329      8.377
REMARK  9 active torsions:
REMARK  status: ('A' for Active; 'I' for Inactive)
REMARK    1  A    between atoms: C_2  and  C_3 
REMARK    2  A    between atoms: C_3  and  O_4 
REMARK    3  A    between atoms: O_4  and  C_5 
REMARK    4  A    between atoms: C_7  and  C_8 
REMARK       I    between atoms: C_8  and  N_9 
REMARK    5  A    between atoms: N_9  and  C_10 
REMARK    6  A    between atoms: C_10  and  N_11 
REMARK    7  A    between atoms: N_11  and  C_12 
REMARK    8  A    between atoms: C_14  and  O_15 
REMARK    9  A    between atoms: C_16  and  C_17 
ROOT
HETATM    1  C   UNL     1      40.017 -11.789   4.226  1.00  0.00     0.036 A 
HETATM    2  C   UNL     1      39.419 -12.393   5.331  1.00  0.00     0.067 A 
HETATM    3  C   UNL     1      39.863 -12.114   6.629  1.00  0.00     0.082 A 
HETATM    4  C   UNL     1      40.914 -11.214   6.857  1.00  0.00     0.050 A 
HETATM    5  C   UNL     1      41.461 -10.561   5.737  1.00  0.00     0.021 A 
HETATM    6  C   UNL     1      41.004 -10.827   4.438  1.00  0.00     0.030 A 
ENDROOT
BRANCH   1   7
HETATM    7  N   UNL     1      39.631 -12.079   2.901  1.00  0.00    -0.333 N 
HETATM    8  H   UNL     1      38.971 -11.431   2.468  1.00  0.00     0.168 HD
BRANCH   7   9
HETATM    9  C   UNL     1      40.180 -12.984   2.021  1.00  0.00     0.179 C 
HETATM   10  S   UNL     1      40.163 -12.966   0.346  1.00  0.00    -0.040 SA
BRANCH   9  11
HETATM   11  N   UNL     1      40.819 -14.062   2.596  1.00  0.00    -0.299 N 
HETATM   12  C   UNL     1      40.365 -15.359   2.782  1.00  0.00     0.257 C 
HETATM   13  O   UNL     1      39.462 -15.870   2.127  1.00  0.00    -0.267 OA
HETATM   14  H   UNL     1      41.703 -13.805   3.013  1.00  0.00     0.171 HD
BRANCH  12  15
HETATM   15  C   UNL     1      41.138 -16.148   3.782  1.00  0.00     0.035 A 
HETATM   16  C   UNL     1      41.744 -17.360   3.427  1.00  0.00     0.053 A 
HETATM   17  C   UNL     1      42.412 -18.128   4.381  1.00  0.00     0.069 A 
HETATM   18  C   UNL     1      42.520 -17.657   5.689  1.00  0.00     0.037 A 
HETATM   19  C   UNL     1      41.951 -16.426   6.039  1.00  0.00     0.004 A 
HETATM   20  C   UNL     1      41.261 -15.670   5.088  1.00  0.00     0.017 A 
BRANCH  17  21
HETATM   21  O   UNL     1      42.925 -19.299   3.902  1.00  0.00    -0.351 OA
BRANCH  21  22
HETATM   22  C   UNL     1      43.659 -19.231   2.677  1.00  0.00     0.175 C 
BRANCH  22  23
HETATM   23  C   UNL     1      44.494 -20.505   2.579  1.00  0.00     0.022 C 
HETATM   24  C   UNL     1      43.838 -21.552   1.699  1.00  0.00     0.007 C 
ENDBRANCH  22  23
ENDBRANCH  21  22
ENDBRANCH  17  21
ENDBRANCH  12  15
ENDBRANCH   9  11
ENDBRANCH   7   9
ENDBRANCH   1   7
BRANCH   3  25
HETATM   25  O   UNL     1      39.251 -12.762   7.669  1.00  0.00    -0.360 OA
HETATM   26  H   UNL     1      38.810 -12.116   8.243  1.00  0.00     0.217 HD
ENDBRANCH   3  25
BRANCH   4  27
HETATM   27  C   UNL     1      41.500 -10.958   8.175  1.00  0.00     0.183 A 
HETATM   28  O   UNL     1      42.851 -11.147   8.311  1.00  0.00    -0.288 OA
HETATM   29  C   UNL     1      43.130 -10.744   9.581  1.00  0.00     0.112 A 
HETATM   30  C   UNL     1      41.937 -10.358  10.165  1.00  0.00     0.094 A 
HETATM   31  C   UNL     1      44.381 -10.704  10.193  1.00  0.00    -0.025 A 
HETATM   32  N   UNL     1      40.903 -10.522   9.275  1.00  0.00    -0.221 NA
HETATM   33  C   UNL     1      41.954  -9.874  11.480  1.00  0.00     0.041 A 
HETATM   34  C   UNL     1      43.191  -9.783  12.148  1.00  0.00    -0.059 A 
HETATM   35  C   UNL     1      44.373 -10.204  11.510  1.00  0.00     0.016 A 
HETATM   36  C   UNL     1      43.233  -9.259  13.555  1.00  0.00     0.048 C 
HETATM   37  C   UNL     1      45.652 -11.120   9.527  1.00  0.00     0.051 C 
ENDBRANCH   4  27
TORSDOF 9
ENDMDL
MODEL 9
REMARK VINA RESULT:      -8.2      4.167      6.949
REMARK  9 active torsions:
REMARK  status: ('A' for Active; 'I' for Inactive)
REMARK    1  A    between atoms: C_2  and  C_3 
REMARK    2  A    between atoms: C_3  and  O_4 
REMARK    3  A    between atoms: O_4  and  C_5 
REMARK    4  A    between atoms: C_7  and  C_8 
REMARK       I    between atoms: C_8  and  N_9 
REMARK    5  A    between atoms: N_9  and  C_10 
REMARK    6  A    between atoms: C_10  and  N_11 
REMARK    7  A    between atoms: N_11  and  C_12 
REMARK    8  A    between atoms: C_14  and  O_15 
REMARK    9  A    between atoms: C_16  and  C_17 
ROOT
HETATM    1  C   UNL     1      40.714 -12.624   4.072  1.00  0.00     0.036 A 
HETATM    2  C   UNL     1      39.944 -13.577   3.407  1.00  0.00     0.067 A 
HETATM    3  C   UNL     1      40.444 -14.863   3.170  1.00  0.00     0.082 A 
HETATM    4  C   UNL     1      41.726 -15.234   3.602  1.00  0.00     0.050 A 
HETATM    5  C   UNL     1      42.464 -14.282   4.330  1.00  0.00     0.021 A 
HETATM    6  C   UNL     1      41.956 -12.999   4.583  1.00  0.00     0.030 A 
ENDROOT
BRANCH   1   7
HETATM    7  N   UNL     1      40.267 -11.303   4.288  1.00  0.00    -0.333 N 
HETATM    8  H   UNL     1      39.621 -11.164   5.066  1.00  0.00     0.168 HD
BRANCH   7   9
HETATM    9  C   UNL     1      40.743 -10.132   3.743  1.00  0.00     0.179 C 
HETATM   10  S   UNL     1      40.861  -8.617   4.449  1.00  0.00    -0.040 SA
BRANCH   9  11
HETATM   11  N   UNL     1      41.165 -10.211   2.434  1.00  0.00    -0.299 N 
HETATM   12  C   UNL     1      40.417 -10.309   1.270  1.00  0.00     0.257 C 
HETATM   13  O   UNL     1      39.245  -9.960   1.178  1.00  0.00    -0.267 OA
HETATM   14  H   UNL     1      42.170 -10.304   2.361  1.00  0.00     0.171 HD
BRANCH  12  15
HETATM   15  C   UNL     1      41.181 -10.777   0.080  1.00  0.00     0.035 A 
HETATM   16  C   UNL     1      40.641 -11.731  -0.791  1.00  0.00     0.053 A 
HETATM   17  C   UNL     1      41.386 -12.215  -1.867  1.00  0.00     0.069 A 
HETATM   18  C   UNL     1      42.661 -11.705  -2.105  1.00  0.00     0.037 A 
HETATM   19  C   UNL     1      43.190 -10.721  -1.260  1.00  0.00     0.004 A 
HETATM   20  C   UNL     1      42.453 -10.256  -0.169  1.00  0.00     0.017 A 
BRANCH  17  21
HETATM   21  O   UNL     1      40.746 -13.163  -2.612  1.00  0.00    -0.351 OA
BRANCH  21  22
HETATM   22  C   UNL     1      41.550 -14.213  -3.154  1.00  0.00     0.175 C 
BRANCH  22  23
HETATM   23  C   UNL     1      40.997 -15.530  -2.617  1.00  0.00     0.022 C 
HETATM   24  C   UNL     1      41.099 -15.620  -1.106  1.00  0.00     0.007 C 
ENDBRANCH  22  23
ENDBRANCH  21  22
ENDBRANCH  17  21
ENDBRANCH  12  15
ENDBRANCH   9  11
ENDBRANCH   7   9
ENDBRANCH   1   7
BRANCH   3  25
HETATM   25  O   UNL     1      39.647 -15.744   2.488  1.00  0.00    -0.360 OA
HETATM   26  H   UNL     1      39.506 -16.541   3.025  1.00  0.00     0.217 HD
ENDBRANCH   3  25
BRANCH   4  27
HETATM   27  C   UNL     1      42.352 -16.522   3.294  1.00  0.00     0.183 A 
HETATM   28  O   UNL     1      43.211 -17.043   4.227  1.00  0.00    -0.288 OA
HETATM   29  C   UNL     1      43.554 -18.266   3.736  1.00  0.00     0.112 A 
HETATM   30  C   UNL     1      42.914 -18.418   2.519  1.00  0.00     0.094 A 
HETATM   31  C   UNL     1      44.382 -19.211   4.338  1.00  0.00    -0.025 A 
HETATM   32  N   UNL     1      42.174 -17.295   2.233  1.00  0.00    -0.221 NA
HETATM   33  C   UNL     1      43.085 -19.614   1.810  1.00  0.00     0.041 A 
HETATM   34  C   UNL     1      43.890 -20.623   2.376  1.00  0.00    -0.059 A 
HETATM   35  C   UNL     1      44.530 -20.408   3.610  1.00  0.00     0.016 A 
HETATM   36  C   UNL     1      44.080 -21.916   1.636  1.00  0.00     0.048 C 
HETATM   37  C   UNL     1      45.050 -19.016   5.661  1.00  0.00     0.051 C 
ENDBRANCH   4  27
TORSDOF 9
ENDMDL
MODEL 10
REMARK VINA RESULT:      -8.2      3.945      6.459
REMARK  9 active torsions:
REMARK  status: ('A' for Active; 'I' for Inactive)
REMARK    1  A    between atoms: C_2  and  C_3 
REMARK    2  A    between atoms: C_3  and  O_4 
REMARK    3  A    between atoms: O_4  and  C_5 
REMARK    4  A    between atoms: C_7  and  C_8 
REMARK       I    between atoms: C_8  and  N_9 
REMARK    5  A    between atoms: N_9  and  C_10 
REMARK    6  A    between atoms: C_10  and  N_11 
REMARK    7  A    between atoms: N_11  and  C_12 
REMARK    8  A    between atoms: C_14  and  O_15 
REMARK    9  A    between atoms: C_16  and  C_17 
ROOT
HETATM    1  C   UNL     1      40.880 -12.988   4.966  1.00  0.00     0.036 A 
HETATM    2  C   UNL     1      40.176 -14.027   5.573  1.00  0.00     0.067 A 
HETATM    3  C   UNL     1      40.702 -15.324   5.610  1.00  0.00     0.082 A 
HETATM    4  C   UNL     1      41.953 -15.614   5.047  1.00  0.00     0.050 A 
HETATM    5  C   UNL     1      42.681 -14.542   4.498  1.00  0.00     0.021 A 
HETATM    6  C   UNL     1      42.161 -13.239   4.478  1.00  0.00     0.030 A 
ENDROOT
BRANCH   1   7
HETATM    7  N   UNL     1      40.364 -11.679   4.865  1.00  0.00    -0.333 N 
HETATM    8  H   UNL     1      39.446 -11.519   5.283  1.00  0.00     0.168 HD
BRANCH   7   9
HETATM    9  C   UNL     1      41.009 -10.525   4.481  1.00  0.00     0.179 C 
HETATM   10  S   UNL     1      41.381  -9.173   5.399  1.00  0.00    -0.040 SA
BRANCH   9  11
HETATM   11  N   UNL     1      41.387 -10.466   3.157  1.00  0.00    -0.299 N 
HETATM   12  C   UNL     1      40.622 -10.639   2.013  1.00  0.00     0.257 C 
HETATM   13  O   UNL     1      39.404 -10.500   1.975  1.00  0.00    -0.267 OA
HETATM   14  H   UNL     1      42.388 -10.375   3.049  1.00  0.00     0.171 HD
BRANCH  12  15
HETATM   15  C   UNL     1      41.410 -10.906   0.777  1.00  0.00     0.035 A 
HETATM   16  C   UNL     1      41.385 -12.168   0.168  1.00  0.00     0.053 A 
HETATM   17  C   UNL     1      42.175 -12.434  -0.951  1.00  0.00     0.069 A 
HETATM   18  C   UNL     1      42.957 -11.417  -1.497  1.00  0.00     0.037 A 
HETATM   19  C   UNL     1      42.953 -10.143  -0.916  1.00  0.00     0.004 A 
HETATM   20  C   UNL     1      42.182  -9.885   0.219  1.00  0.00     0.017 A 
BRANCH  17  21
HETATM   21  O   UNL     1      42.074 -13.712  -1.419  1.00  0.00    -0.351 OA
BRANCH  21  22
HETATM   22  C   UNL     1      40.900 -14.443  -1.061  1.00  0.00     0.175 C 
BRANCH  22  23
HETATM   23  C   UNL     1      41.348 -15.833  -0.619  1.00  0.00     0.022 C 
HETATM   24  C   UNL     1      41.914 -15.830   0.789  1.00  0.00     0.007 C 
ENDBRANCH  22  23
ENDBRANCH  21  22
ENDBRANCH  17  21
ENDBRANCH  12  15
ENDBRANCH   9  11
ENDBRANCH   7   9
ENDBRANCH   1   7
BRANCH   3  25
HETATM   25  O   UNL     1      39.948 -16.304   6.198  1.00  0.00    -0.360 OA
HETATM   26  H   UNL     1      40.509 -17.069   6.404  1.00  0.00     0.217 HD
ENDBRANCH   3  25
BRANCH   4  27
HETATM   27  C   UNL     1      42.515 -16.965   4.954  1.00  0.00     0.183 A 
HETATM   28  O   UNL     1      42.751 -17.462   3.699  1.00  0.00    -0.288 OA
HETATM   29  C   UNL     1      43.356 -18.663   3.912  1.00  0.00     0.112 A 
HETATM   30  C   UNL     1      43.432 -18.852   5.281  1.00  0.00     0.094 A 
HETATM   31  C   UNL     1      43.832 -19.547   2.946  1.00  0.00    -0.025 A 
HETATM   32  N   UNL     1      42.871 -17.781   5.935  1.00  0.00    -0.221 NA
HETATM   33  C   UNL     1      44.039 -20.016   5.770  1.00  0.00     0.041 A 
HETATM   34  C   UNL     1      44.567 -20.939   4.846  1.00  0.00    -0.059 A 
HETATM   35  C   UNL     1      44.448 -20.704   3.464  1.00  0.00     0.016 A 
HETATM   36  C   UNL     1      45.230 -22.190   5.349  1.00  0.00     0.048 C 
HETATM   37  C   UNL     1      43.743 -19.305   1.474  1.00  0.00     0.051 C 
ENDBRANCH   4  27
TORSDOF 9
ENDMDL
