MODEL 1
REMARK VINA RESULT:      -8.9      0.000      0.000
REMARK  3 active torsions:
REMARK  status: ('A' for Active; 'I' for Inactive)
REMARK    1  A    between atoms: N_4  and  C_5 
REMARK    2  A    between atoms: C_5  and  C_6 
REMARK       I    between atoms: C_6  and  N_7 
REMARK    3  A    between atoms: N_7  and  C_8 
ROOT
HETATM    1  C   UNL     1      43.952 -16.906   6.007  1.00  0.00     0.257 C 
ENDROOT
BRANCH   1   2
HETATM    2  N   UNL     1      44.036 -17.869   4.914  1.00  0.00    -0.225 N 
HETATM    3  N   UNL     1      43.661 -17.409   3.674  1.00  0.00    -0.173 NA
HETATM    4  C   UNL     1      43.616 -18.237   2.676  1.00  0.00     0.062 A 
HETATM    5  C   UNL     1      43.184 -17.691   1.336  1.00  0.00     0.073 C 
HETATM    6  C   UNL     1      43.955 -19.669   2.795  1.00  0.00     0.006 A 
HETATM    7  C   UNL     1      44.289 -20.138   4.060  1.00  0.00     0.046 A 
HETATM    8  C   UNL     1      43.944 -20.549   1.706  1.00  0.00     0.014 A 
HETATM    9  C   UNL     1      44.295 -19.205   5.200  1.00  0.00     0.275 A 
HETATM   10  C   UNL     1      44.618 -21.486   4.248  1.00  0.00     0.018 A 
HETATM   11  O   UNL     1      44.533 -19.626   6.332  1.00  0.00    -0.266 OA
HETATM   12  C   UNL     1      44.609 -22.362   3.163  1.00  0.00     0.001 A 
HETATM   13  C   UNL     1      44.271 -21.894   1.894  1.00  0.00     0.001 A 
ENDBRANCH   1   2
BRANCH   1  14
HETATM   14  C   UNL     1      42.545 -16.323   6.152  1.00  0.00     0.238 C 
HETATM   15  N   UNL     1      42.303 -15.238   5.335  1.00  0.00    -0.351 N 
HETATM   16  H   UNL     1      42.928 -15.115   4.540  1.00  0.00     0.163 HD
HETATM   17  O   UNL     1      41.707 -16.779   6.925  1.00  0.00    -0.272 OA
BRANCH  15  18
HETATM   18  C   UNL     1      41.021 -14.578   5.307  1.00  0.00     0.118 C 
HETATM   19  C   UNL     1      40.396 -14.569   3.937  1.00  0.00    -0.029 A 
HETATM   20  C   UNL     1      39.839 -13.316   3.654  1.00  0.00    -0.050 A 
HETATM   21  C   UNL     1      40.282 -15.613   3.030  1.00  0.00     0.010 A 
HETATM   22  C   UNL     1      39.177 -13.076   2.461  1.00  0.00     0.007 A 
HETATM   23  C   UNL     1      40.018 -12.377   4.805  1.00  0.00     0.041 C 
HETATM   24  C   UNL     1      39.080 -14.118   1.536  1.00  0.00     0.001 A 
HETATM   25  C   UNL     1      39.627 -15.377   1.819  1.00  0.00     0.001 A 
HETATM   26  C   UNL     1      41.146 -13.063   5.583  1.00  0.00     0.034 C 
ENDBRANCH  15  18
ENDBRANCH   1  14
TORSDOF 3
ENDMDL
MODEL 2
REMARK VINA RESULT:      -8.6      2.325      8.002
REMARK  3 active torsions:
REMARK  status: ('A' for Active; 'I' for Inactive)
REMARK    1  A    between atoms: N_4  and  C_5 
REMARK    2  A    between atoms: C_5  and  C_6 
REMARK       I    between atoms: C_6  and  N_7 
REMARK    3  A    between atoms: N_7  and  C_8 
ROOT
HETATM    1  C   UNL     1      40.481 -16.571   1.756  1.00  0.00     0.257 C 
ENDROOT
BRANCH   1   2
HETATM    2  N   UNL     1      40.169 -15.304   2.410  1.00  0.00    -0.225 N 
HETATM    3  N   UNL     1      40.439 -15.236   3.756  1.00  0.00    -0.173 NA
HETATM    4  C   UNL     1      40.096 -14.176   4.420  1.00  0.00     0.062 A 
HETATM    5  C   UNL     1      40.398 -14.152   5.900  1.00  0.00     0.073 C 
HETATM    6  C   UNL     1      39.425 -13.014   3.803  1.00  0.00     0.006 A 
HETATM    7  C   UNL     1      39.114 -13.106   2.452  1.00  0.00     0.046 A 
HETATM    8  C   UNL     1      39.094 -11.856   4.518  1.00  0.00     0.014 A 
HETATM    9  C   UNL     1      39.463 -14.330   1.710  1.00  0.00     0.275 A 
HETATM   10  C   UNL     1      38.474 -12.044   1.801  1.00  0.00     0.018 A 
HETATM   11  O   UNL     1      39.139 -14.441   0.528  1.00  0.00    -0.266 OA
HETATM   12  C   UNL     1      38.145 -10.890   2.512  1.00  0.00     0.001 A 
HETATM   13  C   UNL     1      38.454 -10.797   3.868  1.00  0.00     0.001 A 
ENDBRANCH   1   2
BRANCH   1  14
HETATM   14  C   UNL     1      41.959 -16.940   1.897  1.00  0.00     0.238 C 
HETATM   15  N   UNL     1      42.258 -17.610   3.066  1.00  0.00    -0.351 N 
HETATM   16  H   UNL     1      41.478 -18.044   3.557  1.00  0.00     0.163 HD
HETATM   17  O   UNL     1      42.804 -16.664   1.049  1.00  0.00    -0.272 OA
BRANCH  15  18
HETATM   18  C   UNL     1      43.593 -18.070   3.359  1.00  0.00     0.118 C 
HETATM   19  C   UNL     1      43.797 -19.525   3.032  1.00  0.00    -0.029 A 
HETATM   20  C   UNL     1      44.513 -20.167   4.050  1.00  0.00    -0.050 A 
HETATM   21  C   UNL     1      43.422 -20.216   1.889  1.00  0.00     0.010 A 
HETATM   22  C   UNL     1      44.851 -21.507   3.956  1.00  0.00     0.007 A 
HETATM   23  C   UNL     1      44.872 -19.207   5.140  1.00  0.00     0.041 C 
HETATM   24  C   UNL     1      44.455 -22.212   2.818  1.00  0.00     0.001 A 
HETATM   25  C   UNL     1      43.748 -21.571   1.791  1.00  0.00     0.001 A 
HETATM   26  C   UNL     1      43.884 -18.065   4.876  1.00  0.00     0.034 C 
ENDBRANCH  15  18
ENDBRANCH   1  14
TORSDOF 3
ENDMDL
MODEL 3
REMARK VINA RESULT:      -8.6      3.626      6.815
REMARK  3 active torsions:
REMARK  status: ('A' for Active; 'I' for Inactive)
REMARK    1  A    between atoms: N_4  and  C_5 
REMARK    2  A    between atoms: C_5  and  C_6 
REMARK       I    between atoms: C_6  and  N_7 
REMARK    3  A    between atoms: N_7  and  C_8 
ROOT
HETATM    1  C   UNL     1      42.010 -12.982   2.793  1.00  0.00     0.257 C 
ENDROOT
BRANCH   1   2
HETATM    2  N   UNL     1      42.036 -13.087   1.338  1.00  0.00    -0.225 N 
HETATM    3  N   UNL     1      42.491 -11.981   0.660  1.00  0.00    -0.173 NA
HETATM    4  C   UNL     1      42.449 -11.968  -0.637  1.00  0.00     0.062 A 
HETATM    5  C   UNL     1      42.944 -10.726  -1.338  1.00  0.00     0.073 C 
HETATM    6  C   UNL     1      41.936 -13.094  -1.442  1.00  0.00     0.006 A 
HETATM    7  C   UNL     1      41.436 -14.192  -0.751  1.00  0.00     0.046 A 
HETATM    8  C   UNL     1      41.931 -13.091  -2.843  1.00  0.00     0.014 A 
HETATM    9  C   UNL     1      41.442 -14.184   0.722  1.00  0.00     0.275 A 
HETATM   10  C   UNL     1      40.930 -15.295  -1.450  1.00  0.00     0.018 A 
HETATM   11  O   UNL     1      40.948 -15.127   1.339  1.00  0.00    -0.266 OA
HETATM   12  C   UNL     1      40.926 -15.292  -2.845  1.00  0.00     0.001 A 
HETATM   13  C   UNL     1      41.425 -14.192  -3.540  1.00  0.00     0.001 A 
ENDBRANCH   1   2
BRANCH   1  14
HETATM   14  C   UNL     1      43.043 -13.896   3.452  1.00  0.00     0.238 C 
HETATM   15  N   UNL     1      42.523 -15.090   3.908  1.00  0.00    -0.351 N 
HETATM   16  H   UNL     1      41.625 -15.376   3.521  1.00  0.00     0.163 HD
HETATM   17  O   UNL     1      44.229 -13.595   3.567  1.00  0.00    -0.272 OA
BRANCH  15  18
HETATM   18  C   UNL     1      43.353 -16.095   4.526  1.00  0.00     0.118 C 
HETATM   19  C   UNL     1      43.583 -17.291   3.641  1.00  0.00    -0.029 A 
HETATM   20  C   UNL     1      43.466 -18.480   4.373  1.00  0.00    -0.050 A 
HETATM   21  C   UNL     1      43.925 -17.321   2.297  1.00  0.00     0.010 A 
HETATM   22  C   UNL     1      43.670 -19.714   3.777  1.00  0.00     0.007 A 
HETATM   23  C   UNL     1      43.168 -18.196   5.811  1.00  0.00     0.041 C 
HETATM   24  C   UNL     1      43.991 -19.749   2.419  1.00  0.00     0.001 A 
HETATM   25  C   UNL     1      44.120 -18.562   1.684  1.00  0.00     0.001 A 
HETATM   26  C   UNL     1      42.655 -16.754   5.736  1.00  0.00     0.034 C 
ENDBRANCH  15  18
ENDBRANCH   1  14
TORSDOF 3
ENDMDL
MODEL 4
REMARK VINA RESULT:      -8.6      3.126      7.266
REMARK  3 active torsions:
REMARK  status: ('A' for Active; 'I' for Inactive)
REMARK    1  A    between atoms: N_4  and  C_5 
REMARK    2  A    between atoms: C_5  and  C_6 
REMARK       I    between atoms: C_6  and  N_7 
REMARK    3  A    between atoms: N_7  and  C_8 
ROOT
HETATM    1  C   UNL     1      41.238 -15.500   2.830  1.00  0.00     0.257 C 
ENDROOT
BRANCH   1   2
HETATM    2  N   UNL     1      41.283 -14.891   1.504  1.00  0.00    -0.225 N 
HETATM    3  N   UNL     1      41.275 -13.517   1.469  1.00  0.00    -0.173 NA
HETATM    4  C   UNL     1      41.214 -12.910   0.324  1.00  0.00     0.062 A 
HETATM    5  C   UNL     1      41.191 -11.400   0.335  1.00  0.00     0.073 C 
HETATM    6  C   UNL     1      41.157 -13.622  -0.968  1.00  0.00     0.006 A 
HETATM    7  C   UNL     1      41.120 -15.011  -0.926  1.00  0.00     0.046 A 
HETATM    8  C   UNL     1      41.133 -12.962  -2.203  1.00  0.00     0.014 A 
HETATM    9  C   UNL     1      41.143 -15.697   0.378  1.00  0.00     0.275 A 
HETATM   10  C   UNL     1      41.062 -15.752  -2.113  1.00  0.00     0.018 A 
HETATM   11  O   UNL     1      41.051 -16.923   0.425  1.00  0.00    -0.266 OA
HETATM   12  C   UNL     1      41.039 -15.095  -3.342  1.00  0.00     0.001 A 
HETATM   13  C   UNL     1      41.074 -13.702  -3.387  1.00  0.00     0.001 A 
ENDBRANCH   1   2
BRANCH   1  14
HETATM   14  C   UNL     1      42.612 -16.003   3.276  1.00  0.00     0.238 C 
HETATM   15  N   UNL     1      42.729 -17.378   3.280  1.00  0.00    -0.351 N 
HETATM   16  H   UNL     1      42.045 -17.898   2.731  1.00  0.00     0.163 HD
HETATM   17  O   UNL     1      43.528 -15.253   3.603  1.00  0.00    -0.272 OA
BRANCH  15  18
HETATM   18  C   UNL     1      43.961 -18.036   3.638  1.00  0.00     0.118 C 
HETATM   19  C   UNL     1      44.016 -19.469   3.178  1.00  0.00    -0.029 A 
HETATM   20  C   UNL     1      44.542 -20.292   4.180  1.00  0.00    -0.050 A 
HETATM   21  C   UNL     1      43.675 -19.994   1.939  1.00  0.00     0.010 A 
HETATM   22  C   UNL     1      44.721 -21.651   3.975  1.00  0.00     0.007 A 
HETATM   23  C   UNL     1      44.906 -19.495   5.393  1.00  0.00     0.041 C 
HETATM   24  C   UNL     1      44.357 -22.188   2.738  1.00  0.00     0.001 A 
HETATM   25  C   UNL     1      43.840 -21.365   1.727  1.00  0.00     0.001 A 
HETATM   26  C   UNL     1      44.098 -18.213   5.166  1.00  0.00     0.034 C 
ENDBRANCH  15  18
ENDBRANCH   1  14
TORSDOF 3
ENDMDL
MODEL 5
REMARK VINA RESULT:      -8.5      4.749      8.617
REMARK  3 active torsions:
REMARK  status: ('A' for Active; 'I' for Inactive)
REMARK    1  A    between atoms: N_4  and  C_5 
REMARK    2  A    between atoms: C_5  and  C_6 
REMARK       I    between atoms: C_6  and  N_7 
REMARK    3  A    between atoms: N_7  and  C_8 
ROOT
HETATM    1  C   UNL     1      45.719 -12.435   8.558  1.00  0.00     0.257 C 
ENDROOT
BRANCH   1   2
HETATM    2  N   UNL     1      44.526 -11.932   9.232  1.00  0.00    -0.225 N 
HETATM    3  N   UNL     1      43.641 -11.229   8.450  1.00  0.00    -0.173 NA
HETATM    4  C   UNL     1      42.609 -10.670   9.004  1.00  0.00     0.062 A 
HETATM    5  C   UNL     1      41.673  -9.894   8.108  1.00  0.00     0.073 C 
HETATM    6  C   UNL     1      42.322 -10.750  10.450  1.00  0.00     0.006 A 
HETATM    7  C   UNL     1      43.244 -11.424  11.242  1.00  0.00     0.046 A 
HETATM    8  C   UNL     1      41.185 -10.179  11.035  1.00  0.00     0.014 A 
HETATM    9  C   UNL     1      44.438 -12.018  10.618  1.00  0.00     0.275 A 
HETATM   10  C   UNL     1      43.038 -11.536  12.623  1.00  0.00     0.018 A 
HETATM   11  O   UNL     1      45.287 -12.565  11.322  1.00  0.00    -0.266 OA
HETATM   12  C   UNL     1      41.904 -10.969  13.206  1.00  0.00     0.001 A 
HETATM   13  C   UNL     1      40.980 -10.291  12.413  1.00  0.00     0.001 A 
ENDBRANCH   1   2
BRANCH   1  14
HETATM   14  C   UNL     1      45.374 -13.427   7.447  1.00  0.00     0.238 C 
HETATM   15  N   UNL     1      44.339 -14.284   7.764  1.00  0.00    -0.351 N 
HETATM   16  H   UNL     1      43.732 -14.003   8.532  1.00  0.00     0.163 HD
HETATM   17  O   UNL     1      45.964 -13.460   6.369  1.00  0.00    -0.272 OA
BRANCH  15  18
HETATM   18  C   UNL     1      43.850 -15.266   6.828  1.00  0.00     0.118 C 
HETATM   19  C   UNL     1      42.549 -14.865   6.185  1.00  0.00    -0.029 A 
HETATM   20  C   UNL     1      41.667 -15.952   6.130  1.00  0.00    -0.050 A 
HETATM   21  C   UNL     1      42.193 -13.640   5.639  1.00  0.00     0.010 A 
HETATM   22  C   UNL     1      40.415 -15.834   5.549  1.00  0.00     0.007 A 
HETATM   23  C   UNL     1      42.295 -17.181   6.709  1.00  0.00     0.041 C 
HETATM   24  C   UNL     1      40.044 -14.596   5.020  1.00  0.00     0.001 A 
HETATM   25  C   UNL     1      40.928 -13.508   5.062  1.00  0.00     0.001 A 
HETATM   26  C   UNL     1      43.440 -16.578   7.530  1.00  0.00     0.034 C 
ENDBRANCH  15  18
ENDBRANCH   1  14
TORSDOF 3
ENDMDL
MODEL 6
REMARK VINA RESULT:      -8.4      2.724      3.922
REMARK  3 active torsions:
REMARK  status: ('A' for Active; 'I' for Inactive)
REMARK    1  A    between atoms: N_4  and  C_5 
REMARK    2  A    between atoms: C_5  and  C_6 
REMARK       I    between atoms: C_6  and  N_7 
REMARK    3  A    between atoms: N_7  and  C_8 
ROOT
HETATM    1  C   UNL     1      43.212 -15.751   3.009  1.00  0.00     0.257 C 
ENDROOT
BRANCH   1   2
HETATM    2  N   UNL     1      43.494 -17.148   3.323  1.00  0.00    -0.225 N 
HETATM    3  N   UNL     1      43.915 -17.407   4.605  1.00  0.00    -0.173 NA
HETATM    4  C   UNL     1      44.277 -18.611   4.925  1.00  0.00     0.062 A 
HETATM    5  C   UNL     1      44.748 -18.845   6.341  1.00  0.00     0.073 C 
HETATM    6  C   UNL     1      44.258 -19.742   3.976  1.00  0.00     0.006 A 
HETATM    7  C   UNL     1      43.874 -19.466   2.669  1.00  0.00     0.046 A 
HETATM    8  C   UNL     1      44.611 -21.048   4.337  1.00  0.00     0.014 A 
HETATM    9  C   UNL     1      43.508 -18.088   2.297  1.00  0.00     0.275 A 
HETATM   10  C   UNL     1      43.837 -20.489   1.713  1.00  0.00     0.018 A 
HETATM   11  O   UNL     1      43.224 -17.826   1.128  1.00  0.00    -0.266 OA
HETATM   12  C   UNL     1      44.187 -21.790   2.074  1.00  0.00     0.001 A 
HETATM   13  C   UNL     1      44.575 -22.068   3.384  1.00  0.00     0.001 A 
ENDBRANCH   1   2
BRANCH   1  14
HETATM   14  C   UNL     1      41.765 -15.546   2.557  1.00  0.00     0.238 C 
HETATM   15  N   UNL     1      41.646 -15.011   1.291  1.00  0.00    -0.351 N 
HETATM   16  H   UNL     1      42.463 -15.080   0.686  1.00  0.00     0.163 HD
HETATM   17  O   UNL     1      40.797 -15.829   3.258  1.00  0.00    -0.272 OA
BRANCH  15  18
HETATM   18  C   UNL     1      40.359 -14.779   0.681  1.00  0.00     0.118 C 
HETATM   19  C   UNL     1      40.415 -14.781  -0.823  1.00  0.00    -0.029 A 
HETATM   20  C   UNL     1      39.649 -13.734  -1.350  1.00  0.00    -0.050 A 
HETATM   21  C   UNL     1      41.055 -15.681  -1.664  1.00  0.00     0.010 A 
HETATM   22  C   UNL     1      39.521 -13.555  -2.718  1.00  0.00     0.007 A 
HETATM   23  C   UNL     1      38.996 -12.946  -0.259  1.00  0.00     0.041 C 
HETATM   24  C   UNL     1      40.182 -14.444  -3.568  1.00  0.00     0.001 A 
HETATM   25  C   UNL     1      40.941 -15.500  -3.046  1.00  0.00     0.001 A 
HETATM   26  C   UNL     1      39.841 -13.349   0.954  1.00  0.00     0.034 C 
ENDBRANCH  15  18
ENDBRANCH   1  14
TORSDOF 3
ENDMDL
MODEL 7
REMARK VINA RESULT:      -8.4      3.838      7.685
REMARK  3 active torsions:
REMARK  status: ('A' for Active; 'I' for Inactive)
REMARK    1  A    between atoms: N_4  and  C_5 
REMARK    2  A    between atoms: C_5  and  C_6 
REMARK       I    between atoms: C_6  and  N_7 
REMARK    3  A    between atoms: N_7  and  C_8 
ROOT
HETATM    1  C   UNL     1      40.717 -14.732   2.092  1.00  0.00     0.257 C 
ENDROOT
BRANCH   1   2
HETATM    2  N   UNL     1      41.007 -14.218   0.757  1.00  0.00    -0.225 N 
HETATM    3  N   UNL     1      40.770 -15.080  -0.287  1.00  0.00    -0.173 NA
HETATM    4  C   UNL     1      41.098 -14.726  -1.491  1.00  0.00     0.062 A 
HETATM    5  C   UNL     1      40.834 -15.712  -2.604  1.00  0.00     0.073 C 
HETATM    6  C   UNL     1      41.717 -13.425  -1.813  1.00  0.00     0.006 A 
HETATM    7  C   UNL     1      41.995 -12.575  -0.749  1.00  0.00     0.046 A 
HETATM    8  C   UNL     1      42.031 -13.031  -3.120  1.00  0.00     0.014 A 
HETATM    9  C   UNL     1      41.665 -12.999   0.623  1.00  0.00     0.275 A 
HETATM   10  C   UNL     1      42.586 -11.326  -0.979  1.00  0.00     0.018 A 
HETATM   11  O   UNL     1      41.962 -12.277   1.574  1.00  0.00    -0.266 OA
HETATM   12  C   UNL     1      42.896 -10.933  -2.281  1.00  0.00     0.001 A 
HETATM   13  C   UNL     1      42.620 -11.785  -3.349  1.00  0.00     0.001 A 
ENDBRANCH   1   2
BRANCH   1  14
HETATM   14  C   UNL     1      40.832 -16.256   2.156  1.00  0.00     0.238 C 
HETATM   15  N   UNL     1      42.127 -16.714   2.286  1.00  0.00    -0.351 N 
HETATM   16  H   UNL     1      42.819 -16.042   2.615  1.00  0.00     0.163 HD
HETATM   17  O   UNL     1      39.860 -17.005   2.097  1.00  0.00    -0.272 OA
BRANCH  15  18
HETATM   18  C   UNL     1      42.429 -18.120   2.398  1.00  0.00     0.118 C 
HETATM   19  C   UNL     1      42.947 -18.501   3.759  1.00  0.00    -0.029 A 
HETATM   20  C   UNL     1      44.033 -19.379   3.649  1.00  0.00    -0.050 A 
HETATM   21  C   UNL     1      42.456 -18.139   5.006  1.00  0.00     0.010 A 
HETATM   22  C   UNL     1      44.657 -19.895   4.773  1.00  0.00     0.007 A 
HETATM   23  C   UNL     1      44.333 -19.683   2.215  1.00  0.00     0.041 C 
HETATM   24  C   UNL     1      44.181 -19.515   6.030  1.00  0.00     0.001 A 
HETATM   25  C   UNL     1      43.087 -18.645   6.145  1.00  0.00     0.001 A 
HETATM   26  C   UNL     1      43.622 -18.526   1.505  1.00  0.00     0.034 C 
ENDBRANCH  15  18
ENDBRANCH   1  14
TORSDOF 3
ENDMDL
MODEL 8
REMARK VINA RESULT:      -8.3      3.659      7.650
REMARK  3 active torsions:
REMARK  status: ('A' for Active; 'I' for Inactive)
REMARK    1  A    between atoms: N_4  and  C_5 
REMARK    2  A    between atoms: C_5  and  C_6 
REMARK       I    between atoms: C_6  and  N_7 
REMARK    3  A    between atoms: N_7  and  C_8 
ROOT
HETATM    1  C   UNL     1      41.358 -15.228   2.194  1.00  0.00     0.257 C 
ENDROOT
BRANCH   1   2
HETATM    2  N   UNL     1      41.433 -14.600   0.879  1.00  0.00    -0.225 N 
HETATM    3  N   UNL     1      41.126 -15.404  -0.193  1.00  0.00    -0.173 NA
HETATM    4  C   UNL     1      41.267 -14.940  -1.397  1.00  0.00     0.062 A 
HETATM    5  C   UNL     1      40.933 -15.865  -2.543  1.00  0.00     0.073 C 
HETATM    6  C   UNL     1      41.741 -13.573  -1.688  1.00  0.00     0.006 A 
HETATM    7  C   UNL     1      42.093 -12.780  -0.602  1.00  0.00     0.046 A 
HETATM    8  C   UNL     1      41.853 -13.065  -2.988  1.00  0.00     0.014 A 
HETATM    9  C   UNL     1      41.976 -13.325   0.761  1.00  0.00     0.275 A 
HETATM   10  C   UNL     1      42.556 -11.473  -0.804  1.00  0.00     0.018 A 
HETATM   11  O   UNL     1      42.341 -12.648   1.722  1.00  0.00    -0.266 OA
HETATM   12  C   UNL     1      42.665 -10.966  -2.099  1.00  0.00     0.001 A 
HETATM   13  C   UNL     1      42.315 -11.762  -3.189  1.00  0.00     0.001 A 
ENDBRANCH   1   2
BRANCH   1  14
HETATM   14  C   UNL     1      42.720 -15.743   2.661  1.00  0.00     0.238 C 
HETATM   15  N   UNL     1      42.725 -17.080   3.003  1.00  0.00    -0.351 N 
HETATM   16  H   UNL     1      41.955 -17.646   2.649  1.00  0.00     0.163 HD
HETATM   17  O   UNL     1      43.720 -15.032   2.727  1.00  0.00    -0.272 OA
BRANCH  15  18
HETATM   18  C   UNL     1      43.926 -17.752   3.433  1.00  0.00     0.118 C 
HETATM   19  C   UNL     1      43.959 -19.204   3.038  1.00  0.00    -0.029 A 
HETATM   20  C   UNL     1      44.429 -19.995   4.094  1.00  0.00    -0.050 A 
HETATM   21  C   UNL     1      43.647 -19.776   1.813  1.00  0.00     0.010 A 
HETATM   22  C   UNL     1      44.579 -21.365   3.955  1.00  0.00     0.007 A 
HETATM   23  C   UNL     1      44.772 -19.153   5.283  1.00  0.00     0.041 C 
HETATM   24  C   UNL     1      44.243 -21.948   2.731  1.00  0.00     0.001 A 
HETATM   25  C   UNL     1      43.783 -21.159   1.667  1.00  0.00     0.001 A 
HETATM   26  C   UNL     1      44.006 -17.863   4.972  1.00  0.00     0.034 C 
ENDBRANCH  15  18
ENDBRANCH   1  14
TORSDOF 3
ENDMDL
MODEL 9
REMARK VINA RESULT:      -8.2      2.524      7.659
REMARK  3 active torsions:
REMARK  status: ('A' for Active; 'I' for Inactive)
REMARK    1  A    between atoms: N_4  and  C_5 
REMARK    2  A    between atoms: C_5  and  C_6 
REMARK       I    between atoms: C_6  and  N_7 
REMARK    3  A    between atoms: N_7  and  C_8 
ROOT
HETATM    1  C   UNL     1      41.368 -17.128   0.884  1.00  0.00     0.257 C 
ENDROOT
BRANCH   1   2
HETATM    2  N   UNL     1      41.155 -15.686   0.943  1.00  0.00    -0.225 N 
HETATM    3  N   UNL     1      41.590 -14.966  -0.145  1.00  0.00    -0.173 NA
HETATM    4  C   UNL     1      41.523 -13.670  -0.118  1.00  0.00     0.062 A 
HETATM    5  C   UNL     1      42.026 -12.921  -1.329  1.00  0.00     0.073 C 
HETATM    6  C   UNL     1      40.992 -12.910   1.031  1.00  0.00     0.006 A 
HETATM    7  C   UNL     1      40.595 -13.640   2.145  1.00  0.00     0.046 A 
HETATM    8  C   UNL     1      40.884 -11.514   1.037  1.00  0.00     0.014 A 
HETATM    9  C   UNL     1      40.717 -15.108   2.130  1.00  0.00     0.275 A 
HETATM   10  C   UNL     1      40.086 -12.984   3.273  1.00  0.00     0.018 A 
HETATM   11  O   UNL     1      40.422 -15.755   3.135  1.00  0.00    -0.266 OA
HETATM   12  C   UNL     1      39.977 -11.594   3.279  1.00  0.00     0.001 A 
HETATM   13  C   UNL     1      40.376 -10.860   2.163  1.00  0.00     0.001 A 
ENDBRANCH   1   2
BRANCH   1  14
HETATM   14  C   UNL     1      42.756 -17.523   1.392  1.00  0.00     0.238 C 
HETATM   15  N   UNL     1      42.771 -17.946   2.706  1.00  0.00    -0.351 N 
HETATM   16  H   UNL     1      41.878 -18.233   3.105  1.00  0.00     0.163 HD
HETATM   17  O   UNL     1      43.766 -17.469   0.695  1.00  0.00    -0.272 OA
BRANCH  15  18
HETATM   18  C   UNL     1      43.983 -18.392   3.348  1.00  0.00     0.118 C 
HETATM   19  C   UNL     1      44.159 -19.886   3.294  1.00  0.00    -0.029 A 
HETATM   20  C   UNL     1      44.603 -20.378   4.527  1.00  0.00    -0.050 A 
HETATM   21  C   UNL     1      43.991 -20.739   2.212  1.00  0.00     0.010 A 
HETATM   22  C   UNL     1      44.870 -21.726   4.710  1.00  0.00     0.007 A 
HETATM   23  C   UNL     1      44.784 -19.268   5.514  1.00  0.00     0.041 C 
HETATM   24  C   UNL     1      44.679 -22.591   3.631  1.00  0.00     0.001 A 
HETATM   25  C   UNL     1      44.245 -22.102   2.391  1.00  0.00     0.001 A 
HETATM   26  C   UNL     1      43.948 -18.154   4.874  1.00  0.00     0.034 C 
ENDBRANCH  15  18
ENDBRANCH   1  14
TORSDOF 3
ENDMDL
MODEL 10
REMARK VINA RESULT:      -8.2      1.765      2.709
REMARK  3 active torsions:
REMARK  status: ('A' for Active; 'I' for Inactive)
REMARK    1  A    between atoms: N_4  and  C_5 
REMARK    2  A    between atoms: C_5  and  C_6 
REMARK       I    between atoms: C_6  and  N_7 
REMARK    3  A    between atoms: N_7  and  C_8 
ROOT
HETATM    1  C   UNL     1      43.158 -15.863   2.917  1.00  0.00     0.257 C 
ENDROOT
BRANCH   1   2
HETATM    2  N   UNL     1      43.473 -17.239   3.291  1.00  0.00    -0.225 N 
HETATM    3  N   UNL     1      43.971 -17.422   4.558  1.00  0.00    -0.173 NA
HETATM    4  C   UNL     1      44.365 -18.604   4.922  1.00  0.00     0.062 A 
HETATM    5  C   UNL     1      44.921 -18.754   6.318  1.00  0.00     0.073 C 
HETATM    6  C   UNL     1      44.303 -19.786   4.040  1.00  0.00     0.006 A 
HETATM    7  C   UNL     1      43.840 -19.586   2.744  1.00  0.00     0.046 A 
HETATM    8  C   UNL     1      44.691 -21.067   4.451  1.00  0.00     0.014 A 
HETATM    9  C   UNL     1      43.437 -18.234   2.319  1.00  0.00     0.275 A 
HETATM   10  C   UNL     1      43.758 -20.662   1.851  1.00  0.00     0.018 A 
HETATM   11  O   UNL     1      43.082 -18.040   1.157  1.00  0.00    -0.266 OA
HETATM   12  C   UNL     1      44.143 -21.938   2.262  1.00  0.00     0.001 A 
HETATM   13  C   UNL     1      44.610 -22.139   3.560  1.00  0.00     0.001 A 
ENDBRANCH   1   2
BRANCH   1  14
HETATM   14  C   UNL     1      41.807 -15.414   3.476  1.00  0.00     0.238 C 
HETATM   15  N   UNL     1      41.475 -14.113   3.156  1.00  0.00    -0.351 N 
HETATM   16  H   UNL     1      41.975 -13.692   2.374  1.00  0.00     0.163 HD
HETATM   17  O   UNL     1      41.083 -16.143   4.149  1.00  0.00    -0.272 OA
BRANCH  15  18
HETATM   18  C   UNL     1      40.223 -13.524   3.565  1.00  0.00     0.118 C 
HETATM   19  C   UNL     1      39.229 -13.421   2.440  1.00  0.00    -0.029 A 
HETATM   20  C   UNL     1      38.582 -12.179   2.461  1.00  0.00    -0.050 A 
HETATM   21  C   UNL     1      38.884 -14.381   1.498  1.00  0.00     0.010 A 
HETATM   22  C   UNL     1      37.596 -11.866   1.539  1.00  0.00     0.007 A 
HETATM   23  C   UNL     1      39.063 -11.344   3.605  1.00  0.00     0.041 C 
HETATM   24  C   UNL     1      37.263 -12.820   0.575  1.00  0.00     0.001 A 
HETATM   25  C   UNL     1      37.900 -14.069   0.556  1.00  0.00     0.001 A 
HETATM   26  C   UNL     1      40.385 -12.038   3.952  1.00  0.00     0.034 C 
ENDBRANCH  15  18
ENDBRANCH   1  14
TORSDOF 3
ENDMDL
