MODEL 1
REMARK VINA RESULT:      -8.6      0.000      0.000
REMARK  6 active torsions:
REMARK  status: ('A' for Active; 'I' for Inactive)
REMARK    1  A    between atoms: O_2  and  C_3 
REMARK    2  A    between atoms: C_6  and  C_7 
REMARK    3  A    between atoms: C_7  and  N_8 
REMARK       I    between atoms: N_8  and  C_9 
REMARK    4  A    between atoms: C_9  and  C_10 
REMARK    5  A    between atoms: C_10  and  O_11 
REMARK    6  A    between atoms: N_12  and  C_13 
ROOT
HETATM    1  C   UNL     1      41.602 -14.266   1.150  1.00  0.00     0.256 C 
HETATM    2  N   UNL     1      40.426 -14.485   1.997  1.00  0.00    -0.254 N 
HETATM    3  C   UNL     1      39.251 -14.860   1.336  1.00  0.00     0.330 C 
HETATM    4  O   UNL     1      38.268 -15.401   1.839  1.00  0.00    -0.246 OA
HETATM    5  N   UNL     1      39.150 -14.468   0.016  1.00  0.00    -0.308 N 
HETATM    6  C   UNL     1      40.016 -13.558  -0.590  1.00  0.00     0.048 A 
HETATM    7  C   UNL     1      41.250 -13.329   0.015  1.00  0.00     0.035 A 
HETATM    8  C   UNL     1      39.635 -12.867  -1.738  1.00  0.00     0.031 A 
HETATM    9  C   UNL     1      40.487 -11.893  -2.261  1.00  0.00     0.021 A 
HETATM   10  C   UNL     1      41.706 -11.625  -1.636  1.00  0.00     0.011 A 
HETATM   11 BR   UNL     1      42.846 -10.291  -2.338  1.00  0.00    -0.051 Br
HETATM   12  C   UNL     1      42.097 -12.341  -0.505  1.00  0.00     0.034 A 
HETATM   13  H   UNL     1      38.239 -14.648  -0.388  1.00  0.00     0.170 HD
ENDROOT
BRANCH   1  14
HETATM   14  C   UNL     1      42.095 -15.678   0.585  1.00  0.00     0.279 C 
HETATM   15  N   UNL     1      43.023 -16.349   1.361  1.00  0.00    -0.352 N 
HETATM   16  H   UNL     1      43.258 -15.993   2.279  1.00  0.00     0.162 HD
HETATM   17  O   UNL     1      41.623 -16.191  -0.432  1.00  0.00    -0.268 OA
BRANCH  15  18
HETATM   18  C   UNL     1      43.547 -17.643   0.988  1.00  0.00     0.161 C 
BRANCH  18  19
HETATM   19  C   UNL     1      43.808 -18.496   2.204  1.00  0.00    -0.040 A 
HETATM   20  C   UNL     1      44.101 -19.859   2.074  1.00  0.00     0.011 A 
HETATM   21  C   UNL     1      44.391 -20.629   3.203  1.00  0.00     0.037 A 
HETATM   22  C   UNL     1      44.404 -20.056   4.477  1.00  0.00     0.068 A 
HETATM   23  C   UNL     1      44.103 -18.702   4.616  1.00  0.00     0.037 A 
HETATM   24  C   UNL     1      43.813 -17.927   3.487  1.00  0.00     0.011 A 
BRANCH  22  25
HETATM   25  O   UNL     1      44.721 -20.918   5.490  1.00  0.00    -0.356 OA
HETATM   26  C   UNL     1      45.095 -22.238   5.114  1.00  0.00     0.210 C 
ENDBRANCH  22  25
ENDBRANCH  18  19
ENDBRANCH  15  18
ENDBRANCH   1  14
BRANCH   1  27
HETATM   27  O   UNL     1      42.721 -13.736   1.865  1.00  0.00    -0.359 OA
HETATM   28  H   UNL     1      42.757 -14.265   2.685  1.00  0.00     0.213 HD
ENDBRANCH   1  27
BRANCH   2  29
HETATM   29  C   UNL     1      40.517 -14.552   3.420  1.00  0.00     0.042 A 
HETATM   30  C   UNL     1      40.934 -15.718   4.074  1.00  0.00     0.030 A 
HETATM   31  C   UNL     1      40.972 -15.784   5.470  1.00  0.00     0.002 A 
HETATM   32  C   UNL     1      40.579 -14.687   6.233  1.00  0.00     0.000 A 
HETATM   33  C   UNL     1      40.147 -13.525   5.600  1.00  0.00     0.002 A 
HETATM   34  C   UNL     1      40.112 -13.462   4.204  1.00  0.00     0.030 A 
ENDBRANCH   2  29
TORSDOF 6
ENDMDL
MODEL 2
REMARK VINA RESULT:      -8.4      0.781      1.245
REMARK  6 active torsions:
REMARK  status: ('A' for Active; 'I' for Inactive)
REMARK    1  A    between atoms: O_2  and  C_3 
REMARK    2  A    between atoms: C_6  and  C_7 
REMARK    3  A    between atoms: C_7  and  N_8 
REMARK       I    between atoms: N_8  and  C_9 
REMARK    4  A    between atoms: C_9  and  C_10 
REMARK    5  A    between atoms: C_10  and  O_11 
REMARK    6  A    between atoms: N_12  and  C_13 
ROOT
HETATM    1  C   UNL     1      41.368 -13.960   0.822  1.00  0.00     0.256 C 
HETATM    2  N   UNL     1      40.174 -14.092   1.662  1.00  0.00    -0.254 N 
HETATM    3  C   UNL     1      39.005 -14.503   1.011  1.00  0.00     0.330 C 
HETATM    4  O   UNL     1      38.004 -14.988   1.537  1.00  0.00    -0.246 OA
HETATM    5  N   UNL     1      38.933 -14.217  -0.339  1.00  0.00    -0.308 N 
HETATM    6  C   UNL     1      39.824 -13.372  -0.999  1.00  0.00     0.048 A 
HETATM    7  C   UNL     1      41.050 -13.112  -0.391  1.00  0.00     0.035 A 
HETATM    8  C   UNL     1      39.474 -12.771  -2.206  1.00  0.00     0.031 A 
HETATM    9  C   UNL     1      40.351 -11.853  -2.790  1.00  0.00     0.021 A 
HETATM   10  C   UNL     1      41.562 -11.553  -2.165  1.00  0.00     0.011 A 
HETATM   11 BR   UNL     1      42.735 -10.297  -2.950  1.00  0.00    -0.051 Br
HETATM   12  C   UNL     1      41.922 -12.181  -0.972  1.00  0.00     0.034 A 
HETATM   13  H   UNL     1      38.027 -14.416  -0.744  1.00  0.00     0.170 HD
ENDROOT
BRANCH   1  14
HETATM   14  C   UNL     1      41.849 -15.419   0.382  1.00  0.00     0.279 C 
HETATM   15  N   UNL     1      42.737 -16.046   1.237  1.00  0.00    -0.352 N 
HETATM   16  H   UNL     1      42.951 -15.626   2.133  1.00  0.00     0.162 HD
HETATM   17  O   UNL     1      41.398 -15.999  -0.608  1.00  0.00    -0.268 OA
BRANCH  15  18
HETATM   18  C   UNL     1      43.245 -17.374   0.980  1.00  0.00     0.161 C 
BRANCH  18  19
HETATM   19  C   UNL     1      43.619 -18.071   2.264  1.00  0.00    -0.040 A 
HETATM   20  C   UNL     1      43.482 -17.424   3.498  1.00  0.00     0.011 A 
HETATM   21  C   UNL     1      43.783 -18.096   4.685  1.00  0.00     0.037 A 
HETATM   22  C   UNL     1      44.215 -19.424   4.666  1.00  0.00     0.068 A 
HETATM   23  C   UNL     1      44.364 -20.073   3.441  1.00  0.00     0.037 A 
HETATM   24  C   UNL     1      44.063 -19.403   2.250  1.00  0.00     0.011 A 
BRANCH  22  25
HETATM   25  O   UNL     1      44.456 -19.966   5.898  1.00  0.00    -0.356 OA
HETATM   26  C   UNL     1      43.880 -19.299   7.015  1.00  0.00     0.210 C 
ENDBRANCH  22  25
ENDBRANCH  18  19
ENDBRANCH  15  18
ENDBRANCH   1  14
BRANCH   1  27
HETATM   27  O   UNL     1      42.482 -13.389   1.513  1.00  0.00    -0.359 OA
HETATM   28  H   UNL     1      43.159 -14.093   1.504  1.00  0.00     0.213 HD
ENDBRANCH   1  27
BRANCH   2  29
HETATM   29  C   UNL     1      40.238 -14.046   3.087  1.00  0.00     0.042 A 
HETATM   30  C   UNL     1      40.578 -15.174   3.843  1.00  0.00     0.030 A 
HETATM   31  C   UNL     1      40.590 -15.126   5.240  1.00  0.00     0.002 A 
HETATM   32  C   UNL     1      40.248 -13.949   5.902  1.00  0.00     0.000 A 
HETATM   33  C   UNL     1      39.892 -12.822   5.167  1.00  0.00     0.002 A 
HETATM   34  C   UNL     1      39.883 -12.873   3.770  1.00  0.00     0.030 A 
ENDBRANCH   2  29
TORSDOF 6
ENDMDL
MODEL 3
REMARK VINA RESULT:      -8.3      2.084      2.684
REMARK  6 active torsions:
REMARK  status: ('A' for Active; 'I' for Inactive)
REMARK    1  A    between atoms: O_2  and  C_3 
REMARK    2  A    between atoms: C_6  and  C_7 
REMARK    3  A    between atoms: C_7  and  N_8 
REMARK       I    between atoms: N_8  and  C_9 
REMARK    4  A    between atoms: C_9  and  C_10 
REMARK    5  A    between atoms: C_10  and  O_11 
REMARK    6  A    between atoms: N_12  and  C_13 
ROOT
HETATM    1  C   UNL     1      42.065 -14.387   2.801  1.00  0.00     0.256 C 
HETATM    2  N   UNL     1      41.746 -14.583   4.218  1.00  0.00    -0.254 N 
HETATM    3  C   UNL     1      40.418 -14.912   4.511  1.00  0.00     0.330 C 
HETATM    4  O   UNL     1      40.002 -15.431   5.546  1.00  0.00    -0.246 OA
HETATM    5  N   UNL     1      39.476 -14.498   3.589  1.00  0.00    -0.308 N 
HETATM    6  C   UNL     1      39.747 -13.606   2.553  1.00  0.00     0.048 A 
HETATM    7  C   UNL     1      41.077 -13.423   2.180  1.00  0.00     0.035 A 
HETATM    8  C   UNL     1      38.721 -12.887   1.944  1.00  0.00     0.031 A 
HETATM    9  C   UNL     1      39.039 -11.931   0.977  1.00  0.00     0.021 A 
HETATM   10  C   UNL     1      40.373 -11.709   0.630  1.00  0.00     0.011 A 
HETATM   11 BR   UNL     1      40.798 -10.401  -0.666  1.00  0.00    -0.051 Br
HETATM   12  C   UNL     1      41.394 -12.454   1.219  1.00  0.00     0.034 A 
HETATM   13  H   UNL     1      38.522 -14.644   3.897  1.00  0.00     0.170 HD
ENDROOT
BRANCH   1  14
HETATM   14  C   UNL     1      42.011 -15.805   2.064  1.00  0.00     0.279 C 
HETATM   15  N   UNL     1      43.230 -16.422   1.851  1.00  0.00    -0.352 N 
HETATM   16  H   UNL     1      44.069 -16.027   2.257  1.00  0.00     0.162 HD
HETATM   17  O   UNL     1      40.952 -16.367   1.776  1.00  0.00    -0.268 OA
BRANCH  15  18
HETATM   18  C   UNL     1      43.338 -17.714   1.212  1.00  0.00     0.161 C 
BRANCH  18  19
HETATM   19  C   UNL     1      43.802 -18.766   2.187  1.00  0.00    -0.040 A 
HETATM   20  C   UNL     1      44.017 -18.450   3.535  1.00  0.00     0.011 A 
HETATM   21  C   UNL     1      44.399 -19.444   4.440  1.00  0.00     0.037 A 
HETATM   22  C   UNL     1      44.564 -20.766   4.024  1.00  0.00     0.068 A 
HETATM   23  C   UNL     1      44.363 -21.087   2.683  1.00  0.00     0.037 A 
HETATM   24  C   UNL     1      43.980 -20.095   1.773  1.00  0.00     0.011 A 
BRANCH  22  25
HETATM   25  O   UNL     1      44.921 -21.639   5.015  1.00  0.00    -0.356 OA
HETATM   26  C   UNL     1      44.263 -21.489   6.268  1.00  0.00     0.210 C 
ENDBRANCH  22  25
ENDBRANCH  18  19
ENDBRANCH  15  18
ENDBRANCH   1  14
BRANCH   1  27
HETATM   27  O   UNL     1      43.393 -13.902   2.584  1.00  0.00    -0.359 OA
HETATM   28  H   UNL     1      43.364 -13.510   1.691  1.00  0.00     0.213 HD
ENDBRANCH   1  27
BRANCH   2  29
HETATM   29  C   UNL     1      42.758 -14.674   5.219  1.00  0.00     0.042 A 
HETATM   30  C   UNL     1      43.329 -15.902   5.576  1.00  0.00     0.030 A 
HETATM   31  C   UNL     1      44.285 -15.981   6.593  1.00  0.00     0.002 A 
HETATM   32  C   UNL     1      44.676 -14.833   7.277  1.00  0.00     0.000 A 
HETATM   33  C   UNL     1      44.108 -13.606   6.946  1.00  0.00     0.002 A 
HETATM   34  C   UNL     1      43.153 -13.529   5.928  1.00  0.00     0.030 A 
ENDBRANCH   2  29
TORSDOF 6
ENDMDL
MODEL 4
REMARK VINA RESULT:      -8.1      2.653      6.527
REMARK  6 active torsions:
REMARK  status: ('A' for Active; 'I' for Inactive)
REMARK    1  A    between atoms: O_2  and  C_3 
REMARK    2  A    between atoms: C_6  and  C_7 
REMARK    3  A    between atoms: C_7  and  N_8 
REMARK       I    between atoms: N_8  and  C_9 
REMARK    4  A    between atoms: C_9  and  C_10 
REMARK    5  A    between atoms: C_10  and  O_11 
REMARK    6  A    between atoms: N_12  and  C_13 
ROOT
HETATM    1  C   UNL     1      41.783 -14.709   4.255  1.00  0.00     0.256 C 
HETATM    2  N   UNL     1      41.807 -15.797   5.236  1.00  0.00    -0.254 N 
HETATM    3  C   UNL     1      40.599 -16.065   5.889  1.00  0.00     0.330 C 
HETATM    4  O   UNL     1      40.299 -17.101   6.481  1.00  0.00    -0.246 OA
HETATM    5  N   UNL     1      39.712 -15.010   5.975  1.00  0.00    -0.308 N 
HETATM    6  C   UNL     1      40.045 -13.692   5.665  1.00  0.00     0.048 A 
HETATM    7  C   UNL     1      41.171 -13.471   4.876  1.00  0.00     0.035 A 
HETATM    8  C   UNL     1      39.299 -12.630   6.172  1.00  0.00     0.031 A 
HETATM    9  C   UNL     1      39.719 -11.322   5.923  1.00  0.00     0.021 A 
HETATM   10  C   UNL     1      40.871 -11.092   5.170  1.00  0.00     0.011 A 
HETATM   11 BR   UNL     1      41.444  -9.319   4.853  1.00  0.00    -0.051 Br
HETATM   12  C   UNL     1      41.597 -12.158   4.638  1.00  0.00     0.034 A 
HETATM   13  H   UNL     1      38.909 -15.207   6.559  1.00  0.00     0.170 HD
ENDROOT
BRANCH   1  14
HETATM   14  C   UNL     1      40.935 -15.183   2.986  1.00  0.00     0.279 C 
HETATM   15  N   UNL     1      41.658 -15.761   1.958  1.00  0.00    -0.352 N 
HETATM   16  H   UNL     1      42.641 -15.963   2.089  1.00  0.00     0.162 HD
HETATM   17  O   UNL     1      39.704 -15.125   2.946  1.00  0.00    -0.268 OA
BRANCH  15  18
HETATM   18  C   UNL     1      41.027 -16.254   0.755  1.00  0.00     0.161 C 
BRANCH  18  19
HETATM   19  C   UNL     1      41.279 -15.330  -0.410  1.00  0.00    -0.040 A 
HETATM   20  C   UNL     1      41.000 -15.736  -1.721  1.00  0.00     0.011 A 
HETATM   21  C   UNL     1      41.190 -14.855  -2.788  1.00  0.00     0.037 A 
HETATM   22  C   UNL     1      41.651 -13.555  -2.570  1.00  0.00     0.068 A 
HETATM   23  C   UNL     1      41.942 -13.146  -1.269  1.00  0.00     0.037 A 
HETATM   24  C   UNL     1      41.752 -14.026  -0.197  1.00  0.00     0.011 A 
BRANCH  22  25
HETATM   25  O   UNL     1      41.774 -12.793  -3.699  1.00  0.00    -0.356 OA
HETATM   26  C   UNL     1      42.346 -11.500  -3.539  1.00  0.00     0.210 C 
ENDBRANCH  22  25
ENDBRANCH  18  19
ENDBRANCH  15  18
ENDBRANCH   1  14
BRANCH   1  27
HETATM   27  O   UNL     1      43.078 -14.384   3.742  1.00  0.00    -0.359 OA
HETATM   28  H   UNL     1      43.643 -14.319   4.534  1.00  0.00     0.213 HD
ENDBRANCH   1  27
BRANCH   2  29
HETATM   29  C   UNL     1      42.914 -16.690   5.353  1.00  0.00     0.042 A 
HETATM   30  C   UNL     1      43.071 -17.781   4.489  1.00  0.00     0.030 A 
HETATM   31  C   UNL     1      44.135 -18.674   4.648  1.00  0.00     0.002 A 
HETATM   32  C   UNL     1      45.051 -18.496   5.681  1.00  0.00     0.000 A 
HETATM   33  C   UNL     1      44.901 -17.426   6.559  1.00  0.00     0.002 A 
HETATM   34  C   UNL     1      43.838 -16.534   6.398  1.00  0.00     0.030 A 
ENDBRANCH   2  29
TORSDOF 6
ENDMDL
MODEL 5
REMARK VINA RESULT:      -7.7      2.328      4.864
REMARK  6 active torsions:
REMARK  status: ('A' for Active; 'I' for Inactive)
REMARK    1  A    between atoms: O_2  and  C_3 
REMARK    2  A    between atoms: C_6  and  C_7 
REMARK    3  A    between atoms: C_7  and  N_8 
REMARK       I    between atoms: N_8  and  C_9 
REMARK    4  A    between atoms: C_9  and  C_10 
REMARK    5  A    between atoms: C_10  and  O_11 
REMARK    6  A    between atoms: N_12  and  C_13 
ROOT
HETATM    1  C   UNL     1      40.460 -14.779   0.870  1.00  0.00     0.256 C 
HETATM    2  N   UNL     1      40.454 -13.621  -0.028  1.00  0.00    -0.254 N 
HETATM    3  C   UNL     1      41.621 -12.848  -0.046  1.00  0.00     0.330 C 
HETATM    4  O   UNL     1      41.966 -12.060  -0.925  1.00  0.00    -0.246 OA
HETATM    5  N   UNL     1      42.392 -12.893   1.099  1.00  0.00    -0.308 N 
HETATM    6  C   UNL     1      41.963 -13.458   2.300  1.00  0.00     0.048 A 
HETATM    7  C   UNL     1      40.895 -14.350   2.256  1.00  0.00     0.035 A 
HETATM    8  C   UNL     1      42.557 -13.100   3.508  1.00  0.00     0.031 A 
HETATM    9  C   UNL     1      42.037 -13.610   4.700  1.00  0.00     0.021 A 
HETATM   10  C   UNL     1      40.938 -14.470   4.668  1.00  0.00     0.011 A 
HETATM   11 BR   UNL     1      40.228 -15.142   6.286  1.00  0.00    -0.051 Br
HETATM   12  C   UNL     1      40.367 -14.850   3.454  1.00  0.00     0.034 A 
HETATM   13  H   UNL     1      43.156 -12.228   1.095  1.00  0.00     0.170 HD
ENDROOT
BRANCH   1  14
HETATM   14  C   UNL     1      41.458 -15.879   0.280  1.00  0.00     0.279 C 
HETATM   15  N   UNL     1      42.295 -16.489   1.197  1.00  0.00    -0.352 N 
HETATM   16  H   UNL     1      42.171 -16.309   2.186  1.00  0.00     0.162 HD
HETATM   17  O   UNL     1      41.434 -16.238  -0.899  1.00  0.00    -0.268 OA
BRANCH  15  18
HETATM   18  C   UNL     1      43.239 -17.515   0.815  1.00  0.00     0.161 C 
BRANCH  18  19
HETATM   19  C   UNL     1      43.657 -18.340   2.005  1.00  0.00    -0.040 A 
HETATM   20  C   UNL     1      43.642 -17.796   3.296  1.00  0.00     0.011 A 
HETATM   21  C   UNL     1      43.984 -18.584   4.398  1.00  0.00     0.037 A 
HETATM   22  C   UNL     1      44.336 -19.926   4.237  1.00  0.00     0.068 A 
HETATM   23  C   UNL     1      44.365 -20.472   2.955  1.00  0.00     0.037 A 
HETATM   24  C   UNL     1      44.023 -19.686   1.848  1.00  0.00     0.011 A 
BRANCH  22  25
HETATM   25  O   UNL     1      44.629 -20.585   5.399  1.00  0.00    -0.356 OA
HETATM   26  C   UNL     1      44.853 -21.987   5.300  1.00  0.00     0.210 C 
ENDBRANCH  22  25
ENDBRANCH  18  19
ENDBRANCH  15  18
ENDBRANCH   1  14
BRANCH   1  27
HETATM   27  O   UNL     1      39.191 -15.430   0.958  1.00  0.00    -0.359 OA
HETATM   28  H   UNL     1      39.401 -16.327   1.281  1.00  0.00     0.213 HD
ENDBRANCH   1  27
BRANCH   2  29
HETATM   29  C   UNL     1      39.432 -13.421  -1.004  1.00  0.00     0.042 A 
HETATM   30  C   UNL     1      39.470 -14.062  -2.248  1.00  0.00     0.030 A 
HETATM   31  C   UNL     1      38.486 -13.819  -3.211  1.00  0.00     0.002 A 
HETATM   32  C   UNL     1      37.456 -12.920  -2.948  1.00  0.00     0.000 A 
HETATM   33  C   UNL     1      37.411 -12.262  -1.722  1.00  0.00     0.002 A 
HETATM   34  C   UNL     1      38.395 -12.508  -0.761  1.00  0.00     0.030 A 
ENDBRANCH   2  29
TORSDOF 6
ENDMDL
MODEL 6
REMARK VINA RESULT:      -7.6      2.850      6.734
REMARK  6 active torsions:
REMARK  status: ('A' for Active; 'I' for Inactive)
REMARK    1  A    between atoms: O_2  and  C_3 
REMARK    2  A    between atoms: C_6  and  C_7 
REMARK    3  A    between atoms: C_7  and  N_8 
REMARK       I    between atoms: N_8  and  C_9 
REMARK    4  A    between atoms: C_9  and  C_10 
REMARK    5  A    between atoms: C_10  and  O_11 
REMARK    6  A    between atoms: N_12  and  C_13 
ROOT
HETATM    1  C   UNL     1      42.076 -13.690   2.529  1.00  0.00     0.256 C 
HETATM    2  N   UNL     1      41.525 -15.048   2.475  1.00  0.00    -0.254 N 
HETATM    3  C   UNL     1      40.164 -15.150   2.169  1.00  0.00     0.330 C 
HETATM    4  O   UNL     1      39.577 -16.148   1.755  1.00  0.00    -0.246 OA
HETATM    5  N   UNL     1      39.390 -14.049   2.485  1.00  0.00    -0.308 N 
HETATM    6  C   UNL     1      39.839 -12.988   3.270  1.00  0.00     0.048 A 
HETATM    7  C   UNL     1      41.214 -12.823   3.421  1.00  0.00     0.035 A 
HETATM    8  C   UNL     1      38.936 -12.150   3.919  1.00  0.00     0.031 A 
HETATM    9  C   UNL     1      39.419 -11.158   4.775  1.00  0.00     0.021 A 
HETATM   10  C   UNL     1      40.795 -11.015   4.967  1.00  0.00     0.011 A 
HETATM   11 BR   UNL     1      41.442  -9.683   6.142  1.00  0.00    -0.051 Br
HETATM   12  C   UNL     1      41.696 -11.836   4.291  1.00  0.00     0.034 A 
HETATM   13  H   UNL     1      38.397 -14.208   2.366  1.00  0.00     0.170 HD
ENDROOT
BRANCH   1  14
HETATM   14  C   UNL     1      42.126 -13.099   1.044  1.00  0.00     0.279 C 
HETATM   15  N   UNL     1      41.775 -13.975   0.033  1.00  0.00    -0.352 N 
HETATM   16  H   UNL     1      41.400 -14.886   0.267  1.00  0.00     0.162 HD
HETATM   17  O   UNL     1      42.375 -11.916   0.806  1.00  0.00    -0.268 OA
BRANCH  15  18
HETATM   18  C   UNL     1      41.757 -13.579  -1.357  1.00  0.00     0.161 C 
BRANCH  18  19
HETATM   19  C   UNL     1      40.461 -13.974  -2.018  1.00  0.00    -0.040 A 
HETATM   20  C   UNL     1      40.459 -14.715  -3.207  1.00  0.00     0.011 A 
HETATM   21  C   UNL     1      39.252 -15.118  -3.785  1.00  0.00     0.037 A 
HETATM   22  C   UNL     1      38.031 -14.802  -3.187  1.00  0.00     0.068 A 
HETATM   23  C   UNL     1      38.023 -14.055  -2.010  1.00  0.00     0.037 A 
HETATM   24  C   UNL     1      39.229 -13.649  -1.428  1.00  0.00     0.011 A 
BRANCH  22  25
HETATM   25  O   UNL     1      36.930 -15.274  -3.847  1.00  0.00    -0.356 OA
HETATM   26  C   UNL     1      36.201 -14.335  -4.628  1.00  0.00     0.210 C 
ENDBRANCH  22  25
ENDBRANCH  18  19
ENDBRANCH  15  18
ENDBRANCH   1  14
BRANCH   1  27
HETATM   27  O   UNL     1      43.426 -13.648   2.997  1.00  0.00    -0.359 OA
HETATM   28  H   UNL     1      43.344 -13.511   3.959  1.00  0.00     0.213 HD
ENDBRANCH   1  27
BRANCH   2  29
HETATM   29  C   UNL     1      42.358 -16.207   2.489  1.00  0.00     0.042 A 
HETATM   30  C   UNL     1      42.620 -16.907   3.672  1.00  0.00     0.030 A 
HETATM   31  C   UNL     1      43.477 -18.012   3.678  1.00  0.00     0.002 A 
HETATM   32  C   UNL     1      44.094 -18.425   2.500  1.00  0.00     0.000 A 
HETATM   33  C   UNL     1      43.857 -17.731   1.317  1.00  0.00     0.002 A 
HETATM   34  C   UNL     1      43.000 -16.628   1.314  1.00  0.00     0.030 A 
ENDBRANCH   2  29
TORSDOF 6
ENDMDL
MODEL 7
REMARK VINA RESULT:      -7.6      2.906      7.280
REMARK  6 active torsions:
REMARK  status: ('A' for Active; 'I' for Inactive)
REMARK    1  A    between atoms: O_2  and  C_3 
REMARK    2  A    between atoms: C_6  and  C_7 
REMARK    3  A    between atoms: C_7  and  N_8 
REMARK       I    between atoms: N_8  and  C_9 
REMARK    4  A    between atoms: C_9  and  C_10 
REMARK    5  A    between atoms: C_10  and  O_11 
REMARK    6  A    between atoms: N_12  and  C_13 
ROOT
HETATM    1  C   UNL     1      41.810 -14.781   4.265  1.00  0.00     0.256 C 
HETATM    2  N   UNL     1      41.838 -15.845   5.273  1.00  0.00    -0.254 N 
HETATM    3  C   UNL     1      40.622 -16.127   5.906  1.00  0.00     0.330 C 
HETATM    4  O   UNL     1      40.334 -17.155   6.516  1.00  0.00    -0.246 OA
HETATM    5  N   UNL     1      39.710 -15.091   5.948  1.00  0.00    -0.308 N 
HETATM    6  C   UNL     1      40.019 -13.772   5.615  1.00  0.00     0.048 A 
HETATM    7  C   UNL     1      41.157 -13.544   4.844  1.00  0.00     0.035 A 
HETATM    8  C   UNL     1      39.238 -12.717   6.080  1.00  0.00     0.031 A 
HETATM    9  C   UNL     1      39.633 -11.406   5.809  1.00  0.00     0.021 A 
HETATM   10  C   UNL     1      40.796 -11.166   5.075  1.00  0.00     0.011 A 
HETATM   11 BR   UNL     1      41.335  -9.388   4.727  1.00  0.00    -0.051 Br
HETATM   12  C   UNL     1      41.557 -12.227   4.584  1.00  0.00     0.034 A 
HETATM   13  H   UNL     1      38.899 -15.293   6.520  1.00  0.00     0.170 HD
ENDROOT
BRANCH   1  14
HETATM   14  C   UNL     1      41.001 -15.304   2.990  1.00  0.00     0.279 C 
HETATM   15  N   UNL     1      40.946 -14.439   1.913  1.00  0.00    -0.352 N 
HETATM   16  H   UNL     1      41.496 -13.589   1.925  1.00  0.00     0.162 HD
HETATM   17  O   UNL     1      40.526 -16.439   2.922  1.00  0.00    -0.268 OA
BRANCH  15  18
HETATM   18  C   UNL     1      40.265 -14.780   0.685  1.00  0.00     0.161 C 
BRANCH  18  19
HETATM   19  C   UNL     1      39.147 -13.812   0.394  1.00  0.00    -0.040 A 
HETATM   20  C   UNL     1      38.554 -13.071   1.425  1.00  0.00     0.011 A 
HETATM   21  C   UNL     1      37.553 -12.139   1.139  1.00  0.00     0.037 A 
HETATM   22  C   UNL     1      37.132 -11.921  -0.175  1.00  0.00     0.068 A 
HETATM   23  C   UNL     1      37.709 -12.662  -1.205  1.00  0.00     0.037 A 
HETATM   24  C   UNL     1      38.713 -13.596  -0.923  1.00  0.00     0.011 A 
BRANCH  22  25
HETATM   25  O   UNL     1      36.160 -10.970  -0.315  1.00  0.00    -0.356 OA
HETATM   26  C   UNL     1      34.984 -11.136   0.467  1.00  0.00     0.210 C 
ENDBRANCH  22  25
ENDBRANCH  18  19
ENDBRANCH  15  18
ENDBRANCH   1  14
BRANCH   1  27
HETATM   27  O   UNL     1      43.108 -14.438   3.772  1.00  0.00    -0.359 OA
HETATM   28  H   UNL     1      43.134 -14.820   2.875  1.00  0.00     0.213 HD
ENDBRANCH   1  27
BRANCH   2  29
HETATM   29  C   UNL     1      42.962 -16.709   5.435  1.00  0.00     0.042 A 
HETATM   30  C   UNL     1      43.175 -17.803   4.587  1.00  0.00     0.030 A 
HETATM   31  C   UNL     1      44.255 -18.668   4.788  1.00  0.00     0.002 A 
HETATM   32  C   UNL     1      45.131 -18.458   5.849  1.00  0.00     0.000 A 
HETATM   33  C   UNL     1      44.927 -17.384   6.711  1.00  0.00     0.002 A 
HETATM   34  C   UNL     1      43.847 -16.520   6.507  1.00  0.00     0.030 A 
ENDBRANCH   2  29
TORSDOF 6
ENDMDL
MODEL 8
REMARK VINA RESULT:      -7.5      2.428      4.886
REMARK  6 active torsions:
REMARK  status: ('A' for Active; 'I' for Inactive)
REMARK    1  A    between atoms: O_2  and  C_3 
REMARK    2  A    between atoms: C_6  and  C_7 
REMARK    3  A    between atoms: C_7  and  N_8 
REMARK       I    between atoms: N_8  and  C_9 
REMARK    4  A    between atoms: C_9  and  C_10 
REMARK    5  A    between atoms: C_10  and  O_11 
REMARK    6  A    between atoms: N_12  and  C_13 
ROOT
HETATM    1  C   UNL     1      40.191 -14.510   0.590  1.00  0.00     0.256 C 
HETATM    2  N   UNL     1      40.214 -13.491  -0.464  1.00  0.00    -0.254 N 
HETATM    3  C   UNL     1      41.393 -12.747  -0.577  1.00  0.00     0.330 C 
HETATM    4  O   UNL     1      41.760 -12.096  -1.554  1.00  0.00    -0.246 OA
HETATM    5  N   UNL     1      42.152 -12.640   0.573  1.00  0.00    -0.308 N 
HETATM    6  C   UNL     1      41.702 -13.022   1.836  1.00  0.00     0.048 A 
HETATM    7  C   UNL     1      40.619 -13.896   1.906  1.00  0.00     0.035 A 
HETATM    8  C   UNL     1      42.289 -12.506   2.988  1.00  0.00     0.031 A 
HETATM    9  C   UNL     1      41.749 -12.833   4.234  1.00  0.00     0.021 A 
HETATM   10  C   UNL     1      40.636 -13.672   4.311  1.00  0.00     0.011 A 
HETATM   11 BR   UNL     1      39.899 -14.097   5.999  1.00  0.00    -0.051 Br
HETATM   12  C   UNL     1      40.071 -14.212   3.156  1.00  0.00     0.034 A 
HETATM   13  H   UNL     1      42.927 -11.994   0.484  1.00  0.00     0.170 HD
ENDROOT
BRANCH   1  14
HETATM   14  C   UNL     1      41.176 -15.698   0.175  1.00  0.00     0.279 C 
HETATM   15  N   UNL     1      41.867 -16.300   1.211  1.00  0.00    -0.352 N 
HETATM   16  H   UNL     1      41.646 -16.056   2.168  1.00  0.00     0.162 HD
HETATM   17  O   UNL     1      41.259 -16.123  -0.980  1.00  0.00    -0.268 OA
BRANCH  15  18
HETATM   18  C   UNL     1      42.780 -17.399   0.991  1.00  0.00     0.161 C 
BRANCH  18  19
HETATM   19  C   UNL     1      43.099 -18.107   2.283  1.00  0.00    -0.040 A 
HETATM   20  C   UNL     1      44.059 -19.126   2.324  1.00  0.00     0.011 A 
HETATM   21  C   UNL     1      44.384 -19.742   3.535  1.00  0.00     0.037 A 
HETATM   22  C   UNL     1      43.769 -19.349   4.726  1.00  0.00     0.068 A 
HETATM   23  C   UNL     1      42.804 -18.343   4.692  1.00  0.00     0.037 A 
HETATM   24  C   UNL     1      42.476 -17.724   3.481  1.00  0.00     0.011 A 
BRANCH  22  25
HETATM   25  O   UNL     1      44.193 -20.020   5.839  1.00  0.00    -0.356 OA
HETATM   26  C   UNL     1      43.883 -19.433   7.097  1.00  0.00     0.210 C 
ENDBRANCH  22  25
ENDBRANCH  18  19
ENDBRANCH  15  18
ENDBRANCH   1  14
BRANCH   1  27
HETATM   27  O   UNL     1      38.910 -15.123   0.754  1.00  0.00    -0.359 OA
HETATM   28  H   UNL     1      38.898 -15.840   0.092  1.00  0.00     0.213 HD
ENDBRANCH   1  27
BRANCH   2  29
HETATM   29  C   UNL     1      39.205 -13.417  -1.470  1.00  0.00     0.042 A 
HETATM   30  C   UNL     1      39.194 -14.290  -2.564  1.00  0.00     0.030 A 
HETATM   31  C   UNL     1      38.227 -14.173  -3.567  1.00  0.00     0.002 A 
HETATM   32  C   UNL     1      37.262 -13.171  -3.495  1.00  0.00     0.000 A 
HETATM   33  C   UNL     1      37.266 -12.285  -2.422  1.00  0.00     0.002 A 
HETATM   34  C   UNL     1      38.234 -12.405  -1.421  1.00  0.00     0.030 A 
ENDBRANCH   2  29
TORSDOF 6
ENDMDL
MODEL 9
REMARK VINA RESULT:      -7.2      2.839      5.066
REMARK  6 active torsions:
REMARK  status: ('A' for Active; 'I' for Inactive)
REMARK    1  A    between atoms: O_2  and  C_3 
REMARK    2  A    between atoms: C_6  and  C_7 
REMARK    3  A    between atoms: C_7  and  N_8 
REMARK       I    between atoms: N_8  and  C_9 
REMARK    4  A    between atoms: C_9  and  C_10 
REMARK    5  A    between atoms: C_10  and  O_11 
REMARK    6  A    between atoms: N_12  and  C_13 
ROOT
HETATM    1  C   UNL     1      40.414 -14.433   0.336  1.00  0.00     0.256 C 
HETATM    2  N   UNL     1      40.520 -14.012  -1.064  1.00  0.00    -0.254 N 
HETATM    3  C   UNL     1      41.589 -13.164  -1.374  1.00  0.00     0.330 C 
HETATM    4  O   UNL     1      42.061 -12.956  -2.491  1.00  0.00    -0.246 OA
HETATM    5  N   UNL     1      42.073 -12.397  -0.331  1.00  0.00    -0.308 N 
HETATM    6  C   UNL     1      41.425 -12.262   0.896  1.00  0.00     0.048 A 
HETATM    7  C   UNL     1      40.476 -13.221   1.242  1.00  0.00     0.035 A 
HETATM    8  C   UNL     1      41.688 -11.175   1.725  1.00  0.00     0.031 A 
HETATM    9  C   UNL     1      40.950 -11.019   2.900  1.00  0.00     0.021 A 
HETATM   10  C   UNL     1      39.966 -11.951   3.233  1.00  0.00     0.011 A 
HETATM   11 BR   UNL     1      38.958 -11.725   4.815  1.00  0.00    -0.051 Br
HETATM   12  C   UNL     1      39.728 -13.056   2.415  1.00  0.00     0.034 A 
HETATM   13  H   UNL     1      42.758 -11.710  -0.623  1.00  0.00     0.170 HD
ENDROOT
BRANCH   1  14
HETATM   14  C   UNL     1      41.611 -15.441   0.659  1.00  0.00     0.279 C 
HETATM   15  N   UNL     1      42.241 -15.261   1.878  1.00  0.00    -0.352 N 
HETATM   16  H   UNL     1      41.861 -14.600   2.544  1.00  0.00     0.162 HD
HETATM   17  O   UNL     1      41.909 -16.382  -0.080  1.00  0.00    -0.268 OA
BRANCH  15  18
HETATM   18  C   UNL     1      43.328 -16.107   2.315  1.00  0.00     0.161 C 
BRANCH  18  19
HETATM   19  C   UNL     1      43.168 -16.492   3.764  1.00  0.00    -0.040 A 
HETATM   20  C   UNL     1      43.107 -17.838   4.146  1.00  0.00     0.011 A 
HETATM   21  C   UNL     1      43.010 -18.186   5.496  1.00  0.00     0.037 A 
HETATM   22  C   UNL     1      42.982 -17.203   6.487  1.00  0.00     0.068 A 
HETATM   23  C   UNL     1      43.031 -15.860   6.115  1.00  0.00     0.037 A 
HETATM   24  C   UNL     1      43.129 -15.508   4.764  1.00  0.00     0.011 A 
BRANCH  22  25
HETATM   25  O   UNL     1      42.904 -17.681   7.766  1.00  0.00    -0.356 OA
HETATM   26  C   UNL     1      44.003 -18.459   8.227  1.00  0.00     0.210 C 
ENDBRANCH  22  25
ENDBRANCH  18  19
ENDBRANCH  15  18
ENDBRANCH   1  14
BRANCH   1  27
HETATM   27  O   UNL     1      39.219 -15.166   0.615  1.00  0.00    -0.359 OA
HETATM   28  H   UNL     1      39.386 -15.580   1.483  1.00  0.00     0.213 HD
ENDBRANCH   1  27
BRANCH   2  29
HETATM   29  C   UNL     1      39.740 -14.610  -2.099  1.00  0.00     0.042 A 
HETATM   30  C   UNL     1      40.237 -15.664  -2.876  1.00  0.00     0.030 A 
HETATM   31  C   UNL     1      39.479 -16.207  -3.917  1.00  0.00     0.002 A 
HETATM   32  C   UNL     1      38.216 -15.696  -4.204  1.00  0.00     0.000 A 
HETATM   33  C   UNL     1      37.712 -14.639  -3.452  1.00  0.00     0.002 A 
HETATM   34  C   UNL     1      38.471 -14.098  -2.411  1.00  0.00     0.030 A 
ENDBRANCH   2  29
TORSDOF 6
ENDMDL
MODEL 10
REMARK VINA RESULT:      -7.2      3.651      5.077
REMARK  6 active torsions:
REMARK  status: ('A' for Active; 'I' for Inactive)
REMARK    1  A    between atoms: O_2  and  C_3 
REMARK    2  A    between atoms: C_6  and  C_7 
REMARK    3  A    between atoms: C_7  and  N_8 
REMARK       I    between atoms: N_8  and  C_9 
REMARK    4  A    between atoms: C_9  and  C_10 
REMARK    5  A    between atoms: C_10  and  O_11 
REMARK    6  A    between atoms: N_12  and  C_13 
ROOT
HETATM    1  C   UNL     1      42.343 -14.650   5.431  1.00  0.00     0.256 C 
HETATM    2  N   UNL     1      41.936 -15.823   6.208  1.00  0.00    -0.254 N 
HETATM    3  C   UNL     1      40.578 -16.160   6.152  1.00  0.00     0.330 C 
HETATM    4  O   UNL     1      40.080 -17.248   6.435  1.00  0.00    -0.246 OA
HETATM    5  N   UNL     1      39.711 -15.123   5.866  1.00  0.00    -0.308 N 
HETATM    6  C   UNL     1      40.085 -13.780   5.865  1.00  0.00     0.048 A 
HETATM    7  C   UNL     1      41.441 -13.479   5.758  1.00  0.00     0.035 A 
HETATM    8  C   UNL     1      39.132 -12.775   6.014  1.00  0.00     0.031 A 
HETATM    9  C   UNL     1      39.551 -11.446   6.107  1.00  0.00     0.021 A 
HETATM   10  C   UNL     1      40.912 -11.140   6.045  1.00  0.00     0.011 A 
HETATM   11 BR   UNL     1      41.474  -9.341   6.191  1.00  0.00    -0.051 Br
HETATM   12  C   UNL     1      41.860 -12.146   5.865  1.00  0.00     0.034 A 
HETATM   13  H   UNL     1      38.736 -15.379   5.958  1.00  0.00     0.170 HD
ENDROOT
BRANCH   1  14
HETATM   14  C   UNL     1      42.258 -15.011   3.876  1.00  0.00     0.279 C 
HETATM   15  N   UNL     1      43.298 -15.774   3.376  1.00  0.00    -0.352 N 
HETATM   16  H   UNL     1      43.986 -16.160   4.010  1.00  0.00     0.162 HD
HETATM   17  O   UNL     1      41.291 -14.712   3.173  1.00  0.00    -0.268 OA
BRANCH  15  18
HETATM   18  C   UNL     1      43.350 -16.194   1.994  1.00  0.00     0.161 C 
BRANCH  18  19
HETATM   19  C   UNL     1      43.373 -17.697   1.881  1.00  0.00    -0.040 A 
HETATM   20  C   UNL     1      44.541 -18.418   2.155  1.00  0.00     0.011 A 
HETATM   21  C   UNL     1      44.539 -19.815   2.097  1.00  0.00     0.037 A 
HETATM   22  C   UNL     1      43.374 -20.515   1.776  1.00  0.00     0.068 A 
HETATM   23  C   UNL     1      42.210 -19.804   1.492  1.00  0.00     0.037 A 
HETATM   24  C   UNL     1      42.208 -18.406   1.549  1.00  0.00     0.011 A 
BRANCH  22  25
HETATM   25  O   UNL     1      43.507 -21.876   1.773  1.00  0.00    -0.356 OA
HETATM   26  C   UNL     1      44.498 -22.425   2.633  1.00  0.00     0.210 C 
ENDBRANCH  22  25
ENDBRANCH  18  19
ENDBRANCH  15  18
ENDBRANCH   1  14
BRANCH   1  27
HETATM   27  O   UNL     1      43.703 -14.270   5.655  1.00  0.00    -0.359 OA
HETATM   28  H   UNL     1      43.977 -13.847   4.819  1.00  0.00     0.213 HD
ENDBRANCH   1  27
BRANCH   2  29
HETATM   29  C   UNL     1      42.885 -16.716   6.791  1.00  0.00     0.042 A 
HETATM   30  C   UNL     1      43.049 -16.808   8.178  1.00  0.00     0.030 A 
HETATM   31  C   UNL     1      44.016 -17.652   8.732  1.00  0.00     0.002 A 
HETATM   32  C   UNL     1      44.842 -18.408   7.904  1.00  0.00     0.000 A 
HETATM   33  C   UNL     1      44.704 -18.317   6.522  1.00  0.00     0.002 A 
HETATM   34  C   UNL     1      43.735 -17.473   5.971  1.00  0.00     0.030 A 
ENDBRANCH   2  29
TORSDOF 6
ENDMDL
