MODEL 1
REMARK VINA RESULT:      -8.3      0.000      0.000
REMARK  5 active torsions:
REMARK  status: ('A' for Active; 'I' for Inactive)
REMARK    1  A    between atoms: C_2  and  O_3 
REMARK    2  A    between atoms: O_3  and  C_4 
REMARK    3  A    between atoms: C_7  and  C_8 
REMARK       I    between atoms: N_11  and  C_12 
REMARK    4  A    between atoms: C_12  and  C_13 
REMARK    5  A    between atoms: C_16  and  C_17 
ROOT
HETATM    1  C   UNL     1      41.863 -15.040   4.158  1.00  0.00    -0.049 C 
HETATM    2  C   UNL     1      40.460 -14.740   3.687  1.00  0.00     0.059 C 
HETATM    3  C   UNL     1      40.045 -13.297   3.967  1.00  0.00     0.131 C 
HETATM    4  N   UNL     1      40.389 -12.869   5.320  1.00  0.00    -0.344 N 
HETATM    5  C   UNL     1      39.578 -11.873   5.880  1.00  0.00     0.254 C 
HETATM    6  O   UNL     1      38.528 -11.481   5.377  1.00  0.00    -0.267 OA
HETATM    7  C   UNL     1      41.784 -13.042   5.716  1.00  0.00     0.154 C 
HETATM    8  C   UNL     1      42.427 -14.244   5.089  1.00  0.00     0.001 C 
ENDROOT
BRANCH   5   9
HETATM    9  C   UNL     1      40.026 -11.196   7.116  1.00  0.00     0.032 A 
HETATM   10  C   UNL     1      40.979 -10.180   7.005  1.00  0.00     0.018 A 
HETATM   11  C   UNL     1      41.450  -9.544   8.156  1.00  0.00     0.016 A 
HETATM   12  C   UNL     1      40.971  -9.912   9.423  1.00  0.00     0.014 A 
HETATM   13  C   UNL     1      39.982 -10.907   9.514  1.00  0.00     0.016 A 
HETATM   14  C   UNL     1      39.499 -11.540   8.363  1.00  0.00     0.018 A 
BRANCH  12  15
HETATM   15  C   UNL     1      41.504  -9.289  10.631  1.00  0.00     0.181 A 
HETATM   16  N   UNL     1      41.452  -7.971  10.884  1.00  0.00    -0.152 NA
HETATM   17  N   UNL     1      42.088  -7.885  12.060  1.00  0.00    -0.263 N 
HETATM   18  H   UNL     1      42.197  -6.978  12.500  1.00  0.00     0.190 HD
HETATM   19  C   UNL     1      42.519  -9.105  12.487  1.00  0.00     0.118 A 
HETATM   20  C   UNL     1      43.289  -9.305  13.732  1.00  0.00     0.093 C 
HETATM   21  N   UNL     1      42.155 -10.013  11.609  1.00  0.00    -0.212 NA
ENDBRANCH  12  15
ENDBRANCH   5   9
BRANCH   1  22
HETATM   22  C   UNL     1      42.565 -16.219   3.587  1.00  0.00    -0.030 A 
HETATM   23  C   UNL     1      43.304 -16.115   2.397  1.00  0.00     0.014 A 
HETATM   24  C   UNL     1      44.001 -17.211   1.867  1.00  0.00     0.037 A 
HETATM   25  C   UNL     1      43.973 -18.441   2.518  1.00  0.00     0.068 A 
HETATM   26  C   UNL     1      43.237 -18.565   3.695  1.00  0.00     0.037 A 
HETATM   27  C   UNL     1      42.552 -17.466   4.228  1.00  0.00     0.014 A 
BRANCH  25  28
HETATM   28  O   UNL     1      44.603 -19.584   2.112  1.00  0.00    -0.352 OA
BRANCH  28  29
HETATM   29  C   UNL     1      44.258 -20.789   2.792  1.00  0.00     0.171 C 
HETATM   30  C   UNL     1      43.908 -21.833   1.746  1.00  0.00     0.034 C 
ENDBRANCH  28  29
ENDBRANCH  25  28
ENDBRANCH   1  22
TORSDOF 5
ENDMDL
MODEL 2
REMARK VINA RESULT:      -8.2      7.177      9.861
REMARK  5 active torsions:
REMARK  status: ('A' for Active; 'I' for Inactive)
REMARK    1  A    between atoms: C_2  and  O_3 
REMARK    2  A    between atoms: O_3  and  C_4 
REMARK    3  A    between atoms: C_7  and  C_8 
REMARK       I    between atoms: N_11  and  C_12 
REMARK    4  A    between atoms: C_12  and  C_13 
REMARK    5  A    between atoms: C_16  and  C_17 
ROOT
HETATM    1  C   UNL     1      41.958 -17.070   1.990  1.00  0.00    -0.049 C 
HETATM    2  C   UNL     1      40.753 -16.555   2.741  1.00  0.00     0.059 C 
HETATM    3  C   UNL     1      39.703 -15.945   1.815  1.00  0.00     0.131 C 
HETATM    4  N   UNL     1      40.287 -15.051   0.820  1.00  0.00    -0.344 N 
HETATM    5  C   UNL     1      39.462 -14.022   0.350  1.00  0.00     0.254 C 
HETATM    6  O   UNL     1      38.372 -13.739   0.843  1.00  0.00    -0.267 OA
HETATM    7  C   UNL     1      41.365 -15.608   0.006  1.00  0.00     0.154 C 
HETATM    8  C   UNL     1      42.203 -16.607   0.748  1.00  0.00     0.001 C 
ENDROOT
BRANCH   5   9
HETATM    9  C   UNL     1      39.878 -13.259  -0.847  1.00  0.00     0.032 A 
HETATM   10  C   UNL     1      39.321 -13.610  -2.080  1.00  0.00     0.018 A 
HETATM   11  C   UNL     1      39.718 -12.934  -3.236  1.00  0.00     0.016 A 
HETATM   12  C   UNL     1      40.667 -11.901  -3.170  1.00  0.00     0.014 A 
HETATM   13  C   UNL     1      41.185 -11.533  -1.917  1.00  0.00     0.016 A 
HETATM   14  C   UNL     1      40.783 -12.200  -0.754  1.00  0.00     0.018 A 
BRANCH  12  15
HETATM   15  C   UNL     1      41.126 -11.233  -4.383  1.00  0.00     0.181 A 
HETATM   16  N   UNL     1      42.416 -11.125  -4.743  1.00  0.00    -0.152 NA
HETATM   17  N   UNL     1      42.335 -10.415  -5.875  1.00  0.00    -0.263 N 
HETATM   18  H   UNL     1      43.184 -10.181  -6.377  1.00  0.00     0.190 HD
HETATM   19  C   UNL     1      41.044 -10.094  -6.174  1.00  0.00     0.118 A 
HETATM   20  C   UNL     1      40.659  -9.278  -7.344  1.00  0.00     0.093 C 
HETATM   21  N   UNL     1      40.257 -10.607  -5.255  1.00  0.00    -0.212 NA
ENDBRANCH  12  15
ENDBRANCH   5   9
BRANCH   1  22
HETATM   22  C   UNL     1      42.841 -18.060   2.661  1.00  0.00    -0.030 A 
HETATM   23  C   UNL     1      43.534 -19.031   1.920  1.00  0.00     0.014 A 
HETATM   24  C   UNL     1      44.399 -19.947   2.538  1.00  0.00     0.037 A 
HETATM   25  C   UNL     1      44.589 -19.912   3.916  1.00  0.00     0.068 A 
HETATM   26  C   UNL     1      43.902 -18.961   4.668  1.00  0.00     0.037 A 
HETATM   27  C   UNL     1      43.049 -18.040   4.048  1.00  0.00     0.014 A 
BRANCH  25  28
HETATM   28  O   UNL     1      45.397 -20.742   4.641  1.00  0.00    -0.352 OA
BRANCH  28  29
HETATM   29  C   UNL     1      44.770 -21.830   5.315  1.00  0.00     0.171 C 
HETATM   30  C   UNL     1      44.657 -22.985   4.336  1.00  0.00     0.034 C 
ENDBRANCH  28  29
ENDBRANCH  25  28
ENDBRANCH   1  22
TORSDOF 5
ENDMDL
MODEL 3
REMARK VINA RESULT:      -8.1      3.984     11.203
REMARK  5 active torsions:
REMARK  status: ('A' for Active; 'I' for Inactive)
REMARK    1  A    between atoms: C_2  and  O_3 
REMARK    2  A    between atoms: O_3  and  C_4 
REMARK    3  A    between atoms: C_7  and  C_8 
REMARK       I    between atoms: N_11  and  C_12 
REMARK    4  A    between atoms: C_12  and  C_13 
REMARK    5  A    between atoms: C_16  and  C_17 
ROOT
HETATM    1  C   UNL     1      43.774 -10.416  10.900  1.00  0.00    -0.049 C 
HETATM    2  C   UNL     1      45.265 -10.644  10.827  1.00  0.00     0.059 C 
HETATM    3  C   UNL     1      45.728 -11.048   9.428  1.00  0.00     0.131 C 
HETATM    4  N   UNL     1      44.877 -12.073   8.833  1.00  0.00    -0.344 N 
HETATM    5  C   UNL     1      45.488 -12.920   7.899  1.00  0.00     0.254 C 
HETATM    6  O   UNL     1      46.699 -12.954   7.694  1.00  0.00    -0.267 OA
HETATM    7  C   UNL     1      43.446 -11.780   8.788  1.00  0.00     0.154 C 
HETATM    8  C   UNL     1      42.981 -10.957   9.953  1.00  0.00     0.001 C 
ENDROOT
BRANCH   5   9
HETATM    9  C   UNL     1      44.639 -13.788   7.055  1.00  0.00     0.032 A 
HETATM   10  C   UNL     1      44.285 -13.331   5.783  1.00  0.00     0.018 A 
HETATM   11  C   UNL     1      43.454 -14.110   4.974  1.00  0.00     0.016 A 
HETATM   12  C   UNL     1      42.976 -15.351   5.424  1.00  0.00     0.014 A 
HETATM   13  C   UNL     1      43.377 -15.815   6.689  1.00  0.00     0.016 A 
HETATM   14  C   UNL     1      44.216 -15.043   7.499  1.00  0.00     0.018 A 
BRANCH  12  15
HETATM   15  C   UNL     1      42.063 -16.140   4.603  1.00  0.00     0.181 A 
HETATM   16  N   UNL     1      41.097 -16.931   5.099  1.00  0.00    -0.152 NA
HETATM   17  N   UNL     1      40.568 -17.460   3.988  1.00  0.00    -0.263 N 
HETATM   18  H   UNL     1      39.797 -18.112   4.068  1.00  0.00     0.190 HD
HETATM   19  C   UNL     1      41.205 -17.014   2.868  1.00  0.00     0.118 A 
HETATM   20  C   UNL     1      40.861 -17.464   1.504  1.00  0.00     0.093 C 
HETATM   21  N   UNL     1      42.147 -16.170   3.226  1.00  0.00    -0.212 NA
ENDBRANCH  12  15
ENDBRANCH   5   9
BRANCH   1  22
HETATM   22  C   UNL     1      43.234  -9.615  12.029  1.00  0.00    -0.030 A 
HETATM   23  C   UNL     1      42.590  -8.387  11.803  1.00  0.00     0.014 A 
HETATM   24  C   UNL     1      42.044  -7.640  12.857  1.00  0.00     0.037 A 
HETATM   25  C   UNL     1      42.133  -8.104  14.166  1.00  0.00     0.068 A 
HETATM   26  C   UNL     1      42.777  -9.315  14.410  1.00  0.00     0.037 A 
HETATM   27  C   UNL     1      43.310 -10.066  13.355  1.00  0.00     0.014 A 
BRANCH  25  28
HETATM   28  O   UNL     1      41.648  -7.478  15.280  1.00  0.00    -0.352 OA
BRANCH  28  29
HETATM   29  C   UNL     1      40.600  -8.136  15.988  1.00  0.00     0.171 C 
HETATM   30  C   UNL     1      39.281  -7.529  15.544  1.00  0.00     0.034 C 
ENDBRANCH  28  29
ENDBRANCH  25  28
ENDBRANCH   1  22
TORSDOF 5
ENDMDL
MODEL 4
REMARK VINA RESULT:      -7.9      7.029     10.246
REMARK  5 active torsions:
REMARK  status: ('A' for Active; 'I' for Inactive)
REMARK    1  A    between atoms: C_2  and  O_3 
REMARK    2  A    between atoms: O_3  and  C_4 
REMARK    3  A    between atoms: C_7  and  C_8 
REMARK       I    between atoms: N_11  and  C_12 
REMARK    4  A    between atoms: C_12  and  C_13 
REMARK    5  A    between atoms: C_16  and  C_17 
ROOT
HETATM    1  C   UNL     1      42.790 -17.372   1.885  1.00  0.00    -0.049 C 
HETATM    2  C   UNL     1      43.506 -16.077   2.187  1.00  0.00     0.059 C 
HETATM    3  C   UNL     1      42.598 -14.858   2.036  1.00  0.00     0.131 C 
HETATM    4  N   UNL     1      41.806 -14.899   0.811  1.00  0.00    -0.344 N 
HETATM    5  C   UNL     1      41.431 -13.661   0.273  1.00  0.00     0.254 C 
HETATM    6  O   UNL     1      41.867 -12.583   0.668  1.00  0.00    -0.267 OA
HETATM    7  C   UNL     1      41.010 -16.106   0.598  1.00  0.00     0.154 C 
HETATM    8  C   UNL     1      41.659 -17.340   1.152  1.00  0.00     0.001 C 
ENDROOT
BRANCH   5   9
HETATM    9  C   UNL     1      40.405 -13.624  -0.792  1.00  0.00     0.032 A 
HETATM   10  C   UNL     1      39.070 -13.453  -0.417  1.00  0.00     0.018 A 
HETATM   11  C   UNL     1      38.072 -13.448  -1.395  1.00  0.00     0.016 A 
HETATM   12  C   UNL     1      38.398 -13.609  -2.750  1.00  0.00     0.014 A 
HETATM   13  C   UNL     1      39.750 -13.737  -3.114  1.00  0.00     0.016 A 
HETATM   14  C   UNL     1      40.754 -13.732  -2.140  1.00  0.00     0.018 A 
BRANCH  12  15
HETATM   15  C   UNL     1      37.352 -13.662  -3.767  1.00  0.00     0.181 A 
HETATM   16  N   UNL     1      37.038 -14.764  -4.467  1.00  0.00    -0.152 NA
HETATM   17  N   UNL     1      36.073 -14.315  -5.281  1.00  0.00    -0.263 N 
HETATM   18  H   UNL     1      35.640 -14.955  -5.937  1.00  0.00     0.190 HD
HETATM   19  C   UNL     1      35.831 -12.988  -5.087  1.00  0.00     0.118 A 
HETATM   20  C   UNL     1      34.848 -12.217  -5.875  1.00  0.00     0.093 C 
HETATM   21  N   UNL     1      36.617 -12.551  -4.128  1.00  0.00    -0.212 NA
ENDBRANCH  12  15
ENDBRANCH   5   9
BRANCH   1  22
HETATM   22  C   UNL     1      43.373 -18.640   2.396  1.00  0.00    -0.030 A 
HETATM   23  C   UNL     1      44.075 -18.676   3.613  1.00  0.00     0.014 A 
HETATM   24  C   UNL     1      44.598 -19.873   4.124  1.00  0.00     0.037 A 
HETATM   25  C   UNL     1      44.433 -21.065   3.425  1.00  0.00     0.068 A 
HETATM   26  C   UNL     1      43.748 -21.046   2.212  1.00  0.00     0.037 A 
HETATM   27  C   UNL     1      43.215 -19.853   1.710  1.00  0.00     0.014 A 
BRANCH  25  28
HETATM   28  O   UNL     1      44.890 -22.295   3.807  1.00  0.00    -0.352 OA
BRANCH  28  29
HETATM   29  C   UNL     1      45.371 -22.421   5.143  1.00  0.00     0.171 C 
HETATM   30  C   UNL     1      44.222 -22.107   6.085  1.00  0.00     0.034 C 
ENDBRANCH  28  29
ENDBRANCH  25  28
ENDBRANCH   1  22
TORSDOF 5
ENDMDL
MODEL 5
REMARK VINA RESULT:      -7.9      1.201      1.632
REMARK  5 active torsions:
REMARK  status: ('A' for Active; 'I' for Inactive)
REMARK    1  A    between atoms: C_2  and  O_3 
REMARK    2  A    between atoms: O_3  and  C_4 
REMARK    3  A    between atoms: C_7  and  C_8 
REMARK       I    between atoms: N_11  and  C_12 
REMARK    4  A    between atoms: C_12  and  C_13 
REMARK    5  A    between atoms: C_16  and  C_17 
ROOT
HETATM    1  C   UNL     1      42.207 -15.771   4.123  1.00  0.00    -0.049 C 
HETATM    2  C   UNL     1      40.931 -15.441   3.385  1.00  0.00     0.059 C 
HETATM    3  C   UNL     1      40.546 -13.968   3.511  1.00  0.00     0.131 C 
HETATM    4  N   UNL     1      40.657 -13.477   4.881  1.00  0.00    -0.344 N 
HETATM    5  C   UNL     1      39.810 -12.418   5.231  1.00  0.00     0.254 C 
HETATM    6  O   UNL     1      38.891 -12.013   4.522  1.00  0.00    -0.267 OA
HETATM    7  C   UNL     1      41.945 -13.684   5.538  1.00  0.00     0.154 C 
HETATM    8  C   UNL     1      42.629 -14.946   5.102  1.00  0.00     0.001 C 
ENDROOT
BRANCH   5   9
HETATM    9  C   UNL     1      40.057 -11.690   6.494  1.00  0.00     0.032 A 
HETATM   10  C   UNL     1      39.329 -12.065   7.626  1.00  0.00     0.018 A 
HETATM   11  C   UNL     1      39.512 -11.375   8.826  1.00  0.00     0.016 A 
HETATM   12  C   UNL     1      40.424 -10.311   8.908  1.00  0.00     0.014 A 
HETATM   13  C   UNL     1      41.179  -9.975   7.771  1.00  0.00     0.016 A 
HETATM   14  C   UNL     1      41.007 -10.669   6.569  1.00  0.00     0.018 A 
BRANCH  12  15
HETATM   15  C   UNL     1      40.575  -9.552  10.145  1.00  0.00     0.181 A 
HETATM   16  N   UNL     1      41.745  -9.072  10.597  1.00  0.00    -0.152 NA
HETATM   17  N   UNL     1      41.388  -8.500  11.754  1.00  0.00    -0.263 N 
HETATM   18  H   UNL     1      42.093  -8.044  12.322  1.00  0.00     0.190 HD
HETATM   19  C   UNL     1      40.054  -8.647  11.995  1.00  0.00     0.118 A 
HETATM   20  C   UNL     1      39.390  -8.154  13.218  1.00  0.00     0.093 C 
HETATM   21  N   UNL     1      39.513  -9.299  10.990  1.00  0.00    -0.212 NA
ENDBRANCH  12  15
ENDBRANCH   5   9
BRANCH   1  22
HETATM   22  C   UNL     1      42.940 -17.009   3.751  1.00  0.00    -0.030 A 
HETATM   23  C   UNL     1      43.389 -17.218   2.437  1.00  0.00     0.014 A 
HETATM   24  C   UNL     1      44.114 -18.365   2.082  1.00  0.00     0.037 A 
HETATM   25  C   UNL     1      44.406 -19.334   3.038  1.00  0.00     0.068 A 
HETATM   26  C   UNL     1      43.961 -19.147   4.345  1.00  0.00     0.037 A 
HETATM   27  C   UNL     1      43.248 -17.996   4.700  1.00  0.00     0.014 A 
BRANCH  25  28
HETATM   28  O   UNL     1      45.100 -20.492   2.827  1.00  0.00    -0.352 OA
BRANCH  28  29
HETATM   29  C   UNL     1      44.354 -21.707   2.855  1.00  0.00     0.171 C 
HETATM   30  C   UNL     1      43.831 -21.968   1.454  1.00  0.00     0.034 C 
ENDBRANCH  28  29
ENDBRANCH  25  28
ENDBRANCH   1  22
TORSDOF 5
ENDMDL
MODEL 6
REMARK VINA RESULT:      -7.7      6.999      9.769
REMARK  5 active torsions:
REMARK  status: ('A' for Active; 'I' for Inactive)
REMARK    1  A    between atoms: C_2  and  O_3 
REMARK    2  A    between atoms: O_3  and  C_4 
REMARK    3  A    between atoms: C_7  and  C_8 
REMARK       I    between atoms: N_11  and  C_12 
REMARK    4  A    between atoms: C_12  and  C_13 
REMARK    5  A    between atoms: C_16  and  C_17 
ROOT
HETATM    1  C   UNL     1      41.672 -16.930   2.041  1.00  0.00    -0.049 C 
HETATM    2  C   UNL     1      40.622 -16.327   2.945  1.00  0.00     0.059 C 
HETATM    3  C   UNL     1      39.445 -15.743   2.166  1.00  0.00     0.131 C 
HETATM    4  N   UNL     1      39.873 -14.935   1.028  1.00  0.00    -0.344 N 
HETATM    5  C   UNL     1      39.004 -13.911   0.632  1.00  0.00     0.254 C 
HETATM    6  O   UNL     1      38.019 -13.560   1.279  1.00  0.00    -0.267 OA
HETATM    7  C   UNL     1      40.786 -15.580   0.086  1.00  0.00     0.154 C 
HETATM    8  C   UNL     1      41.714 -16.557   0.747  1.00  0.00     0.001 C 
ENDROOT
BRANCH   5   9
HETATM    9  C   UNL     1      39.229 -13.242  -0.667  1.00  0.00     0.032 A 
HETATM   10  C   UNL     1      40.061 -12.119  -0.696  1.00  0.00     0.018 A 
HETATM   11  C   UNL     1      40.268 -11.442  -1.900  1.00  0.00     0.016 A 
HETATM   12  C   UNL     1      39.652 -11.882  -3.083  1.00  0.00     0.014 A 
HETATM   13  C   UNL     1      38.853 -13.037  -3.044  1.00  0.00     0.016 A 
HETATM   14  C   UNL     1      38.651 -13.725  -1.843  1.00  0.00     0.018 A 
BRANCH  12  15
HETATM   15  C   UNL     1      39.821 -11.142  -4.330  1.00  0.00     0.181 A 
HETATM   16  N   UNL     1      38.804 -10.742  -5.111  1.00  0.00    -0.152 NA
HETATM   17  N   UNL     1      39.446 -10.156  -6.130  1.00  0.00    -0.263 N 
HETATM   18  H   UNL     1      38.909  -9.751  -6.889  1.00  0.00     0.190 HD
HETATM   19  C   UNL     1      40.799 -10.218  -5.973  1.00  0.00     0.118 A 
HETATM   20  C   UNL     1      41.758  -9.691  -6.965  1.00  0.00     0.093 C 
HETATM   21  N   UNL     1      41.064 -10.827  -4.838  1.00  0.00    -0.212 NA
ENDBRANCH  12  15
ENDBRANCH   5   9
BRANCH   1  22
HETATM   22  C   UNL     1      42.632 -17.903   2.623  1.00  0.00    -0.030 A 
HETATM   23  C   UNL     1      43.335 -18.804   1.806  1.00  0.00     0.014 A 
HETATM   24  C   UNL     1      44.272 -19.702   2.339  1.00  0.00     0.037 A 
HETATM   25  C   UNL     1      44.526 -19.720   3.706  1.00  0.00     0.068 A 
HETATM   26  C   UNL     1      43.831 -18.840   4.533  1.00  0.00     0.037 A 
HETATM   27  C   UNL     1      42.906 -17.936   3.998  1.00  0.00     0.014 A 
BRANCH  25  28
HETATM   28  O   UNL     1      45.407 -20.541   4.353  1.00  0.00    -0.352 OA
BRANCH  28  29
HETATM   29  C   UNL     1      44.854 -21.565   5.176  1.00  0.00     0.171 C 
HETATM   30  C   UNL     1      44.614 -22.786   4.306  1.00  0.00     0.034 C 
ENDBRANCH  28  29
ENDBRANCH  25  28
ENDBRANCH   1  22
TORSDOF 5
ENDMDL
MODEL 7
REMARK VINA RESULT:      -7.6      4.093     10.798
REMARK  5 active torsions:
REMARK  status: ('A' for Active; 'I' for Inactive)
REMARK    1  A    between atoms: C_2  and  O_3 
REMARK    2  A    between atoms: O_3  and  C_4 
REMARK    3  A    between atoms: C_7  and  C_8 
REMARK       I    between atoms: N_11  and  C_12 
REMARK    4  A    between atoms: C_12  and  C_13 
REMARK    5  A    between atoms: C_16  and  C_17 
ROOT
HETATM    1  C   UNL     1      43.408 -11.133   9.824  1.00  0.00    -0.049 C 
HETATM    2  C   UNL     1      44.450 -12.214   9.990  1.00  0.00     0.059 C 
HETATM    3  C   UNL     1      44.973 -12.733   8.652  1.00  0.00     0.131 C 
HETATM    4  N   UNL     1      43.900 -12.995   7.697  1.00  0.00    -0.344 N 
HETATM    5  C   UNL     1      44.154 -13.983   6.736  1.00  0.00     0.254 C 
HETATM    6  O   UNL     1      45.128 -14.732   6.764  1.00  0.00    -0.267 OA
HETATM    7  C   UNL     1      42.976 -11.892   7.444  1.00  0.00     0.154 C 
HETATM    8  C   UNL     1      42.756 -11.026   8.649  1.00  0.00     0.001 C 
ENDROOT
BRANCH   5   9
HETATM    9  C   UNL     1      43.242 -14.107   5.578  1.00  0.00     0.032 A 
HETATM   10  C   UNL     1      42.023 -14.764   5.765  1.00  0.00     0.018 A 
HETATM   11  C   UNL     1      41.154 -14.930   4.684  1.00  0.00     0.016 A 
HETATM   12  C   UNL     1      41.491 -14.438   3.413  1.00  0.00     0.014 A 
HETATM   13  C   UNL     1      42.701 -13.742   3.253  1.00  0.00     0.016 A 
HETATM   14  C   UNL     1      43.571 -13.564   4.334  1.00  0.00     0.018 A 
BRANCH  12  15
HETATM   15  C   UNL     1      40.610 -14.660   2.271  1.00  0.00     0.181 A 
HETATM   16  N   UNL     1      40.831 -15.580   1.317  1.00  0.00    -0.152 NA
HETATM   17  N   UNL     1      39.799 -15.380   0.488  1.00  0.00    -0.263 N 
HETATM   18  H   UNL     1      39.710 -15.954  -0.343  1.00  0.00     0.190 HD
HETATM   19  C   UNL     1      38.997 -14.366   0.921  1.00  0.00     0.118 A 
HETATM   20  C   UNL     1      37.808 -13.897   0.180  1.00  0.00     0.093 C 
HETATM   21  N   UNL     1      39.480 -13.899   2.051  1.00  0.00    -0.212 NA
ENDBRANCH  12  15
ENDBRANCH   5   9
BRANCH   1  22
HETATM   22  C   UNL     1      43.129 -10.236  10.975  1.00  0.00    -0.030 A 
HETATM   23  C   UNL     1      42.101  -9.280  10.917  1.00  0.00     0.014 A 
HETATM   24  C   UNL     1      41.804  -8.454  12.011  1.00  0.00     0.037 A 
HETATM   25  C   UNL     1      42.533  -8.563  13.191  1.00  0.00     0.068 A 
HETATM   26  C   UNL     1      43.562  -9.499  13.264  1.00  0.00     0.037 A 
HETATM   27  C   UNL     1      43.849 -10.332  12.175  1.00  0.00     0.014 A 
BRANCH  25  28
HETATM   28  O   UNL     1      42.349  -7.823  14.325  1.00  0.00    -0.352 OA
BRANCH  28  29
HETATM   29  C   UNL     1      41.353  -8.275  15.240  1.00  0.00     0.171 C 
HETATM   30  C   UNL     1      42.053  -9.020  16.362  1.00  0.00     0.034 C 
ENDBRANCH  28  29
ENDBRANCH  25  28
ENDBRANCH   1  22
TORSDOF 5
ENDMDL
MODEL 8
REMARK VINA RESULT:      -7.5      6.559     10.189
REMARK  5 active torsions:
REMARK  status: ('A' for Active; 'I' for Inactive)
REMARK    1  A    between atoms: C_2  and  O_3 
REMARK    2  A    between atoms: O_3  and  C_4 
REMARK    3  A    between atoms: C_7  and  C_8 
REMARK       I    between atoms: N_11  and  C_12 
REMARK    4  A    between atoms: C_12  and  C_13 
REMARK    5  A    between atoms: C_16  and  C_17 
ROOT
HETATM    1  C   UNL     1      42.336 -16.083   2.571  1.00  0.00    -0.049 C 
HETATM    2  C   UNL     1      43.093 -14.778   2.506  1.00  0.00     0.059 C 
HETATM    3  C   UNL     1      42.206 -13.606   2.091  1.00  0.00     0.131 C 
HETATM    4  N   UNL     1      41.353 -13.927   0.951  1.00  0.00    -0.344 N 
HETATM    5  C   UNL     1      40.978 -12.853   0.134  1.00  0.00     0.254 C 
HETATM    6  O   UNL     1      41.456 -11.724   0.225  1.00  0.00    -0.267 OA
HETATM    7  C   UNL     1      40.522 -15.122   1.083  1.00  0.00     0.154 C 
HETATM    8  C   UNL     1      41.171 -16.199   1.902  1.00  0.00     0.001 C 
ENDROOT
BRANCH   5   9
HETATM    9  C   UNL     1      39.902 -13.050  -0.861  1.00  0.00     0.032 A 
HETATM   10  C   UNL     1      40.209 -13.738  -2.038  1.00  0.00     0.018 A 
HETATM   11  C   UNL     1      39.225 -13.911  -3.014  1.00  0.00     0.016 A 
HETATM   12  C   UNL     1      37.930 -13.405  -2.823  1.00  0.00     0.014 A 
HETATM   13  C   UNL     1      37.628 -12.753  -1.616  1.00  0.00     0.016 A 
HETATM   14  C   UNL     1      38.606 -12.585  -0.630  1.00  0.00     0.018 A 
BRANCH  12  15
HETATM   15  C   UNL     1      36.918 -13.535  -3.866  1.00  0.00     0.181 A 
HETATM   16  N   UNL     1      36.691 -14.663  -4.560  1.00  0.00    -0.152 NA
HETATM   17  N   UNL     1      35.723 -14.284  -5.405  1.00  0.00    -0.263 N 
HETATM   18  H   UNL     1      35.348 -14.956  -6.064  1.00  0.00     0.190 HD
HETATM   19  C   UNL     1      35.395 -12.972  -5.235  1.00  0.00     0.118 A 
HETATM   20  C   UNL     1      34.389 -12.272  -6.060  1.00  0.00     0.093 C 
HETATM   21  N   UNL     1      36.126 -12.476  -4.262  1.00  0.00    -0.212 NA
ENDBRANCH  12  15
ENDBRANCH   5   9
BRANCH   1  22
HETATM   22  C   UNL     1      42.917 -17.200   3.360  1.00  0.00    -0.030 A 
HETATM   23  C   UNL     1      42.891 -17.186   4.764  1.00  0.00     0.014 A 
HETATM   24  C   UNL     1      43.403 -18.251   5.519  1.00  0.00     0.037 A 
HETATM   25  C   UNL     1      43.956 -19.359   4.884  1.00  0.00     0.068 A 
HETATM   26  C   UNL     1      43.998 -19.387   3.491  1.00  0.00     0.037 A 
HETATM   27  C   UNL     1      43.476 -18.327   2.739  1.00  0.00     0.014 A 
BRANCH  25  28
HETATM   28  O   UNL     1      44.488 -20.459   5.496  1.00  0.00    -0.352 OA
BRANCH  28  29
HETATM   29  C   UNL     1      45.239 -21.355   4.679  1.00  0.00     0.171 C 
HETATM   30  C   UNL     1      44.599 -22.728   4.780  1.00  0.00     0.034 C 
ENDBRANCH  28  29
ENDBRANCH  25  28
ENDBRANCH   1  22
TORSDOF 5
ENDMDL
MODEL 9
REMARK VINA RESULT:      -7.4      1.471      2.072
REMARK  5 active torsions:
REMARK  status: ('A' for Active; 'I' for Inactive)
REMARK    1  A    between atoms: C_2  and  O_3 
REMARK    2  A    between atoms: O_3  and  C_4 
REMARK    3  A    between atoms: C_7  and  C_8 
REMARK       I    between atoms: N_11  and  C_12 
REMARK    4  A    between atoms: C_12  and  C_13 
REMARK    5  A    between atoms: C_16  and  C_17 
ROOT
HETATM    1  C   UNL     1      41.228 -13.653   4.528  1.00  0.00    -0.049 C 
HETATM    2  C   UNL     1      39.933 -12.950   4.199  1.00  0.00     0.059 C 
HETATM    3  C   UNL     1      39.836 -11.569   4.844  1.00  0.00     0.131 C 
HETATM    4  N   UNL     1      40.240 -11.578   6.247  1.00  0.00    -0.344 N 
HETATM    5  C   UNL     1      39.655 -10.604   7.067  1.00  0.00     0.254 C 
HETATM    6  O   UNL     1      38.724  -9.883   6.716  1.00  0.00    -0.267 OA
HETATM    7  C   UNL     1      41.557 -12.141   6.536  1.00  0.00     0.154 C 
HETATM    8  C   UNL     1      41.933 -13.256   5.605  1.00  0.00     0.001 C 
ENDROOT
BRANCH   5   9
HETATM    9  C   UNL     1      40.216 -10.372   8.415  1.00  0.00     0.032 A 
HETATM   10  C   UNL     1      41.092  -9.297   8.589  1.00  0.00     0.018 A 
HETATM   11  C   UNL     1      41.668  -9.070   9.842  1.00  0.00     0.016 A 
HETATM   12  C   UNL     1      41.371  -9.908  10.928  1.00  0.00     0.014 A 
HETATM   13  C   UNL     1      40.456 -10.958  10.746  1.00  0.00     0.016 A 
HETATM   14  C   UNL     1      39.868 -11.184   9.496  1.00  0.00     0.018 A 
BRANCH  12  15
HETATM   15  C   UNL     1      42.016  -9.707  12.222  1.00  0.00     0.181 A 
HETATM   16  N   UNL     1      43.345  -9.621  12.396  1.00  0.00    -0.152 NA
HETATM   17  N   UNL     1      43.447  -9.482  13.724  1.00  0.00    -0.263 N 
HETATM   18  H   UNL     1      44.365  -9.391  14.145  1.00  0.00     0.190 HD
HETATM   19  C   UNL     1      42.224  -9.501  14.325  1.00  0.00     0.118 A 
HETATM   20  C   UNL     1      42.035  -9.412  15.788  1.00  0.00     0.093 C 
HETATM   21  N   UNL     1      41.300  -9.632  13.399  1.00  0.00    -0.212 NA
ENDBRANCH  12  15
ENDBRANCH   5   9
BRANCH   1  22
HETATM   22  C   UNL     1      41.667 -14.773   3.655  1.00  0.00    -0.030 A 
HETATM   23  C   UNL     1      40.733 -15.637   3.059  1.00  0.00     0.014 A 
HETATM   24  C   UNL     1      41.133 -16.674   2.204  1.00  0.00     0.037 A 
HETATM   25  C   UNL     1      42.482 -16.874   1.927  1.00  0.00     0.068 A 
HETATM   26  C   UNL     1      43.423 -16.033   2.517  1.00  0.00     0.037 A 
HETATM   27  C   UNL     1      43.021 -14.990   3.361  1.00  0.00     0.014 A 
BRANCH  25  28
HETATM   28  O   UNL     1      43.006 -17.842   1.118  1.00  0.00    -0.352 OA
BRANCH  28  29
HETATM   29  C   UNL     1      43.980 -18.710   1.693  1.00  0.00     0.171 C 
HETATM   30  C   UNL     1      43.284 -20.001   2.084  1.00  0.00     0.034 C 
ENDBRANCH  28  29
ENDBRANCH  25  28
ENDBRANCH   1  22
TORSDOF 5
ENDMDL
MODEL 10
REMARK VINA RESULT:      -7.2      5.923      9.224
REMARK  5 active torsions:
REMARK  status: ('A' for Active; 'I' for Inactive)
REMARK    1  A    between atoms: C_2  and  O_3 
REMARK    2  A    between atoms: O_3  and  C_4 
REMARK    3  A    between atoms: C_7  and  C_8 
REMARK       I    between atoms: N_11  and  C_12 
REMARK    4  A    between atoms: C_12  and  C_13 
REMARK    5  A    between atoms: C_16  and  C_17 
ROOT
HETATM    1  C   UNL     1      41.678 -16.487   2.836  1.00  0.00    -0.049 C 
HETATM    2  C   UNL     1      41.280 -15.561   3.961  1.00  0.00     0.059 C 
HETATM    3  C   UNL     1      40.008 -14.775   3.650  1.00  0.00     0.131 C 
HETATM    4  N   UNL     1      40.015 -14.209   2.305  1.00  0.00    -0.344 N 
HETATM    5  C   UNL     1      39.265 -13.040   2.120  1.00  0.00     0.254 C 
HETATM    6  O   UNL     1      38.762 -12.397   3.038  1.00  0.00    -0.267 OA
HETATM    7  C   UNL     1      40.269 -15.144   1.212  1.00  0.00     0.154 C 
HETATM    8  C   UNL     1      41.199 -16.257   1.598  1.00  0.00     0.001 C 
ENDROOT
BRANCH   5   9
HETATM    9  C   UNL     1      38.997 -12.571   0.744  1.00  0.00     0.032 A 
HETATM   10  C   UNL     1      37.748 -12.849   0.182  1.00  0.00     0.018 A 
HETATM   11  C   UNL     1      37.474 -12.451  -1.129  1.00  0.00     0.016 A 
HETATM   12  C   UNL     1      38.440 -11.770  -1.886  1.00  0.00     0.014 A 
HETATM   13  C   UNL     1      39.676 -11.461  -1.291  1.00  0.00     0.016 A 
HETATM   14  C   UNL     1      39.952 -11.848   0.025  1.00  0.00     0.018 A 
BRANCH  12  15
HETATM   15  C   UNL     1      38.177 -11.404  -3.274  1.00  0.00     0.181 A 
HETATM   16  N   UNL     1      37.324 -12.061  -4.077  1.00  0.00    -0.152 NA
HETATM   17  N   UNL     1      37.453 -11.393  -5.231  1.00  0.00    -0.263 N 
HETATM   18  H   UNL     1      36.907 -11.681  -6.035  1.00  0.00     0.190 HD
HETATM   19  C   UNL     1      38.364 -10.384  -5.127  1.00  0.00     0.118 A 
HETATM   20  C   UNL     1      38.740  -9.510  -6.257  1.00  0.00     0.093 C 
HETATM   21  N   UNL     1      38.830 -10.361  -3.899  1.00  0.00    -0.212 NA
ENDBRANCH  12  15
ENDBRANCH   5   9
BRANCH   1  22
HETATM   22  C   UNL     1      42.601 -17.612   3.138  1.00  0.00    -0.030 A 
HETATM   23  C   UNL     1      43.076 -18.453   2.118  1.00  0.00     0.014 A 
HETATM   24  C   UNL     1      43.976 -19.495   2.385  1.00  0.00     0.037 A 
HETATM   25  C   UNL     1      44.423 -19.720   3.684  1.00  0.00     0.068 A 
HETATM   26  C   UNL     1      43.955 -18.901   4.709  1.00  0.00     0.037 A 
HETATM   27  C   UNL     1      43.066 -17.854   4.439  1.00  0.00     0.014 A 
BRANCH  25  28
HETATM   28  O   UNL     1      45.294 -20.696   4.080  1.00  0.00    -0.352 OA
BRANCH  28  29
HETATM   29  C   UNL     1      44.841 -21.599   5.086  1.00  0.00     0.171 C 
HETATM   30  C   UNL     1      44.473 -22.907   4.410  1.00  0.00     0.034 C 
ENDBRANCH  28  29
ENDBRANCH  25  28
ENDBRANCH   1  22
TORSDOF 5
ENDMDL
