MODEL 1
REMARK VINA RESULT:      -9.4      0.000      0.000
REMARK  5 active torsions:
REMARK  status: ('A' for Active; 'I' for Inactive)
REMARK    1  A    between atoms: C_4  and  C_5 
REMARK    2  A    between atoms: C_5  and  N_6 
REMARK    3  A    between atoms: C_15  and  C_16 
REMARK    4  A    between atoms: C_16  and  N_17 
REMARK    5  A    between atoms: C_20  and  C_21 
REMARK       I    between atoms: C_21  and  N_22 
ROOT
HETATM    1  N   UNL     1      41.617 -17.407   3.674  1.00  0.00    -0.061 N 
HETATM    2  H   UNL     1      41.264 -18.369   3.720  1.00  0.00     0.280 HD
HETATM    3  C   UNL     1      41.494 -16.887   5.090  1.00  0.00     0.276 C 
HETATM    4  C   UNL     1      42.109 -15.540   5.337  1.00  0.00     0.002 A 
HETATM    5  C   UNL     1      41.613 -14.415   4.677  1.00  0.00     0.076 A 
HETATM    6  O   UNL     1      40.556 -14.515   3.816  1.00  0.00    -0.349 OA
HETATM    7  C   UNL     1      40.919 -15.189   2.605  1.00  0.00     0.203 C 
HETATM    8  C   UNL     1      40.676 -16.700   2.707  1.00  0.00     0.262 C 
HETATM    9  C   UNL     1      43.162 -15.373   6.256  1.00  0.00     0.020 A 
HETATM   10  C   UNL     1      43.713 -14.102   6.515  1.00  0.00    -0.032 A 
HETATM   11  C   UNL     1      43.187 -12.994   5.831  1.00  0.00     0.011 A 
HETATM   12  C   UNL     1      42.129 -13.149   4.933  1.00  0.00     0.038 A 
ENDROOT
BRANCH  10  13
HETATM   13  C   UNL     1      44.883 -13.954   7.463  1.00  0.00     0.273 C 
BRANCH  13  14
HETATM   14  N   UNL     1      44.855 -12.738   8.356  1.00  0.00    -0.066 N 
HETATM   15  H   UNL     1      44.279 -12.025   7.867  1.00  0.00     0.280 HD
HETATM   16  C   UNL     1      44.152 -12.960   9.681  1.00  0.00     0.249 C 
HETATM   17  C   UNL     1      44.022 -11.639  10.445  1.00  0.00     0.103 C 
HETATM   18  C   UNL     1      45.391 -10.977  10.627  1.00  0.00     0.017 C 
HETATM   19  C   UNL     1      46.144 -10.836   9.304  1.00  0.00     0.029 C 
HETATM   20  C   UNL     1      46.232 -12.149   8.537  1.00  0.00     0.235 C 
BRANCH  17  21
HETATM   21  C   UNL     1      43.079 -10.720   9.689  1.00  0.00     0.221 C 
HETATM   22  N   UNL     1      42.520  -9.710  10.402  1.00  0.00    -0.370 N 
HETATM   23  H   UNL     1      42.643  -9.572  11.398  1.00  0.00     0.159 HD
HETATM   24  H   UNL     1      41.898  -9.062   9.928  1.00  0.00     0.159 HD
HETATM   25  O   UNL     1      42.901 -10.844   8.479  1.00  0.00    -0.273 OA
ENDBRANCH  17  21
ENDBRANCH  13  14
ENDBRANCH  10  13
BRANCH   1  26
HETATM   26  C   UNL     1      43.033 -17.534   3.139  1.00  0.00     0.274 C 
BRANCH  26  27
HETATM   27  C   UNL     1      43.648 -18.912   3.249  1.00  0.00    -0.026 A 
HETATM   28  C   UNL     1      43.497 -19.830   2.188  1.00  0.00     0.016 A 
HETATM   29  C   UNL     1      44.012 -21.129   2.267  1.00  0.00    -0.061 A 
HETATM   30  C   UNL     1      43.863 -22.088   1.119  1.00  0.00     0.048 C 
HETATM   31  C   UNL     1      44.737 -21.503   3.398  1.00  0.00     0.007 A 
HETATM   32  C   UNL     1      44.944 -20.594   4.434  1.00  0.00     0.008 A 
HETATM   33  C   UNL     1      44.421 -19.292   4.369  1.00  0.00    -0.054 A 
HETATM   34  C   UNL     1      44.738 -18.346   5.499  1.00  0.00     0.049 C 
ENDBRANCH  26  27
ENDBRANCH   1  26
TORSDOF 5
ENDMDL
MODEL 2
REMARK VINA RESULT:      -8.9      3.914      8.056
REMARK  5 active torsions:
REMARK  status: ('A' for Active; 'I' for Inactive)
REMARK    1  A    between atoms: C_4  and  C_5 
REMARK    2  A    between atoms: C_5  and  N_6 
REMARK    3  A    between atoms: C_15  and  C_16 
REMARK    4  A    between atoms: C_16  and  N_17 
REMARK    5  A    between atoms: C_20  and  C_21 
REMARK       I    between atoms: C_21  and  N_22 
ROOT
HETATM    1  N   UNL     1      41.889 -15.716   4.875  1.00  0.00    -0.061 N 
HETATM    2  H   UNL     1      42.631 -16.195   5.397  1.00  0.00     0.280 HD
HETATM    3  C   UNL     1      42.581 -14.541   4.217  1.00  0.00     0.276 C 
HETATM    4  C   UNL     1      41.745 -13.763   3.244  1.00  0.00     0.002 A 
HETATM    5  C   UNL     1      40.606 -13.090   3.685  1.00  0.00     0.076 A 
HETATM    6  O   UNL     1      40.244 -13.111   5.003  1.00  0.00    -0.349 OA
HETATM    7  C   UNL     1      39.759 -14.399   5.401  1.00  0.00     0.203 C 
HETATM    8  C   UNL     1      40.890 -15.284   5.940  1.00  0.00     0.262 C 
HETATM    9  C   UNL     1      42.104 -13.663   1.886  1.00  0.00     0.020 A 
HETATM   10  C   UNL     1      41.338 -12.901   0.981  1.00  0.00    -0.032 A 
HETATM   11  C   UNL     1      40.198 -12.238   1.463  1.00  0.00     0.011 A 
HETATM   12  C   UNL     1      39.847 -12.316   2.812  1.00  0.00     0.038 A 
ENDROOT
BRANCH  10  13
HETATM   13  C   UNL     1      41.710 -12.854  -0.485  1.00  0.00     0.273 C 
BRANCH  13  14
HETATM   14  N   UNL     1      40.862 -13.699  -1.405  1.00  0.00    -0.066 N 
HETATM   15  H   UNL     1      40.098 -14.095  -0.822  1.00  0.00     0.280 HD
HETATM   16  C   UNL     1      40.154 -12.911  -2.489  1.00  0.00     0.249 C 
HETATM   17  C   UNL     1      39.191 -13.816  -3.264  1.00  0.00     0.103 C 
HETATM   18  C   UNL     1      39.924 -15.036  -3.829  1.00  0.00     0.017 C 
HETATM   19  C   UNL     1      40.717 -15.781  -2.754  1.00  0.00     0.029 C 
HETATM   20  C   UNL     1      41.642 -14.862  -1.967  1.00  0.00     0.235 C 
BRANCH  17  21
HETATM   21  C   UNL     1      38.065 -14.247  -2.340  1.00  0.00     0.221 C 
HETATM   22  N   UNL     1      37.230 -15.206  -2.813  1.00  0.00    -0.370 N 
HETATM   23  H   UNL     1      37.275 -15.598  -3.746  1.00  0.00     0.159 HD
HETATM   24  H   UNL     1      36.475 -15.535  -2.219  1.00  0.00     0.159 HD
HETATM   25  O   UNL     1      37.971 -13.803  -1.198  1.00  0.00    -0.273 OA
ENDBRANCH  17  21
ENDBRANCH  13  14
ENDBRANCH  10  13
BRANCH   1  26
HETATM   26  C   UNL     1      41.334 -16.767   3.929  1.00  0.00     0.274 C 
BRANCH  26  27
HETATM   27  C   UNL     1      42.344 -17.757   3.392  1.00  0.00    -0.026 A 
HETATM   28  C   UNL     1      43.086 -18.553   4.291  1.00  0.00     0.016 A 
HETATM   29  C   UNL     1      44.062 -19.449   3.838  1.00  0.00    -0.061 A 
HETATM   30  C   UNL     1      44.827 -20.308   4.806  1.00  0.00     0.048 C 
HETATM   31  C   UNL     1      44.263 -19.595   2.466  1.00  0.00     0.007 A 
HETATM   32  C   UNL     1      43.503 -18.858   1.560  1.00  0.00     0.008 A 
HETATM   33  C   UNL     1      42.531 -17.948   2.004  1.00  0.00    -0.054 A 
HETATM   34  C   UNL     1      41.706 -17.231   0.966  1.00  0.00     0.049 C 
ENDBRANCH  26  27
ENDBRANCH   1  26
TORSDOF 5
ENDMDL
MODEL 3
REMARK VINA RESULT:      -8.8      3.613      7.841
REMARK  5 active torsions:
REMARK  status: ('A' for Active; 'I' for Inactive)
REMARK    1  A    between atoms: C_4  and  C_5 
REMARK    2  A    between atoms: C_5  and  N_6 
REMARK    3  A    between atoms: C_15  and  C_16 
REMARK    4  A    between atoms: C_16  and  N_17 
REMARK    5  A    between atoms: C_20  and  C_21 
REMARK       I    between atoms: C_21  and  N_22 
ROOT
HETATM    1  N   UNL     1      43.616 -14.943   4.546  1.00  0.00    -0.061 N 
HETATM    2  H   UNL     1      44.573 -15.307   4.485  1.00  0.00     0.280 HD
HETATM    3  C   UNL     1      43.377 -14.273   3.209  1.00  0.00     0.276 C 
HETATM    4  C   UNL     1      41.973 -13.799   2.967  1.00  0.00     0.002 A 
HETATM    5  C   UNL     1      41.422 -12.808   3.779  1.00  0.00     0.076 A 
HETATM    6  O   UNL     1      42.149 -12.241   4.788  1.00  0.00    -0.349 OA
HETATM    7  C   UNL     1      42.356 -13.155   5.872  1.00  0.00     0.203 C 
HETATM    8  C   UNL     1      43.656 -13.950   5.699  1.00  0.00     0.262 C 
HETATM    9  C   UNL     1      41.201 -14.310   1.907  1.00  0.00     0.020 A 
HETATM   10  C   UNL     1      39.897 -13.838   1.658  1.00  0.00    -0.032 A 
HETATM   11  C   UNL     1      39.377 -12.840   2.497  1.00  0.00     0.011 A 
HETATM   12  C   UNL     1      40.144 -12.314   3.538  1.00  0.00     0.038 A 
ENDROOT
BRANCH  10  13
HETATM   13  C   UNL     1      39.064 -14.441   0.549  1.00  0.00     0.273 C 
BRANCH  13  14
HETATM   14  N   UNL     1      39.560 -14.193  -0.855  1.00  0.00    -0.066 N 
HETATM   15  H   UNL     1      40.071 -13.289  -0.832  1.00  0.00     0.280 HD
HETATM   16  C   UNL     1      40.582 -15.205  -1.336  1.00  0.00     0.249 C 
HETATM   17  C   UNL     1      41.152 -14.782  -2.694  1.00  0.00     0.103 C 
HETATM   18  C   UNL     1      40.031 -14.571  -3.715  1.00  0.00     0.017 C 
HETATM   19  C   UNL     1      38.948 -13.624  -3.196  1.00  0.00     0.029 C 
HETATM   20  C   UNL     1      38.418 -14.035  -1.828  1.00  0.00     0.235 C 
BRANCH  17  21
HETATM   21  C   UNL     1      41.962 -13.509  -2.517  1.00  0.00     0.221 C 
HETATM   22  N   UNL     1      42.451 -12.942  -3.648  1.00  0.00    -0.370 N 
HETATM   23  H   UNL     1      42.362 -13.341  -4.576  1.00  0.00     0.159 HD
HETATM   24  H   UNL     1      42.982 -12.080  -3.575  1.00  0.00     0.159 HD
HETATM   25  O   UNL     1      42.094 -12.986  -1.413  1.00  0.00    -0.273 OA
ENDBRANCH  17  21
ENDBRANCH  13  14
ENDBRANCH  10  13
BRANCH   1  26
HETATM   26  C   UNL     1      42.752 -16.158   4.836  1.00  0.00     0.274 C 
BRANCH  26  27
HETATM   27  C   UNL     1      43.407 -17.498   4.582  1.00  0.00    -0.026 A 
HETATM   28  C   UNL     1      43.163 -18.175   3.368  1.00  0.00     0.016 A 
HETATM   29  C   UNL     1      43.712 -19.437   3.112  1.00  0.00    -0.061 A 
HETATM   30  C   UNL     1      43.462 -20.135   1.805  1.00  0.00     0.048 C 
HETATM   31  C   UNL     1      44.563 -20.010   4.057  1.00  0.00     0.007 A 
HETATM   32  C   UNL     1      44.860 -19.334   5.239  1.00  0.00     0.008 A 
HETATM   33  C   UNL     1      44.304 -18.073   5.511  1.00  0.00    -0.054 A 
HETATM   34  C   UNL     1      44.719 -17.376   6.781  1.00  0.00     0.049 C 
ENDBRANCH  26  27
ENDBRANCH   1  26
TORSDOF 5
ENDMDL
MODEL 4
REMARK VINA RESULT:      -8.7      3.648      7.122
REMARK  5 active torsions:
REMARK  status: ('A' for Active; 'I' for Inactive)
REMARK    1  A    between atoms: C_4  and  C_5 
REMARK    2  A    between atoms: C_5  and  N_6 
REMARK    3  A    between atoms: C_15  and  C_16 
REMARK    4  A    between atoms: C_16  and  N_17 
REMARK    5  A    between atoms: C_20  and  C_21 
REMARK       I    between atoms: C_21  and  N_22 
ROOT
HETATM    1  N   UNL     1      42.979 -15.918   4.964  1.00  0.00    -0.061 N 
HETATM    2  H   UNL     1      43.855 -16.321   5.314  1.00  0.00     0.280 HD
HETATM    3  C   UNL     1      43.265 -14.438   4.829  1.00  0.00     0.276 C 
HETATM    4  C   UNL     1      42.187 -13.631   4.165  1.00  0.00     0.002 A 
HETATM    5  C   UNL     1      40.928 -13.529   4.757  1.00  0.00     0.076 A 
HETATM    6  O   UNL     1      40.661 -14.139   5.950  1.00  0.00    -0.349 OA
HETATM    7  C   UNL     1      40.591 -15.564   5.814  1.00  0.00     0.203 C 
HETATM    8  C   UNL     1      41.957 -16.220   6.052  1.00  0.00     0.262 C 
HETATM    9  C   UNL     1      42.428 -12.936   2.964  1.00  0.00     0.020 A 
HETATM   10  C   UNL     1      41.426 -12.148   2.362  1.00  0.00    -0.032 A 
HETATM   11  C   UNL     1      40.171 -12.071   2.988  1.00  0.00     0.011 A 
HETATM   12  C   UNL     1      39.932 -12.740   4.189  1.00  0.00     0.038 A 
ENDROOT
BRANCH  10  13
HETATM   13  C   UNL     1      41.688 -11.457   1.042  1.00  0.00     0.273 C 
BRANCH  13  14
HETATM   14  N   UNL     1      41.732 -12.354  -0.171  1.00  0.00    -0.066 N 
HETATM   15  H   UNL     1      42.146 -13.254   0.141  1.00  0.00     0.280 HD
HETATM   16  C   UNL     1      40.366 -12.725  -0.716  1.00  0.00     0.249 C 
HETATM   17  C   UNL     1      40.501 -13.765  -1.832  1.00  0.00     0.103 C 
HETATM   18  C   UNL     1      41.440 -13.264  -2.934  1.00  0.00     0.017 C 
HETATM   19  C   UNL     1      42.786 -12.800  -2.378  1.00  0.00     0.029 C 
HETATM   20  C   UNL     1      42.636 -11.795  -1.243  1.00  0.00     0.235 C 
BRANCH  17  21
HETATM   21  C   UNL     1      41.016 -15.065  -1.240  1.00  0.00     0.221 C 
HETATM   22  N   UNL     1      41.339 -16.044  -2.121  1.00  0.00    -0.370 N 
HETATM   23  H   UNL     1      41.202 -15.984  -3.123  1.00  0.00     0.159 HD
HETATM   24  H   UNL     1      41.704 -16.923  -1.766  1.00  0.00     0.159 HD
HETATM   25  O   UNL     1      41.203 -15.185  -0.031  1.00  0.00    -0.273 OA
ENDBRANCH  17  21
ENDBRANCH  13  14
ENDBRANCH  10  13
BRANCH   1  26
HETATM   26  C   UNL     1      42.700 -16.656   3.665  1.00  0.00     0.274 C 
BRANCH  26  27
HETATM   27  C   UNL     1      43.385 -17.996   3.518  1.00  0.00    -0.026 A 
HETATM   28  C   UNL     1      43.585 -18.806   4.656  1.00  0.00     0.016 A 
HETATM   29  C   UNL     1      44.255 -20.033   4.571  1.00  0.00    -0.061 A 
HETATM   30  C   UNL     1      44.439 -20.895   5.789  1.00  0.00     0.048 C 
HETATM   31  C   UNL     1      44.683 -20.486   3.324  1.00  0.00     0.007 A 
HETATM   32  C   UNL     1      44.447 -19.727   2.180  1.00  0.00     0.008 A 
HETATM   33  C   UNL     1      43.788 -18.490   2.256  1.00  0.00    -0.054 A 
HETATM   34  C   UNL     1      43.514 -17.753   0.969  1.00  0.00     0.049 C 
ENDBRANCH  26  27
ENDBRANCH   1  26
TORSDOF 5
ENDMDL
MODEL 5
REMARK VINA RESULT:      -8.7      3.743      8.102
REMARK  5 active torsions:
REMARK  status: ('A' for Active; 'I' for Inactive)
REMARK    1  A    between atoms: C_4  and  C_5 
REMARK    2  A    between atoms: C_5  and  N_6 
REMARK    3  A    between atoms: C_15  and  C_16 
REMARK    4  A    between atoms: C_16  and  N_17 
REMARK    5  A    between atoms: C_20  and  C_21 
REMARK       I    between atoms: C_21  and  N_22 
ROOT
HETATM    1  N   UNL     1      43.372 -15.550   4.073  1.00  0.00    -0.061 N 
HETATM    2  H   UNL     1      44.297 -15.954   3.891  1.00  0.00     0.280 HD
HETATM    3  C   UNL     1      43.141 -14.591   2.924  1.00  0.00     0.276 C 
HETATM    4  C   UNL     1      41.769 -13.985   2.856  1.00  0.00     0.002 A 
HETATM    5  C   UNL     1      41.319 -13.161   3.886  1.00  0.00     0.076 A 
HETATM    6  O   UNL     1      42.117 -12.876   4.958  1.00  0.00    -0.349 OA
HETATM    7  C   UNL     1      42.290 -14.015   5.810  1.00  0.00     0.203 C 
HETATM    8  C   UNL     1      43.521 -14.837   5.410  1.00  0.00     0.262 C 
HETATM    9  C   UNL     1      40.928 -14.202   1.747  1.00  0.00     0.020 A 
HETATM   10  C   UNL     1      39.655 -13.602   1.667  1.00  0.00    -0.032 A 
HETATM   11  C   UNL     1      39.237 -12.779   2.725  1.00  0.00     0.011 A 
HETATM   12  C   UNL     1      40.074 -12.544   3.817  1.00  0.00     0.038 A 
ENDROOT
BRANCH  10  13
HETATM   13  C   UNL     1      38.745 -13.895   0.495  1.00  0.00     0.273 C 
BRANCH  13  14
HETATM   14  N   UNL     1      39.355 -13.705  -0.873  1.00  0.00    -0.066 N 
HETATM   15  H   UNL     1      40.158 -14.360  -0.932  1.00  0.00     0.280 HD
HETATM   16  C   UNL     1      38.443 -14.105  -2.017  1.00  0.00     0.249 C 
HETATM   17  C   UNL     1      39.198 -14.041  -3.349  1.00  0.00     0.103 C 
HETATM   18  C   UNL     1      39.809 -12.653  -3.563  1.00  0.00     0.017 C 
HETATM   19  C   UNL     1      40.653 -12.204  -2.370  1.00  0.00     0.029 C 
HETATM   20  C   UNL     1      39.903 -12.310  -1.049  1.00  0.00     0.235 C 
BRANCH  17  21
HETATM   21  C   UNL     1      40.277 -15.110  -3.359  1.00  0.00     0.221 C 
HETATM   22  N   UNL     1      39.890 -16.363  -3.013  1.00  0.00    -0.370 N 
HETATM   23  H   UNL     1      38.960 -16.610  -2.695  1.00  0.00     0.159 HD
HETATM   24  H   UNL     1      40.578 -17.109  -3.025  1.00  0.00     0.159 HD
HETATM   25  O   UNL     1      41.419 -14.859  -3.740  1.00  0.00    -0.273 OA
ENDBRANCH  17  21
ENDBRANCH  13  14
ENDBRANCH  10  13
BRANCH   1  26
HETATM   26  C   UNL     1      42.430 -16.740   4.135  1.00  0.00     0.274 C 
BRANCH  26  27
HETATM   27  C   UNL     1      42.975 -18.032   3.566  1.00  0.00    -0.026 A 
HETATM   28  C   UNL     1      43.785 -18.862   4.371  1.00  0.00     0.016 A 
HETATM   29  C   UNL     1      44.346 -20.042   3.869  1.00  0.00    -0.061 A 
HETATM   30  C   UNL     1      45.186 -20.928   4.746  1.00  0.00     0.048 C 
HETATM   31  C   UNL     1      44.051 -20.431   2.563  1.00  0.00     0.007 A 
HETATM   32  C   UNL     1      43.210 -19.653   1.769  1.00  0.00     0.008 A 
HETATM   33  C   UNL     1      42.652 -18.461   2.259  1.00  0.00    -0.054 A 
HETATM   34  C   UNL     1      41.704 -17.705   1.364  1.00  0.00     0.049 C 
ENDBRANCH  26  27
ENDBRANCH   1  26
TORSDOF 5
ENDMDL
MODEL 6
REMARK VINA RESULT:      -8.6      3.908      7.366
REMARK  5 active torsions:
REMARK  status: ('A' for Active; 'I' for Inactive)
REMARK    1  A    between atoms: C_4  and  C_5 
REMARK    2  A    between atoms: C_5  and  N_6 
REMARK    3  A    between atoms: C_15  and  C_16 
REMARK    4  A    between atoms: C_16  and  N_17 
REMARK    5  A    between atoms: C_20  and  C_21 
REMARK       I    between atoms: C_21  and  N_22 
ROOT
HETATM    1  N   UNL     1      43.047 -16.087   4.570  1.00  0.00    -0.061 N 
HETATM    2  H   UNL     1      44.009 -16.402   4.739  1.00  0.00     0.280 HD
HETATM    3  C   UNL     1      43.188 -14.934   3.599  1.00  0.00     0.276 C 
HETATM    4  C   UNL     1      41.899 -14.394   3.050  1.00  0.00     0.002 A 
HETATM    5  C   UNL     1      40.966 -13.810   3.906  1.00  0.00     0.076 A 
HETATM    6  O   UNL     1      41.213 -13.701   5.246  1.00  0.00    -0.349 OA
HETATM    7  C   UNL     1      41.165 -14.975   5.900  1.00  0.00     0.203 C 
HETATM    8  C   UNL     1      42.546 -15.642   5.938  1.00  0.00     0.262 C 
HETATM    9  C   UNL     1      41.620 -14.430   1.670  1.00  0.00     0.020 A 
HETATM   10  C   UNL     1      40.426 -13.889   1.151  1.00  0.00    -0.032 A 
HETATM   11  C   UNL     1      39.512 -13.310   2.045  1.00  0.00     0.011 A 
HETATM   12  C   UNL     1      39.791 -13.252   3.412  1.00  0.00     0.038 A 
ENDROOT
BRANCH  10  13
HETATM   13  C   UNL     1      40.121 -13.990  -0.327  1.00  0.00     0.273 C 
BRANCH  13  14
HETATM   14  N   UNL     1      40.769 -12.946  -1.204  1.00  0.00    -0.066 N 
HETATM   15  H   UNL     1      40.972 -12.131  -0.593  1.00  0.00     0.280 HD
HETATM   16  C   UNL     1      42.117 -13.359  -1.762  1.00  0.00     0.249 C 
HETATM   17  C   UNL     1      42.774 -12.185  -2.494  1.00  0.00     0.103 C 
HETATM   18  C   UNL     1      41.848 -11.636  -3.584  1.00  0.00     0.017 C 
HETATM   19  C   UNL     1      40.456 -11.306  -3.045  1.00  0.00     0.029 C 
HETATM   20  C   UNL     1      39.831 -12.470  -2.287  1.00  0.00     0.235 C 
BRANCH  17  21
HETATM   21  C   UNL     1      43.118 -11.101  -1.487  1.00  0.00     0.221 C 
HETATM   22  N   UNL     1      43.492  -9.901  -1.996  1.00  0.00    -0.370 N 
HETATM   23  H   UNL     1      43.613  -9.707  -2.983  1.00  0.00     0.159 HD
HETATM   24  H   UNL     1      43.713  -9.144  -1.355  1.00  0.00     0.159 HD
HETATM   25  O   UNL     1      42.984 -11.287  -0.279  1.00  0.00    -0.273 OA
ENDBRANCH  17  21
ENDBRANCH  13  14
ENDBRANCH  10  13
BRANCH   1  26
HETATM   26  C   UNL     1      42.322 -17.310   4.039  1.00  0.00     0.274 C 
BRANCH  26  27
HETATM   27  C   UNL     1      43.207 -18.470   3.640  1.00  0.00    -0.026 A 
HETATM   28  C   UNL     1      43.594 -19.419   4.611  1.00  0.00     0.016 A 
HETATM   29  C   UNL     1      44.448 -20.481   4.294  1.00  0.00    -0.061 A 
HETATM   30  C   UNL     1      44.832 -21.497   5.334  1.00  0.00     0.048 C 
HETATM   31  C   UNL     1      44.880 -20.634   2.977  1.00  0.00     0.007 A 
HETATM   32  C   UNL     1      44.466 -19.739   1.992  1.00  0.00     0.008 A 
HETATM   33  C   UNL     1      43.620 -18.663   2.302  1.00  0.00    -0.054 A 
HETATM   34  C   UNL     1      43.165 -17.773   1.174  1.00  0.00     0.049 C 
ENDBRANCH  26  27
ENDBRANCH   1  26
TORSDOF 5
ENDMDL
MODEL 7
REMARK VINA RESULT:      -8.5      2.891      3.558
REMARK  5 active torsions:
REMARK  status: ('A' for Active; 'I' for Inactive)
REMARK    1  A    between atoms: C_4  and  C_5 
REMARK    2  A    between atoms: C_5  and  N_6 
REMARK    3  A    between atoms: C_15  and  C_16 
REMARK    4  A    between atoms: C_16  and  N_17 
REMARK    5  A    between atoms: C_20  and  C_21 
REMARK       I    between atoms: C_21  and  N_22 
ROOT
HETATM    1  N   UNL     1      41.514 -17.059   1.304  1.00  0.00    -0.061 N 
HETATM    2  H   UNL     1      41.386 -18.062   1.129  1.00  0.00     0.280 HD
HETATM    3  C   UNL     1      40.353 -16.675   2.196  1.00  0.00     0.276 C 
HETATM    4  C   UNL     1      40.397 -15.279   2.747  1.00  0.00     0.002 A 
HETATM    5  C   UNL     1      40.344 -14.186   1.882  1.00  0.00     0.076 A 
HETATM    6  O   UNL     1      40.231 -14.363   0.531  1.00  0.00    -0.349 OA
HETATM    7  C   UNL     1      41.439 -14.883  -0.039  1.00  0.00     0.203 C 
HETATM    8  C   UNL     1      41.432 -16.416  -0.073  1.00  0.00     0.262 C 
HETATM    9  C   UNL     1      40.456 -15.041   4.133  1.00  0.00     0.020 A 
HETATM   10  C   UNL     1      40.460 -13.730   4.651  1.00  0.00    -0.032 A 
HETATM   11  C   UNL     1      40.405 -12.656   3.748  1.00  0.00     0.011 A 
HETATM   12  C   UNL     1      40.326 -12.885   2.373  1.00  0.00     0.038 A 
ENDROOT
BRANCH  10  13
HETATM   13  C   UNL     1      40.582 -13.496   6.140  1.00  0.00     0.273 C 
BRANCH  13  14
HETATM   14  N   UNL     1      40.554 -12.054   6.583  1.00  0.00    -0.066 N 
HETATM   15  H   UNL     1      40.334 -11.490   5.739  1.00  0.00     0.280 HD
HETATM   16  C   UNL     1      39.443 -11.730   7.564  1.00  0.00     0.249 C 
HETATM   17  C   UNL     1      39.385 -10.222   7.826  1.00  0.00     0.103 C 
HETATM   18  C   UNL     1      40.742  -9.698   8.305  1.00  0.00     0.017 C 
HETATM   19  C   UNL     1      41.880 -10.103   7.367  1.00  0.00     0.029 C 
HETATM   20  C   UNL     1      41.902 -11.600   7.085  1.00  0.00     0.235 C 
BRANCH  17  21
HETATM   21  C   UNL     1      38.956  -9.514   6.553  1.00  0.00     0.221 C 
HETATM   22  N   UNL     1      38.986  -8.158   6.576  1.00  0.00    -0.370 N 
HETATM   23  H   UNL     1      39.213  -7.602   7.393  1.00  0.00     0.159 HD
HETATM   24  H   UNL     1      38.725  -7.647   5.739  1.00  0.00     0.159 HD
HETATM   25  O   UNL     1      38.676 -10.145   5.535  1.00  0.00    -0.273 OA
ENDBRANCH  17  21
ENDBRANCH  13  14
ENDBRANCH  10  13
BRANCH   1  26
HETATM   26  C   UNL     1      42.892 -16.945   1.933  1.00  0.00     0.274 C 
BRANCH  26  27
HETATM   27  C   UNL     1      43.410 -18.201   2.598  1.00  0.00    -0.026 A 
HETATM   28  C   UNL     1      43.597 -19.371   1.831  1.00  0.00     0.016 A 
HETATM   29  C   UNL     1      44.031 -20.566   2.416  1.00  0.00    -0.061 A 
HETATM   30  C   UNL     1      44.248 -21.797   1.581  1.00  0.00     0.048 C 
HETATM   31  C   UNL     1      44.338 -20.583   3.776  1.00  0.00     0.007 A 
HETATM   32  C   UNL     1      44.212 -19.425   4.541  1.00  0.00     0.008 A 
HETATM   33  C   UNL     1      43.765 -18.224   3.966  1.00  0.00    -0.054 A 
HETATM   34  C   UNL     1      43.713 -16.998   4.842  1.00  0.00     0.049 C 
ENDBRANCH  26  27
ENDBRANCH   1  26
TORSDOF 5
ENDMDL
MODEL 8
REMARK VINA RESULT:      -8.4      2.190      2.967
REMARK  5 active torsions:
REMARK  status: ('A' for Active; 'I' for Inactive)
REMARK    1  A    between atoms: C_4  and  C_5 
REMARK    2  A    between atoms: C_5  and  N_6 
REMARK    3  A    between atoms: C_15  and  C_16 
REMARK    4  A    between atoms: C_16  and  N_17 
REMARK    5  A    between atoms: C_20  and  C_21 
REMARK       I    between atoms: C_21  and  N_22 
ROOT
HETATM    1  N   UNL     1      41.701 -17.412   2.135  1.00  0.00    -0.061 N 
HETATM    2  H   UNL     1      41.396 -18.387   2.224  1.00  0.00     0.280 HD
HETATM    3  C   UNL     1      40.882 -16.661   3.163  1.00  0.00     0.276 C 
HETATM    4  C   UNL     1      41.259 -15.222   3.362  1.00  0.00     0.002 A 
HETATM    5  C   UNL     1      41.125 -14.314   2.311  1.00  0.00     0.076 A 
HETATM    6  O   UNL     1      40.635 -14.710   1.099  1.00  0.00    -0.349 OA
HETATM    7  C   UNL     1      41.566 -15.542   0.395  1.00  0.00     0.203 C 
HETATM    8  C   UNL     1      41.343 -17.027   0.706  1.00  0.00     0.262 C 
HETATM    9  C   UNL     1      41.716 -14.750   4.608  1.00  0.00     0.020 A 
HETATM   10  C   UNL     1      42.034 -13.391   4.803  1.00  0.00    -0.032 A 
HETATM   11  C   UNL     1      41.887 -12.509   3.721  1.00  0.00     0.011 A 
HETATM   12  C   UNL     1      41.415 -12.965   2.489  1.00  0.00     0.038 A 
ENDROOT
BRANCH  10  13
HETATM   13  C   UNL     1      42.579 -12.917   6.132  1.00  0.00     0.273 C 
BRANCH  13  14
HETATM   14  N   UNL     1      41.622 -12.122   6.988  1.00  0.00    -0.066 N 
HETATM   15  H   UNL     1      41.828 -12.375   7.974  1.00  0.00     0.280 HD
HETATM   16  C   UNL     1      41.834 -10.622   6.921  1.00  0.00     0.249 C 
HETATM   17  C   UNL     1      40.941  -9.911   7.942  1.00  0.00     0.103 C 
HETATM   18  C   UNL     1      39.471 -10.290   7.738  1.00  0.00     0.017 C 
HETATM   19  C   UNL     1      39.265 -11.805   7.710  1.00  0.00     0.029 C 
HETATM   20  C   UNL     1      40.187 -12.503   6.719  1.00  0.00     0.235 C 
BRANCH  17  21
HETATM   21  C   UNL     1      41.400 -10.276   9.342  1.00  0.00     0.221 C 
HETATM   22  N   UNL     1      40.635  -9.821  10.366  1.00  0.00    -0.370 N 
HETATM   23  H   UNL     1      39.829  -9.215  10.257  1.00  0.00     0.159 HD
HETATM   24  H   UNL     1      40.897 -10.059  11.318  1.00  0.00     0.159 HD
HETATM   25  O   UNL     1      42.367 -11.011   9.525  1.00  0.00    -0.273 OA
ENDBRANCH  17  21
ENDBRANCH  13  14
ENDBRANCH  10  13
BRANCH   1  26
HETATM   26  C   UNL     1      43.199 -17.445   2.385  1.00  0.00     0.274 C 
BRANCH  26  27
HETATM   27  C   UNL     1      43.733 -18.733   2.972  1.00  0.00    -0.026 A 
HETATM   28  C   UNL     1      43.922 -19.855   2.136  1.00  0.00     0.016 A 
HETATM   29  C   UNL     1      44.371 -21.078   2.646  1.00  0.00    -0.061 A 
HETATM   30  C   UNL     1      44.591 -22.257   1.739  1.00  0.00     0.048 C 
HETATM   31  C   UNL     1      44.689 -21.172   4.001  1.00  0.00     0.007 A 
HETATM   32  C   UNL     1      44.560 -20.061   4.833  1.00  0.00     0.008 A 
HETATM   33  C   UNL     1      44.099 -18.833   4.333  1.00  0.00    -0.054 A 
HETATM   34  C   UNL     1      44.044 -17.660   5.279  1.00  0.00     0.049 C 
ENDBRANCH  26  27
ENDBRANCH   1  26
TORSDOF 5
ENDMDL
MODEL 9
REMARK VINA RESULT:      -8.2      2.910      7.600
REMARK  5 active torsions:
REMARK  status: ('A' for Active; 'I' for Inactive)
REMARK    1  A    between atoms: C_4  and  C_5 
REMARK    2  A    between atoms: C_5  and  N_6 
REMARK    3  A    between atoms: C_15  and  C_16 
REMARK    4  A    between atoms: C_16  and  N_17 
REMARK    5  A    between atoms: C_20  and  C_21 
REMARK       I    between atoms: C_21  and  N_22 
ROOT
HETATM    1  N   UNL     1      43.415 -16.922   6.619  1.00  0.00    -0.061 N 
HETATM    2  H   UNL     1      43.033 -16.608   7.518  1.00  0.00     0.280 HD
HETATM    3  C   UNL     1      42.229 -17.514   5.887  1.00  0.00     0.276 C 
HETATM    4  C   UNL     1      42.481 -17.898   4.458  1.00  0.00     0.002 A 
HETATM    5  C   UNL     1      43.409 -18.895   4.157  1.00  0.00     0.076 A 
HETATM    6  O   UNL     1      44.086 -19.548   5.148  1.00  0.00    -0.349 OA
HETATM    7  C   UNL     1      45.053 -18.699   5.780  1.00  0.00     0.203 C 
HETATM    8  C   UNL     1      44.456 -17.968   6.990  1.00  0.00     0.262 C 
HETATM    9  C   UNL     1      41.770 -17.297   3.402  1.00  0.00     0.020 A 
HETATM   10  C   UNL     1      41.981 -17.685   2.063  1.00  0.00    -0.032 A 
HETATM   11  C   UNL     1      42.924 -18.691   1.801  1.00  0.00     0.011 A 
HETATM   12  C   UNL     1      43.618 -19.307   2.844  1.00  0.00     0.038 A 
ENDROOT
BRANCH  10  13
HETATM   13  C   UNL     1      41.248 -16.985   0.940  1.00  0.00     0.273 C 
BRANCH  13  14
HETATM   14  N   UNL     1      40.926 -15.529   1.173  1.00  0.00    -0.066 N 
HETATM   15  H   UNL     1      41.394 -15.261   2.061  1.00  0.00     0.280 HD
HETATM   16  C   UNL     1      41.510 -14.594   0.131  1.00  0.00     0.249 C 
HETATM   17  C   UNL     1      41.281 -13.134   0.536  1.00  0.00     0.103 C 
HETATM   18  C   UNL     1      39.793 -12.863   0.779  1.00  0.00     0.017 C 
HETATM   19  C   UNL     1      39.177 -13.863   1.758  1.00  0.00     0.029 C 
HETATM   20  C   UNL     1      39.446 -15.310   1.364  1.00  0.00     0.235 C 
BRANCH  17  21
HETATM   21  C   UNL     1      42.091 -12.832   1.784  1.00  0.00     0.221 C 
HETATM   22  N   UNL     1      41.842 -11.646   2.394  1.00  0.00    -0.370 N 
HETATM   23  H   UNL     1      41.206 -10.941   2.041  1.00  0.00     0.159 HD
HETATM   24  H   UNL     1      42.350 -11.415   3.242  1.00  0.00     0.159 HD
HETATM   25  O   UNL     1      42.871 -13.658   2.254  1.00  0.00    -0.273 OA
ENDBRANCH  17  21
ENDBRANCH  13  14
ENDBRANCH  10  13
BRANCH   1  26
HETATM   26  C   UNL     1      44.018 -15.676   5.994  1.00  0.00     0.274 C 
BRANCH  26  27
HETATM   27  C   UNL     1      43.225 -14.402   6.185  1.00  0.00    -0.026 A 
HETATM   28  C   UNL     1      41.949 -14.280   5.595  1.00  0.00     0.016 A 
HETATM   29  C   UNL     1      41.202 -13.101   5.709  1.00  0.00    -0.061 A 
HETATM   30  C   UNL     1      39.834 -12.995   5.095  1.00  0.00     0.048 C 
HETATM   31  C   UNL     1      41.709 -12.048   6.468  1.00  0.00     0.007 A 
HETATM   32  C   UNL     1      42.944 -12.168   7.104  1.00  0.00     0.008 A 
HETATM   33  C   UNL     1      43.706 -13.341   6.986  1.00  0.00    -0.054 A 
HETATM   34  C   UNL     1      45.003 -13.422   7.751  1.00  0.00     0.049 C 
ENDBRANCH  26  27
ENDBRANCH   1  26
TORSDOF 5
ENDMDL
MODEL 10
REMARK VINA RESULT:      -8.0      2.998     10.026
REMARK  5 active torsions:
REMARK  status: ('A' for Active; 'I' for Inactive)
REMARK    1  A    between atoms: C_4  and  C_5 
REMARK    2  A    between atoms: C_5  and  N_6 
REMARK    3  A    between atoms: C_15  and  C_16 
REMARK    4  A    between atoms: C_16  and  N_17 
REMARK    5  A    between atoms: C_20  and  C_21 
REMARK       I    between atoms: C_21  and  N_22 
ROOT
HETATM    1  N   UNL     1      41.032  -9.178   9.402  1.00  0.00    -0.061 N 
HETATM    2  H   UNL     1      41.535  -8.362   9.767  1.00  0.00     0.280 HD
HETATM    3  C   UNL     1      41.559  -9.353   7.993  1.00  0.00     0.276 C 
HETATM    4  C   UNL     1      41.106 -10.597   7.286  1.00  0.00     0.002 A 
HETATM    5  C   UNL     1      39.752 -10.788   7.009  1.00  0.00     0.076 A 
HETATM    6  O   UNL     1      38.824  -9.846   7.355  1.00  0.00    -0.349 OA
HETATM    7  C   UNL     1      38.629  -9.790   8.774  1.00  0.00     0.203 C 
HETATM    8  C   UNL     1      39.566  -8.769   9.432  1.00  0.00     0.262 C 
HETATM    9  C   UNL     1      42.026 -11.572   6.857  1.00  0.00     0.020 A 
HETATM   10  C   UNL     1      41.603 -12.721   6.160  1.00  0.00    -0.032 A 
HETATM   11  C   UNL     1      40.232 -12.878   5.900  1.00  0.00     0.011 A 
HETATM   12  C   UNL     1      39.316 -11.905   6.304  1.00  0.00     0.038 A 
ENDROOT
BRANCH  10  13
HETATM   13  C   UNL     1      42.603 -13.784   5.759  1.00  0.00     0.273 C 
BRANCH  13  14
HETATM   14  N   UNL     1      42.028 -15.005   5.083  1.00  0.00    -0.066 N 
HETATM   15  H   UNL     1      41.045 -14.773   4.840  1.00  0.00     0.280 HD
HETATM   16  C   UNL     1      42.685 -15.345   3.759  1.00  0.00     0.249 C 
HETATM   17  C   UNL     1      41.932 -16.486   3.067  1.00  0.00     0.103 C 
HETATM   18  C   UNL     1      41.830 -17.707   3.985  1.00  0.00     0.017 C 
HETATM   19  C   UNL     1      41.255 -17.351   5.357  1.00  0.00     0.029 C 
HETATM   20  C   UNL     1      41.988 -16.190   6.016  1.00  0.00     0.235 C 
BRANCH  17  21
HETATM   21  C   UNL     1      40.551 -15.998   2.667  1.00  0.00     0.221 C 
HETATM   22  N   UNL     1      39.757 -16.893   2.027  1.00  0.00    -0.370 N 
HETATM   23  H   UNL     1      40.046 -17.824   1.752  1.00  0.00     0.159 HD
HETATM   24  H   UNL     1      38.819 -16.612   1.760  1.00  0.00     0.159 HD
HETATM   25  O   UNL     1      40.154 -14.879   2.983  1.00  0.00    -0.273 OA
ENDBRANCH  17  21
ENDBRANCH  13  14
ENDBRANCH  10  13
BRANCH   1  26
HETATM   26  C   UNL     1      41.356 -10.303  10.370  1.00  0.00     0.274 C 
BRANCH  26  27
HETATM   27  C   UNL     1      41.902  -9.869  11.712  1.00  0.00    -0.026 A 
HETATM   28  C   UNL     1      41.020  -9.383  12.701  1.00  0.00     0.016 A 
HETATM   29  C   UNL     1      41.489  -8.929  13.939  1.00  0.00    -0.061 A 
HETATM   30  C   UNL     1      40.533  -8.437  14.990  1.00  0.00     0.048 C 
HETATM   31  C   UNL     1      42.852  -9.012  14.219  1.00  0.00     0.007 A 
HETATM   32  C   UNL     1      43.734  -9.539  13.278  1.00  0.00     0.008 A 
HETATM   33  C   UNL     1      43.276  -9.985  12.028  1.00  0.00    -0.054 A 
HETATM   34  C   UNL     1      44.278 -10.599  11.084  1.00  0.00     0.049 C 
ENDBRANCH  26  27
ENDBRANCH   1  26
TORSDOF 5
ENDMDL
