MODEL 1
REMARK VINA RESULT:      -9.3      0.000      0.000
REMARK  6 active torsions:
REMARK  status: ('A' for Active; 'I' for Inactive)
REMARK    1  A    between atoms: C_2  and  O_3 
REMARK    2  A    between atoms: O_3  and  C_4 
REMARK    3  A    between atoms: C_13  and  C_14 
REMARK       I    between atoms: C_14  and  N_15 
REMARK    4  A    between atoms: N_15  and  N_16 
REMARK       I    between atoms: N_16  and  C_17 
REMARK    5  A    between atoms: C_17  and  C_18 
REMARK    6  A    between atoms: C_18  and  C_19 
ROOT
HETATM    1  C   UNL     1      43.264 -19.317   1.984  1.00  0.00     0.069 A 
HETATM    2  C   UNL     1      42.521 -18.795   3.042  1.00  0.00     0.050 A 
HETATM    3  C   UNL     1      42.544 -17.420   3.334  1.00  0.00    -0.004 A 
HETATM    4  C   UNL     1      43.325 -16.542   2.559  1.00  0.00     0.068 A 
HETATM    5  N   UNL     1      43.390 -15.222   2.765  1.00  0.00    -0.240 NA
HETATM    6  C   UNL     1      42.646 -14.754   3.786  1.00  0.00     0.111 A 
HETATM    7  C   UNL     1      41.842 -15.500   4.636  1.00  0.00     0.028 A 
HETATM    8  C   UNL     1      41.793 -16.888   4.392  1.00  0.00     0.030 A 
HETATM    9  S   UNL     1      42.622 -13.093   4.149  1.00  0.00    -0.062 SA
HETATM   10  C   UNL     1      41.546 -13.316   5.468  1.00  0.00     0.103 A 
HETATM   11  C   UNL     1      41.216 -14.653   5.610  1.00  0.00     0.062 A 
HETATM   12  N   UNL     1      40.385 -15.117   6.570  1.00  0.00    -0.397 N 
HETATM   13  C   UNL     1      44.067 -17.085   1.521  1.00  0.00     0.035 A 
HETATM   14  C   UNL     1      44.047 -18.456   1.225  1.00  0.00     0.039 A 
HETATM   15  H   UNL     1      40.047 -14.496   7.310  1.00  0.00     0.156 HD
HETATM   16  H   UNL     1      40.267 -16.103   6.778  1.00  0.00     0.156 HD
ENDROOT
BRANCH  10  17
HETATM   17  C   UNL     1      41.108 -12.197   6.292  1.00  0.00     0.279 C 
HETATM   18  N   UNL     1      41.922 -11.860   7.361  1.00  0.00    -0.263 N 
HETATM   19  H   UNL     1      42.769 -12.375   7.594  1.00  0.00     0.190 HD
HETATM   20  O   UNL     1      40.071 -11.560   6.079  1.00  0.00    -0.265 OA
BRANCH  18  21
HETATM   21  N   UNL     1      41.503 -10.872   8.256  1.00  0.00    -0.267 N 
HETATM   22  C   UNL     1      42.425 -10.356   9.144  1.00  0.00     0.240 C 
HETATM   23  O   UNL     1      43.587 -10.756   9.203  1.00  0.00    -0.272 OA
HETATM   24  H   UNL     1      40.597 -10.441   8.078  1.00  0.00     0.190 HD
BRANCH  22  25
HETATM   25  C   UNL     1      41.866  -9.309  10.086  1.00  0.00     0.143 C 
BRANCH  25  26
HETATM   26  C   UNL     1      42.055  -9.643  11.544  1.00  0.00    -0.049 A 
HETATM   27  C   UNL     1      43.097  -9.064  12.282  1.00  0.00     0.007 A 
HETATM   28  C   UNL     1      43.252  -9.361  13.637  1.00  0.00     0.001 A 
HETATM   29  C   UNL     1      42.371 -10.236  14.267  1.00  0.00     0.000 A 
HETATM   30  C   UNL     1      41.332 -10.818  13.543  1.00  0.00     0.001 A 
HETATM   31  C   UNL     1      41.173 -10.524  12.188  1.00  0.00     0.007 A 
ENDBRANCH  25  26
ENDBRANCH  22  25
ENDBRANCH  18  21
ENDBRANCH  10  17
BRANCH   1  32
HETATM   32  O   UNL     1      43.139 -20.665   1.805  1.00  0.00    -0.351 OA
BRANCH  32  33
HETATM   33  C   UNL     1      44.343 -21.430   1.755  1.00  0.00     0.171 C 
HETATM   34  C   UNL     1      44.409 -22.280   3.011  1.00  0.00     0.034 C 
ENDBRANCH  32  33
ENDBRANCH   1  32
TORSDOF 6
ENDMDL
MODEL 2
REMARK VINA RESULT:      -8.5      2.285     11.091
REMARK  6 active torsions:
REMARK  status: ('A' for Active; 'I' for Inactive)
REMARK    1  A    between atoms: C_2  and  O_3 
REMARK    2  A    between atoms: O_3  and  C_4 
REMARK    3  A    between atoms: C_13  and  C_14 
REMARK       I    between atoms: C_14  and  N_15 
REMARK    4  A    between atoms: N_15  and  N_16 
REMARK       I    between atoms: N_16  and  C_17 
REMARK    5  A    between atoms: C_17  and  C_18 
REMARK    6  A    between atoms: C_18  and  C_19 
ROOT
HETATM    1  C   UNL     1      42.530  -9.256  11.748  1.00  0.00     0.069 A 
HETATM    2  C   UNL     1      42.064  -9.559  10.469  1.00  0.00     0.050 A 
HETATM    3  C   UNL     1      42.689 -10.546   9.685  1.00  0.00    -0.004 A 
HETATM    4  C   UNL     1      43.804 -11.247  10.182  1.00  0.00     0.068 A 
HETATM    5  N   UNL     1      44.444 -12.205   9.504  1.00  0.00    -0.240 NA
HETATM    6  C   UNL     1      43.955 -12.479   8.279  1.00  0.00     0.111 A 
HETATM    7  C   UNL     1      42.876 -11.865   7.661  1.00  0.00     0.028 A 
HETATM    8  C   UNL     1      42.221 -10.859   8.402  1.00  0.00     0.030 A 
HETATM    9  S   UNL     1      44.663 -13.689   7.315  1.00  0.00    -0.062 SA
HETATM   10  C   UNL     1      43.559 -13.420   6.028  1.00  0.00     0.103 A 
HETATM   11  C   UNL     1      42.662 -12.415   6.354  1.00  0.00     0.062 A 
HETATM   12  N   UNL     1      41.681 -11.996   5.524  1.00  0.00    -0.397 N 
HETATM   13  C   UNL     1      44.259 -10.918  11.450  1.00  0.00     0.035 A 
HETATM   14  C   UNL     1      43.639  -9.936  12.237  1.00  0.00     0.039 A 
HETATM   15  H   UNL     1      41.632 -12.339   4.561  1.00  0.00     0.156 HD
HETATM   16  H   UNL     1      41.129 -11.161   5.690  1.00  0.00     0.156 HD
ENDROOT
BRANCH  10  17
HETATM   17  C   UNL     1      43.640 -14.174   4.785  1.00  0.00     0.279 C 
HETATM   18  N   UNL     1      43.335 -15.523   4.860  1.00  0.00    -0.263 N 
HETATM   19  H   UNL     1      43.097 -15.989   5.734  1.00  0.00     0.190 HD
HETATM   20  O   UNL     1      43.960 -13.671   3.703  1.00  0.00    -0.265 OA
BRANCH  18  21
HETATM   21  N   UNL     1      43.503 -16.327   3.729  1.00  0.00    -0.267 N 
HETATM   22  C   UNL     1      42.617 -17.364   3.522  1.00  0.00     0.240 C 
HETATM   23  O   UNL     1      41.710 -17.631   4.310  1.00  0.00    -0.272 OA
HETATM   24  H   UNL     1      44.144 -15.990   3.013  1.00  0.00     0.190 HD
BRANCH  22  25
HETATM   25  C   UNL     1      42.899 -18.189   2.282  1.00  0.00     0.143 C 
BRANCH  25  26
HETATM   26  C   UNL     1      43.509 -19.536   2.577  1.00  0.00    -0.049 A 
HETATM   27  C   UNL     1      44.246 -19.747   3.750  1.00  0.00     0.007 A 
HETATM   28  C   UNL     1      44.790 -21.002   4.028  1.00  0.00     0.001 A 
HETATM   29  C   UNL     1      44.601 -22.058   3.138  1.00  0.00     0.000 A 
HETATM   30  C   UNL     1      43.870 -21.860   1.968  1.00  0.00     0.001 A 
HETATM   31  C   UNL     1      43.326 -20.605   1.687  1.00  0.00     0.007 A 
ENDBRANCH  25  26
ENDBRANCH  22  25
ENDBRANCH  18  21
ENDBRANCH  10  17
BRANCH   1  32
HETATM   32  O   UNL     1      41.822  -8.289  12.403  1.00  0.00    -0.351 OA
BRANCH  32  33
HETATM   33  C   UNL     1      40.433  -8.178  12.094  1.00  0.00     0.171 C 
HETATM   34  C   UNL     1      39.659  -8.212  13.398  1.00  0.00     0.034 C 
ENDBRANCH  32  33
ENDBRANCH   1  32
TORSDOF 6
ENDMDL
MODEL 3
REMARK VINA RESULT:      -8.4      6.952     11.043
REMARK  6 active torsions:
REMARK  status: ('A' for Active; 'I' for Inactive)
REMARK    1  A    between atoms: C_2  and  O_3 
REMARK    2  A    between atoms: O_3  and  C_4 
REMARK    3  A    between atoms: C_13  and  C_14 
REMARK       I    between atoms: C_14  and  N_15 
REMARK    4  A    between atoms: N_15  and  N_16 
REMARK       I    between atoms: N_16  and  C_17 
REMARK    5  A    between atoms: C_17  and  C_18 
REMARK    6  A    between atoms: C_18  and  C_19 
ROOT
HETATM    1  C   UNL     1      42.448  -8.821  -5.497  1.00  0.00     0.069 A 
HETATM    2  C   UNL     1      42.273 -10.196  -5.334  1.00  0.00     0.050 A 
HETATM    3  C   UNL     1      42.173 -10.767  -4.053  1.00  0.00    -0.004 A 
HETATM    4  C   UNL     1      42.250  -9.955  -2.905  1.00  0.00     0.068 A 
HETATM    5  N   UNL     1      42.152 -10.420  -1.656  1.00  0.00    -0.240 NA
HETATM    6  C   UNL     1      41.969 -11.750  -1.540  1.00  0.00     0.111 A 
HETATM    7  C   UNL     1      41.886 -12.667  -2.577  1.00  0.00     0.028 A 
HETATM    8  C   UNL     1      41.991 -12.146  -3.883  1.00  0.00     0.030 A 
HETATM    9  S   UNL     1      41.810 -12.472  -0.009  1.00  0.00    -0.062 SA
HETATM   10  C   UNL     1      41.641 -14.043  -0.680  1.00  0.00     0.103 A 
HETATM   11  C   UNL     1      41.702 -13.994  -2.063  1.00  0.00     0.062 A 
HETATM   12  N   UNL     1      41.597 -15.086  -2.852  1.00  0.00    -0.397 N 
HETATM   13  C   UNL     1      42.439  -8.593  -3.090  1.00  0.00     0.035 A 
HETATM   14  C   UNL     1      42.538  -8.018  -4.366  1.00  0.00     0.039 A 
HETATM   15  H   UNL     1      41.577 -16.024  -2.442  1.00  0.00     0.156 HD
HETATM   16  H   UNL     1      41.800 -15.079  -3.846  1.00  0.00     0.156 HD
ENDROOT
BRANCH  10  17
HETATM   17  C   UNL     1      41.482 -15.219   0.164  1.00  0.00     0.279 C 
HETATM   18  N   UNL     1      41.484 -15.003   1.532  1.00  0.00    -0.263 N 
HETATM   19  H   UNL     1      41.619 -14.083   1.946  1.00  0.00     0.190 HD
HETATM   20  O   UNL     1      41.351 -16.364  -0.281  1.00  0.00    -0.265 OA
BRANCH  18  21
HETATM   21  N   UNL     1      41.450 -16.099   2.399  1.00  0.00    -0.267 N 
HETATM   22  C   UNL     1      42.561 -16.359   3.174  1.00  0.00     0.240 C 
HETATM   23  O   UNL     1      43.591 -15.689   3.105  1.00  0.00    -0.272 OA
HETATM   24  H   UNL     1      40.542 -16.531   2.563  1.00  0.00     0.190 HD
BRANCH  22  25
HETATM   25  C   UNL     1      42.432 -17.580   4.061  1.00  0.00     0.143 C 
BRANCH  25  26
HETATM   26  C   UNL     1      43.196 -18.779   3.557  1.00  0.00    -0.049 A 
HETATM   27  C   UNL     1      44.139 -19.421   4.372  1.00  0.00     0.007 A 
HETATM   28  C   UNL     1      44.827 -20.544   3.907  1.00  0.00     0.001 A 
HETATM   29  C   UNL     1      44.579 -21.035   2.627  1.00  0.00     0.000 A 
HETATM   30  C   UNL     1      43.644 -20.404   1.808  1.00  0.00     0.001 A 
HETATM   31  C   UNL     1      42.956 -19.281   2.269  1.00  0.00     0.007 A 
ENDBRANCH  25  26
ENDBRANCH  22  25
ENDBRANCH  18  21
ENDBRANCH  10  17
BRANCH   1  32
HETATM   32  O   UNL     1      42.515  -8.401  -6.794  1.00  0.00    -0.351 OA
BRANCH  32  33
HETATM   33  C   UNL     1      43.352  -7.279  -7.072  1.00  0.00     0.171 C 
HETATM   34  C   UNL     1      44.640  -7.796  -7.686  1.00  0.00     0.034 C 
ENDBRANCH  32  33
ENDBRANCH   1  32
TORSDOF 6
ENDMDL
MODEL 4
REMARK VINA RESULT:      -8.2      6.858     10.658
REMARK  6 active torsions:
REMARK  status: ('A' for Active; 'I' for Inactive)
REMARK    1  A    between atoms: C_2  and  O_3 
REMARK    2  A    between atoms: O_3  and  C_4 
REMARK    3  A    between atoms: C_13  and  C_14 
REMARK       I    between atoms: C_14  and  N_15 
REMARK    4  A    between atoms: N_15  and  N_16 
REMARK       I    between atoms: N_16  and  C_17 
REMARK    5  A    between atoms: C_17  and  C_18 
REMARK    6  A    between atoms: C_18  and  C_19 
ROOT
HETATM    1  C   UNL     1      36.240 -11.037  -2.050  1.00  0.00     0.069 A 
HETATM    2  C   UNL     1      37.394 -11.798  -2.234  1.00  0.00     0.050 A 
HETATM    3  C   UNL     1      37.944 -12.548  -1.179  1.00  0.00    -0.004 A 
HETATM    4  C   UNL     1      37.335 -12.540   0.091  1.00  0.00     0.068 A 
HETATM    5  N   UNL     1      37.789 -13.234   1.139  1.00  0.00    -0.240 NA
HETATM    6  C   UNL     1      38.896 -13.969   0.917  1.00  0.00     0.111 A 
HETATM    7  C   UNL     1      39.604 -14.062  -0.272  1.00  0.00     0.028 A 
HETATM    8  C   UNL     1      39.099 -13.320  -1.360  1.00  0.00     0.030 A 
HETATM    9  S   UNL     1      39.571 -14.914   2.160  1.00  0.00    -0.062 SA
HETATM   10  C   UNL     1      40.846 -15.469   1.152  1.00  0.00     0.103 A 
HETATM   11  C   UNL     1      40.736 -14.930  -0.119  1.00  0.00     0.062 A 
HETATM   12  N   UNL     1      41.606 -15.197  -1.118  1.00  0.00    -0.397 N 
HETATM   13  C   UNL     1      36.196 -11.765   0.254  1.00  0.00     0.035 A 
HETATM   14  C   UNL     1      35.643 -11.017  -0.795  1.00  0.00     0.039 A 
HETATM   15  H   UNL     1      42.459 -15.733  -0.936  1.00  0.00     0.156 HD
HETATM   16  H   UNL     1      41.623 -14.685  -1.994  1.00  0.00     0.156 HD
ENDROOT
BRANCH  10  17
HETATM   17  C   UNL     1      41.878 -16.367   1.654  1.00  0.00     0.279 C 
HETATM   18  N   UNL     1      42.315 -16.144   2.949  1.00  0.00    -0.263 N 
HETATM   19  H   UNL     1      41.969 -15.378   3.525  1.00  0.00     0.190 HD
HETATM   20  O   UNL     1      42.361 -17.289   0.988  1.00  0.00    -0.265 OA
BRANCH  18  21
HETATM   21  N   UNL     1      43.381 -16.895   3.452  1.00  0.00    -0.267 N 
HETATM   22  C   UNL     1      43.108 -17.902   4.354  1.00  0.00     0.240 C 
HETATM   23  O   UNL     1      41.971 -18.141   4.760  1.00  0.00    -0.272 OA
HETATM   24  H   UNL     1      44.279 -16.795   2.981  1.00  0.00     0.190 HD
BRANCH  22  25
HETATM   25  C   UNL     1      44.333 -18.640   4.855  1.00  0.00     0.143 C 
BRANCH  25  26
HETATM   26  C   UNL     1      44.460 -20.042   4.313  1.00  0.00    -0.049 A 
HETATM   27  C   UNL     1      44.692 -21.124   5.173  1.00  0.00     0.007 A 
HETATM   28  C   UNL     1      44.786 -22.421   4.667  1.00  0.00     0.001 A 
HETATM   29  C   UNL     1      44.649 -22.650   3.299  1.00  0.00     0.000 A 
HETATM   30  C   UNL     1      44.418 -21.582   2.435  1.00  0.00     0.001 A 
HETATM   31  C   UNL     1      44.323 -20.283   2.938  1.00  0.00     0.007 A 
ENDBRANCH  25  26
ENDBRANCH  22  25
ENDBRANCH  18  21
ENDBRANCH  10  17
BRANCH   1  32
HETATM   32  O   UNL     1      35.808 -10.371  -3.161  1.00  0.00    -0.351 OA
BRANCH  32  33
HETATM   33  C   UNL     1      34.408 -10.115  -3.263  1.00  0.00     0.171 C 
HETATM   34  C   UNL     1      33.830 -11.074  -4.288  1.00  0.00     0.034 C 
ENDBRANCH  32  33
ENDBRANCH   1  32
TORSDOF 6
ENDMDL
MODEL 5
REMARK VINA RESULT:      -8.2      7.073     10.710
REMARK  6 active torsions:
REMARK  status: ('A' for Active; 'I' for Inactive)
REMARK    1  A    between atoms: C_2  and  O_3 
REMARK    2  A    between atoms: O_3  and  C_4 
REMARK    3  A    between atoms: C_13  and  C_14 
REMARK       I    between atoms: C_14  and  N_15 
REMARK    4  A    between atoms: N_15  and  N_16 
REMARK       I    between atoms: N_16  and  C_17 
REMARK    5  A    between atoms: C_17  and  C_18 
REMARK    6  A    between atoms: C_18  and  C_19 
ROOT
HETATM    1  C   UNL     1      43.998 -19.304   3.295  1.00  0.00     0.069 A 
HETATM    2  C   UNL     1      43.763 -18.692   2.064  1.00  0.00     0.050 A 
HETATM    3  C   UNL     1      42.746 -17.731   1.916  1.00  0.00    -0.004 A 
HETATM    4  C   UNL     1      41.941 -17.373   3.014  1.00  0.00     0.068 A 
HETATM    5  N   UNL     1      40.964 -16.463   2.957  1.00  0.00    -0.240 NA
HETATM    6  C   UNL     1      40.778 -15.882   1.755  1.00  0.00     0.111 A 
HETATM    7  C   UNL     1      41.484 -16.143   0.590  1.00  0.00     0.028 A 
HETATM    8  C   UNL     1      42.509 -17.107   0.684  1.00  0.00     0.030 A 
HETATM    9  S   UNL     1      39.580 -14.693   1.545  1.00  0.00    -0.062 SA
HETATM   10  C   UNL     1      39.954 -14.498  -0.119  1.00  0.00     0.103 A 
HETATM   11  C   UNL     1      40.991 -15.338  -0.490  1.00  0.00     0.062 A 
HETATM   12  N   UNL     1      41.491 -15.394  -1.744  1.00  0.00    -0.397 N 
HETATM   13  C   UNL     1      42.183 -18.006   4.224  1.00  0.00     0.035 A 
HETATM   14  C   UNL     1      43.197 -18.963   4.378  1.00  0.00     0.039 A 
HETATM   15  H   UNL     1      41.039 -14.884  -2.508  1.00  0.00     0.156 HD
HETATM   16  H   UNL     1      42.134 -16.114  -2.057  1.00  0.00     0.156 HD
ENDROOT
BRANCH  10  17
HETATM   17  C   UNL     1      39.214 -13.569  -0.963  1.00  0.00     0.279 C 
HETATM   18  N   UNL     1      38.296 -14.125  -1.838  1.00  0.00    -0.263 N 
HETATM   19  H   UNL     1      38.154 -15.130  -1.925  1.00  0.00     0.190 HD
HETATM   20  O   UNL     1      39.372 -12.344  -0.927  1.00  0.00    -0.265 OA
BRANCH  18  21
HETATM   21  N   UNL     1      37.636 -13.301  -2.753  1.00  0.00    -0.267 N 
HETATM   22  C   UNL     1      36.990 -13.889  -3.821  1.00  0.00     0.240 C 
HETATM   23  O   UNL     1      37.003 -15.104  -4.018  1.00  0.00    -0.272 OA
HETATM   24  H   UNL     1      37.495 -12.329  -2.482  1.00  0.00     0.190 HD
BRANCH  22  25
HETATM   25  C   UNL     1      36.326 -12.909  -4.767  1.00  0.00     0.143 C 
BRANCH  25  26
HETATM   26  C   UNL     1      35.031 -12.342  -4.241  1.00  0.00    -0.049 A 
HETATM   27  C   UNL     1      35.024 -11.181  -3.455  1.00  0.00     0.007 A 
HETATM   28  C   UNL     1      33.820 -10.650  -2.990  1.00  0.00     0.001 A 
HETATM   29  C   UNL     1      32.613 -11.272  -3.306  1.00  0.00     0.000 A 
HETATM   30  C   UNL     1      32.608 -12.427  -4.086  1.00  0.00     0.001 A 
HETATM   31  C   UNL     1      33.811 -12.961  -4.552  1.00  0.00     0.007 A 
ENDBRANCH  25  26
ENDBRANCH  22  25
ENDBRANCH  18  21
ENDBRANCH  10  17
BRANCH   1  32
HETATM   32  O   UNL     1      45.024 -20.206   3.300  1.00  0.00    -0.351 OA
BRANCH  32  33
HETATM   33  C   UNL     1      44.676 -21.587   3.390  1.00  0.00     0.171 C 
HETATM   34  C   UNL     1      44.349 -22.079   1.992  1.00  0.00     0.034 C 
ENDBRANCH  32  33
ENDBRANCH   1  32
TORSDOF 6
ENDMDL
MODEL 6
REMARK VINA RESULT:      -8.0      4.922      6.601
REMARK  6 active torsions:
REMARK  status: ('A' for Active; 'I' for Inactive)
REMARK    1  A    between atoms: C_2  and  O_3 
REMARK    2  A    between atoms: O_3  and  C_4 
REMARK    3  A    between atoms: C_13  and  C_14 
REMARK       I    between atoms: C_14  and  N_15 
REMARK    4  A    between atoms: N_15  and  N_16 
REMARK       I    between atoms: N_16  and  C_17 
REMARK    5  A    between atoms: C_17  and  C_18 
REMARK    6  A    between atoms: C_18  and  C_19 
ROOT
HETATM    1  C   UNL     1      43.986 -19.052   3.031  1.00  0.00     0.069 A 
HETATM    2  C   UNL     1      43.277 -18.341   4.000  1.00  0.00     0.050 A 
HETATM    3  C   UNL     1      42.559 -17.179   3.665  1.00  0.00    -0.004 A 
HETATM    4  C   UNL     1      42.547 -16.709   2.338  1.00  0.00     0.068 A 
HETATM    5  N   UNL     1      41.881 -15.621   1.939  1.00  0.00    -0.240 NA
HETATM    6  C   UNL     1      41.196 -14.971   2.899  1.00  0.00     0.111 A 
HETATM    7  C   UNL     1      41.127 -15.311   4.242  1.00  0.00     0.028 A 
HETATM    8  C   UNL     1      41.839 -16.465   4.632  1.00  0.00     0.030 A 
HETATM    9  S   UNL     1      40.290 -13.581   2.527  1.00  0.00    -0.062 SA
HETATM   10  C   UNL     1      39.786 -13.376   4.155  1.00  0.00     0.103 A 
HETATM   11  C   UNL     1      40.311 -14.374   4.959  1.00  0.00     0.062 A 
HETATM   12  N   UNL     1      40.078 -14.459   6.288  1.00  0.00    -0.397 N 
HETATM   13  C   UNL     1      43.272 -17.423   1.395  1.00  0.00     0.035 A 
HETATM   14  C   UNL     1      43.988 -18.583   1.723  1.00  0.00     0.039 A 
HETATM   15  H   UNL     1      39.582 -13.710   6.778  1.00  0.00     0.156 HD
HETATM   16  H   UNL     1      40.584 -15.087   6.904  1.00  0.00     0.156 HD
ENDROOT
BRANCH  10  17
HETATM   17  C   UNL     1      38.939 -12.261   4.556  1.00  0.00     0.279 C 
HETATM   18  N   UNL     1      38.372 -11.517   3.535  1.00  0.00    -0.263 N 
HETATM   19  H   UNL     1      38.551 -11.703   2.550  1.00  0.00     0.190 HD
HETATM   20  O   UNL     1      38.716 -11.965   5.735  1.00  0.00    -0.265 OA
BRANCH  18  21
HETATM   21  N   UNL     1      37.642 -10.367   3.849  1.00  0.00    -0.267 N 
HETATM   22  C   UNL     1      36.945  -9.735   2.840  1.00  0.00     0.240 C 
HETATM   23  O   UNL     1      36.969 -10.122   1.672  1.00  0.00    -0.272 OA
HETATM   24  H   UNL     1      37.500 -10.166   4.838  1.00  0.00     0.190 HD
BRANCH  22  25
HETATM   25  C   UNL     1      36.206  -8.486   3.279  1.00  0.00     0.143 C 
BRANCH  25  26
HETATM   26  C   UNL     1      34.798  -8.749   3.749  1.00  0.00    -0.049 A 
HETATM   27  C   UNL     1      34.418  -8.465   5.068  1.00  0.00     0.007 A 
HETATM   28  C   UNL     1      33.107  -8.690   5.490  1.00  0.00     0.001 A 
HETATM   29  C   UNL     1      32.163  -9.199   4.600  1.00  0.00     0.000 A 
HETATM   30  C   UNL     1      32.530  -9.486   3.286  1.00  0.00     0.001 A 
HETATM   31  C   UNL     1      33.840  -9.263   2.861  1.00  0.00     0.007 A 
ENDBRANCH  25  26
ENDBRANCH  22  25
ENDBRANCH  18  21
ENDBRANCH  10  17
BRANCH   1  32
HETATM   32  O   UNL     1      44.625 -20.167   3.491  1.00  0.00    -0.351 OA
BRANCH  32  33
HETATM   33  C   UNL     1      44.528 -20.443   4.889  1.00  0.00     0.171 C 
HETATM   34  C   UNL     1      44.927 -21.891   5.109  1.00  0.00     0.034 C 
ENDBRANCH  32  33
ENDBRANCH   1  32
TORSDOF 6
ENDMDL
MODEL 7
REMARK VINA RESULT:      -8.0      1.833      2.278
REMARK  6 active torsions:
REMARK  status: ('A' for Active; 'I' for Inactive)
REMARK    1  A    between atoms: C_2  and  O_3 
REMARK    2  A    between atoms: O_3  and  C_4 
REMARK    3  A    between atoms: C_13  and  C_14 
REMARK       I    between atoms: C_14  and  N_15 
REMARK    4  A    between atoms: N_15  and  N_16 
REMARK       I    between atoms: N_16  and  C_17 
REMARK    5  A    between atoms: C_17  and  C_18 
REMARK    6  A    between atoms: C_18  and  C_19 
ROOT
HETATM    1  C   UNL     1      44.116 -19.676   2.809  1.00  0.00     0.069 A 
HETATM    2  C   UNL     1      44.261 -18.695   3.790  1.00  0.00     0.050 A 
HETATM    3  C   UNL     1      43.440 -17.553   3.800  1.00  0.00    -0.004 A 
HETATM    4  C   UNL     1      42.452 -17.380   2.812  1.00  0.00     0.068 A 
HETATM    5  N   UNL     1      41.625 -16.331   2.760  1.00  0.00    -0.240 NA
HETATM    6  C   UNL     1      41.786 -15.413   3.734  1.00  0.00     0.111 A 
HETATM    7  C   UNL     1      42.720 -15.448   4.759  1.00  0.00     0.028 A 
HETATM    8  C   UNL     1      43.576 -16.568   4.787  1.00  0.00     0.030 A 
HETATM    9  S   UNL     1      40.790 -14.036   3.798  1.00  0.00    -0.062 SA
HETATM   10  C   UNL     1      41.585 -13.429   5.194  1.00  0.00     0.103 A 
HETATM   11  C   UNL     1      42.596 -14.288   5.593  1.00  0.00     0.062 A 
HETATM   12  N   UNL     1      43.387 -14.058   6.665  1.00  0.00    -0.397 N 
HETATM   13  C   UNL     1      42.335 -18.361   1.838  1.00  0.00     0.035 A 
HETATM   14  C   UNL     1      43.151 -19.502   1.824  1.00  0.00     0.039 A 
HETATM   15  H   UNL     1      43.337 -13.167   7.167  1.00  0.00     0.156 HD
HETATM   16  H   UNL     1      44.224 -14.595   6.867  1.00  0.00     0.156 HD
ENDROOT
BRANCH  10  17
HETATM   17  C   UNL     1      41.202 -12.161   5.798  1.00  0.00     0.279 C 
HETATM   18  N   UNL     1      41.089 -12.142   7.178  1.00  0.00    -0.263 N 
HETATM   19  H   UNL     1      41.232 -12.969   7.756  1.00  0.00     0.190 HD
HETATM   20  O   UNL     1      40.980 -11.135   5.145  1.00  0.00    -0.265 OA
BRANCH  18  21
HETATM   21  N   UNL     1      40.615 -10.991   7.812  1.00  0.00    -0.267 N 
HETATM   22  C   UNL     1      39.419 -11.061   8.496  1.00  0.00     0.240 C 
HETATM   23  O   UNL     1      38.737 -12.084   8.539  1.00  0.00    -0.272 OA
HETATM   24  H   UNL     1      41.268 -10.213   7.907  1.00  0.00     0.190 HD
BRANCH  22  25
HETATM   25  C   UNL     1      38.983  -9.754   9.127  1.00  0.00     0.143 C 
BRANCH  25  26
HETATM   26  C   UNL     1      39.844  -9.325  10.289  1.00  0.00    -0.049 A 
HETATM   27  C   UNL     1      39.921 -10.108  11.449  1.00  0.00     0.007 A 
HETATM   28  C   UNL     1      40.737  -9.716  12.512  1.00  0.00     0.001 A 
HETATM   29  C   UNL     1      41.483  -8.542  12.426  1.00  0.00     0.000 A 
HETATM   30  C   UNL     1      41.413  -7.756  11.277  1.00  0.00     0.001 A 
HETATM   31  C   UNL     1      40.598  -8.145  10.213  1.00  0.00     0.007 A 
ENDBRANCH  25  26
ENDBRANCH  22  25
ENDBRANCH  18  21
ENDBRANCH  10  17
BRANCH   1  32
HETATM   32  O   UNL     1      44.969 -20.736   2.927  1.00  0.00    -0.351 OA
BRANCH  32  33
HETATM   33  C   UNL     1      44.395 -22.041   2.880  1.00  0.00     0.171 C 
HETATM   34  C   UNL     1      44.624 -22.702   4.227  1.00  0.00     0.034 C 
ENDBRANCH  32  33
ENDBRANCH   1  32
TORSDOF 6
ENDMDL
MODEL 8
REMARK VINA RESULT:      -8.0      6.964      9.989
REMARK  6 active torsions:
REMARK  status: ('A' for Active; 'I' for Inactive)
REMARK    1  A    between atoms: C_2  and  O_3 
REMARK    2  A    between atoms: O_3  and  C_4 
REMARK    3  A    between atoms: C_13  and  C_14 
REMARK       I    between atoms: C_14  and  N_15 
REMARK    4  A    between atoms: N_15  and  N_16 
REMARK       I    between atoms: N_16  and  C_17 
REMARK    5  A    between atoms: C_17  and  C_18 
REMARK    6  A    between atoms: C_18  and  C_19 
ROOT
HETATM    1  C   UNL     1      43.957 -19.159   3.233  1.00  0.00     0.069 A 
HETATM    2  C   UNL     1      43.720 -18.527   2.013  1.00  0.00     0.050 A 
HETATM    3  C   UNL     1      42.687 -17.583   1.875  1.00  0.00    -0.004 A 
HETATM    4  C   UNL     1      41.867 -17.260   2.973  1.00  0.00     0.068 A 
HETATM    5  N   UNL     1      40.874 -16.367   2.926  1.00  0.00    -0.240 NA
HETATM    6  C   UNL     1      40.687 -15.766   1.734  1.00  0.00     0.111 A 
HETATM    7  C   UNL     1      41.406 -15.992   0.570  1.00  0.00     0.028 A 
HETATM    8  C   UNL     1      42.448 -16.939   0.653  1.00  0.00     0.030 A 
HETATM    9  S   UNL     1      39.469 -14.595   1.538  1.00  0.00    -0.062 SA
HETATM   10  C   UNL     1      39.852 -14.361  -0.119  1.00  0.00     0.103 A 
HETATM   11  C   UNL     1      40.907 -15.175  -0.498  1.00  0.00     0.062 A 
HETATM   12  N   UNL     1      41.418 -15.197  -1.749  1.00  0.00    -0.397 N 
HETATM   13  C   UNL     1      42.112 -17.913   4.173  1.00  0.00     0.035 A 
HETATM   14  C   UNL     1      43.142 -18.854   4.316  1.00  0.00     0.039 A 
HETATM   15  H   UNL     1      40.962 -14.681  -2.506  1.00  0.00     0.156 HD
HETATM   16  H   UNL     1      42.076 -15.899  -2.071  1.00  0.00     0.156 HD
ENDROOT
BRANCH  10  17
HETATM   17  C   UNL     1      39.102 -13.429  -0.951  1.00  0.00     0.279 C 
HETATM   18  N   UNL     1      38.741 -12.228  -0.362  1.00  0.00    -0.263 N 
HETATM   19  H   UNL     1      38.951 -12.003   0.609  1.00  0.00     0.190 HD
HETATM   20  O   UNL     1      38.786 -13.664  -2.122  1.00  0.00    -0.265 OA
BRANCH  18  21
HETATM   21  N   UNL     1      37.924 -11.339  -1.065  1.00  0.00    -0.267 N 
HETATM   22  C   UNL     1      36.617 -11.180  -0.653  1.00  0.00     0.240 C 
HETATM   23  O   UNL     1      36.134 -11.816   0.283  1.00  0.00    -0.272 OA
HETATM   24  H   UNL     1      38.384 -10.707  -1.718  1.00  0.00     0.190 HD
BRANCH  22  25
HETATM   25  C   UNL     1      35.810 -10.212  -1.494  1.00  0.00     0.143 C 
BRANCH  25  26
HETATM   26  C   UNL     1      34.678 -10.863  -2.249  1.00  0.00    -0.049 A 
HETATM   27  C   UNL     1      33.378 -10.868  -1.725  1.00  0.00     0.007 A 
HETATM   28  C   UNL     1      32.331 -11.454  -2.439  1.00  0.00     0.001 A 
HETATM   29  C   UNL     1      32.572 -12.038  -3.681  1.00  0.00     0.000 A 
HETATM   30  C   UNL     1      33.861 -12.039  -4.211  1.00  0.00     0.001 A 
HETATM   31  C   UNL     1      34.910 -11.455  -3.500  1.00  0.00     0.007 A 
ENDBRANCH  25  26
ENDBRANCH  22  25
ENDBRANCH  18  21
ENDBRANCH  10  17
BRANCH   1  32
HETATM   32  O   UNL     1      44.999 -20.042   3.229  1.00  0.00    -0.351 OA
BRANCH  32  33
HETATM   33  C   UNL     1      44.680 -21.427   3.358  1.00  0.00     0.171 C 
HETATM   34  C   UNL     1      44.342 -21.960   1.977  1.00  0.00     0.034 C 
ENDBRANCH  32  33
ENDBRANCH   1  32
TORSDOF 6
ENDMDL
MODEL 9
REMARK VINA RESULT:      -7.9      5.525      6.876
REMARK  6 active torsions:
REMARK  status: ('A' for Active; 'I' for Inactive)
REMARK    1  A    between atoms: C_2  and  O_3 
REMARK    2  A    between atoms: O_3  and  C_4 
REMARK    3  A    between atoms: C_13  and  C_14 
REMARK       I    between atoms: C_14  and  N_15 
REMARK    4  A    between atoms: N_15  and  N_16 
REMARK       I    between atoms: N_16  and  C_17 
REMARK    5  A    between atoms: C_17  and  C_18 
REMARK    6  A    between atoms: C_18  and  C_19 
ROOT
HETATM    1  C   UNL     1      43.580 -18.893   4.169  1.00  0.00     0.069 A 
HETATM    2  C   UNL     1      42.553 -18.411   3.357  1.00  0.00     0.050 A 
HETATM    3  C   UNL     1      42.054 -17.106   3.519  1.00  0.00    -0.004 A 
HETATM    4  C   UNL     1      42.584 -16.261   4.512  1.00  0.00     0.068 A 
HETATM    5  N   UNL     1      42.172 -15.006   4.721  1.00  0.00    -0.240 NA
HETATM    6  C   UNL     1      41.191 -14.571   3.907  1.00  0.00     0.111 A 
HETATM    7  C   UNL     1      40.570 -15.293   2.898  1.00  0.00     0.028 A 
HETATM    8  C   UNL     1      41.028 -16.613   2.702  1.00  0.00     0.030 A 
HETATM    9  S   UNL     1      40.585 -12.989   4.051  1.00  0.00    -0.062 SA
HETATM   10  C   UNL     1      39.457 -13.221   2.777  1.00  0.00     0.103 A 
HETATM   11  C   UNL     1      39.562 -14.500   2.256  1.00  0.00     0.062 A 
HETATM   12  N   UNL     1      38.794 -14.956   1.242  1.00  0.00    -0.397 N 
HETATM   13  C   UNL     1      43.594 -16.767   5.317  1.00  0.00     0.035 A 
HETATM   14  C   UNL     1      44.096 -18.067   5.159  1.00  0.00     0.039 A 
HETATM   15  H   UNL     1      38.015 -14.396   0.887  1.00  0.00     0.156 HD
HETATM   16  H   UNL     1      38.755 -15.932   0.967  1.00  0.00     0.156 HD
ENDROOT
BRANCH  10  17
HETATM   17  C   UNL     1      38.532 -12.169   2.377  1.00  0.00     0.279 C 
HETATM   18  N   UNL     1      38.164 -11.263   3.358  1.00  0.00    -0.263 N 
HETATM   19  H   UNL     1      38.486 -11.331   4.322  1.00  0.00     0.190 HD
HETATM   20  O   UNL     1      38.079 -12.059   1.233  1.00  0.00    -0.265 OA
BRANCH  18  21
HETATM   21  N   UNL     1      37.194 -10.299   3.072  1.00  0.00    -0.267 N 
HETATM   22  C   UNL     1      37.002  -9.272   3.973  1.00  0.00     0.240 C 
HETATM   23  O   UNL     1      37.622  -9.193   5.033  1.00  0.00    -0.272 OA
HETATM   24  H   UNL     1      36.818 -10.289   2.125  1.00  0.00     0.190 HD
BRANCH  22  25
HETATM   25  C   UNL     1      35.912  -8.294   3.582  1.00  0.00     0.143 C 
BRANCH  25  26
HETATM   26  C   UNL     1      34.518  -8.799   3.853  1.00  0.00    -0.049 A 
HETATM   27  C   UNL     1      33.724  -9.302   2.812  1.00  0.00     0.007 A 
HETATM   28  C   UNL     1      32.442  -9.789   3.074  1.00  0.00     0.001 A 
HETATM   29  C   UNL     1      31.942  -9.779   4.375  1.00  0.00     0.000 A 
HETATM   30  C   UNL     1      32.723  -9.281   5.417  1.00  0.00     0.001 A 
HETATM   31  C   UNL     1      34.004  -8.793   5.158  1.00  0.00     0.007 A 
ENDBRANCH  25  26
ENDBRANCH  22  25
ENDBRANCH  18  21
ENDBRANCH  10  17
BRANCH   1  32
HETATM   32  O   UNL     1      43.976 -20.171   3.893  1.00  0.00    -0.351 OA
BRANCH  32  33
HETATM   33  C   UNL     1      44.645 -20.391   2.651  1.00  0.00     0.171 C 
HETATM   34  C   UNL     1      44.346 -21.810   2.204  1.00  0.00     0.034 C 
ENDBRANCH  32  33
ENDBRANCH   1  32
TORSDOF 6
ENDMDL
MODEL 10
REMARK VINA RESULT:      -7.9      5.731      9.264
REMARK  6 active torsions:
REMARK  status: ('A' for Active; 'I' for Inactive)
REMARK    1  A    between atoms: C_2  and  O_3 
REMARK    2  A    between atoms: O_3  and  C_4 
REMARK    3  A    between atoms: C_13  and  C_14 
REMARK       I    between atoms: C_14  and  N_15 
REMARK    4  A    between atoms: N_15  and  N_16 
REMARK       I    between atoms: N_16  and  C_17 
REMARK    5  A    between atoms: C_17  and  C_18 
REMARK    6  A    between atoms: C_18  and  C_19 
ROOT
HETATM    1  C   UNL     1      44.036 -19.325   5.781  1.00  0.00     0.069 A 
HETATM    2  C   UNL     1      43.678 -18.922   4.495  1.00  0.00     0.050 A 
HETATM    3  C   UNL     1      43.368 -17.578   4.217  1.00  0.00    -0.004 A 
HETATM    4  C   UNL     1      43.413 -16.613   5.241  1.00  0.00     0.068 A 
HETATM    5  N   UNL     1      43.145 -15.316   5.055  1.00  0.00    -0.240 NA
HETATM    6  C   UNL     1      42.818 -14.963   3.796  1.00  0.00     0.111 A 
HETATM    7  C   UNL     1      42.723 -15.805   2.698  1.00  0.00     0.028 A 
HETATM    8  C   UNL     1      43.014 -17.166   2.926  1.00  0.00     0.030 A 
HETATM    9  S   UNL     1      42.469 -13.343   3.415  1.00  0.00    -0.062 SA
HETATM   10  C   UNL     1      42.163 -13.714   1.767  1.00  0.00     0.103 A 
HETATM   11  C   UNL     1      42.336 -15.068   1.529  1.00  0.00     0.062 A 
HETATM   12  N   UNL     1      42.160 -15.639   0.317  1.00  0.00    -0.397 N 
HETATM   13  C   UNL     1      43.758 -17.039   6.515  1.00  0.00     0.035 A 
HETATM   14  C   UNL     1      44.069 -18.378   6.797  1.00  0.00     0.039 A 
HETATM   15  H   UNL     1      41.779 -15.097  -0.463  1.00  0.00     0.156 HD
HETATM   16  H   UNL     1      42.129 -16.643   0.172  1.00  0.00     0.156 HD
ENDROOT
BRANCH  10  17
HETATM   17  C   UNL     1      41.756 -12.687   0.817  1.00  0.00     0.279 C 
HETATM   18  N   UNL     1      42.387 -11.459   0.927  1.00  0.00    -0.263 N 
HETATM   19  H   UNL     1      43.078 -11.254   1.647  1.00  0.00     0.190 HD
HETATM   20  O   UNL     1      40.898 -12.866  -0.053  1.00  0.00    -0.265 OA
BRANCH  18  21
HETATM   21  N   UNL     1      41.965 -10.397   0.123  1.00  0.00    -0.267 N 
HETATM   22  C   UNL     1      42.866  -9.843  -0.761  1.00  0.00     0.240 C 
HETATM   23  O   UNL     1      44.034 -10.220  -0.844  1.00  0.00    -0.272 OA
HETATM   24  H   UNL     1      40.963 -10.216   0.086  1.00  0.00     0.190 HD
BRANCH  22  25
HETATM   25  C   UNL     1      42.317  -8.684  -1.569  1.00  0.00     0.143 C 
BRANCH  25  26
HETATM   26  C   UNL     1      42.390  -8.896  -3.060  1.00  0.00    -0.049 A 
HETATM   27  C   UNL     1      42.327 -10.187  -3.603  1.00  0.00     0.007 A 
HETATM   28  C   UNL     1      42.372 -10.375  -4.985  1.00  0.00     0.001 A 
HETATM   29  C   UNL     1      42.480  -9.278  -5.838  1.00  0.00     0.000 A 
HETATM   30  C   UNL     1      42.544  -7.990  -5.309  1.00  0.00     0.001 A 
HETATM   31  C   UNL     1      42.499  -7.799  -3.927  1.00  0.00     0.007 A 
ENDBRANCH  25  26
ENDBRANCH  22  25
ENDBRANCH  18  21
ENDBRANCH  10  17
BRANCH   1  32
HETATM   32  O   UNL     1      44.324 -20.655   5.906  1.00  0.00    -0.351 OA
BRANCH  32  33
HETATM   33  C   UNL     1      45.048 -21.267   4.839  1.00  0.00     0.171 C 
HETATM   34  C   UNL     1      44.577 -22.704   4.718  1.00  0.00     0.034 C 
ENDBRANCH  32  33
ENDBRANCH   1  32
TORSDOF 6
ENDMDL
