MODEL 1
REMARK VINA RESULT:      -7.9      0.000      0.000
REMARK  8 active torsions:
REMARK  status: ('A' for Active; 'I' for Inactive)
REMARK    1  A    between atoms: C_2  and  C_3 
REMARK    2  A    between atoms: C_7  and  C_8 
REMARK       I    between atoms: C_8  and  N_9 
REMARK    3  A    between atoms: N_9  and  C_10 
REMARK    4  A    between atoms: C_10  and  C_11 
REMARK    5  A    between atoms: C_11  and  O_12 
REMARK    6  A    between atoms: C_11  and  C_13 
REMARK    7  A    between atoms: C_13  and  O_14 
REMARK    8  A    between atoms: O_14  and  C_15 
ROOT
HETATM    1  C   UNL     1      40.936 -15.964   0.768  1.00  0.00     0.269 C 
HETATM    2  N   UNL     1      39.851 -15.960   1.604  1.00  0.00    -0.353 N 
HETATM    3  O   UNL     1      41.076 -15.143  -0.134  1.00  0.00    -0.266 OA
HETATM    4  H   UNL     1      39.680 -16.748   2.214  1.00  0.00     0.162 HD
ENDROOT
BRANCH   1   5
HETATM    5  C   UNL     1      41.920 -16.974   1.054  1.00  0.00     0.120 A 
HETATM    6  N   UNL     1      43.185 -16.917   0.541  1.00  0.00    -0.272 N 
HETATM    7  N   UNL     1      44.011 -17.870   1.000  1.00  0.00    -0.174 NA
HETATM    8  H   UNL     1      43.550 -16.219  -0.100  1.00  0.00     0.189 HD
HETATM    9  C   UNL     1      43.255 -18.599   1.836  1.00  0.00     0.089 A 
HETATM   10  C   UNL     1      41.927 -18.088   1.872  1.00  0.00     0.071 A 
BRANCH   9  11
HETATM   11  C   UNL     1      43.810 -19.714   2.609  1.00  0.00    -0.005 A 
HETATM   12  C   UNL     1      44.242 -19.512   3.932  1.00  0.00     0.017 A 
HETATM   13  C   UNL     1      44.728 -20.577   4.695  1.00  0.00     0.043 A 
HETATM   14  C   UNL     1      44.792 -21.846   4.133  1.00  0.00     0.116 A 
HETATM   15  C   UNL     1      44.382 -22.070   2.824  1.00  0.00     0.043 A 
HETATM   16  F   UNL     1      45.251 -22.870   4.864  1.00  0.00    -0.206 F 
HETATM   17  C   UNL     1      43.891 -21.005   2.062  1.00  0.00     0.017 A 
ENDBRANCH   9  11
ENDBRANCH   1   5
BRANCH   2  18
HETATM   18  C   UNL     1      38.889 -14.877   1.664  1.00  0.00     0.156 C 
BRANCH  18  19
HETATM   19  C   UNL     1      39.299 -13.730   2.587  1.00  0.00     0.159 C 
BRANCH  19  20
HETATM   20  O   UNL     1      40.212 -12.852   1.910  1.00  0.00    -0.392 OA
HETATM   21  H   UNL     1      39.967 -11.956   2.220  1.00  0.00     0.210 HD
ENDBRANCH  19  20
BRANCH  19  22
HETATM   22  C   UNL     1      39.902 -14.194   3.918  1.00  0.00     0.201 C 
BRANCH  22  23
HETATM   23  O   UNL     1      41.329 -14.108   3.760  1.00  0.00    -0.383 OA
BRANCH  23  24
HETATM   24  C   UNL     1      42.044 -15.210   4.327  1.00  0.00     0.121 C 
HETATM   25  C   UNL     1      41.001 -16.154   4.935  1.00  0.00     0.032 C 
HETATM   26  C   UNL     1      41.651 -17.339   5.641  1.00  0.00     0.002 C 
HETATM   27  C   UNL     1      42.653 -16.877   6.694  1.00  0.00     0.000 C 
HETATM   28  C   UNL     1      43.691 -15.925   6.107  1.00  0.00     0.002 C 
HETATM   29  C   UNL     1      43.040 -14.744   5.391  1.00  0.00     0.032 C 
ENDBRANCH  23  24
ENDBRANCH  22  23
ENDBRANCH  19  22
ENDBRANCH  18  19
ENDBRANCH   2  18
TORSDOF 8
ENDMDL
MODEL 2
REMARK VINA RESULT:      -7.8      5.192      6.564
REMARK  8 active torsions:
REMARK  status: ('A' for Active; 'I' for Inactive)
REMARK    1  A    between atoms: C_2  and  C_3 
REMARK    2  A    between atoms: C_7  and  C_8 
REMARK       I    between atoms: C_8  and  N_9 
REMARK    3  A    between atoms: N_9  and  C_10 
REMARK    4  A    between atoms: C_10  and  C_11 
REMARK    5  A    between atoms: C_11  and  O_12 
REMARK    6  A    between atoms: C_11  and  C_13 
REMARK    7  A    between atoms: C_13  and  O_14 
REMARK    8  A    between atoms: O_14  and  C_15 
ROOT
HETATM    1  C   UNL     1      43.446 -14.839   6.479  1.00  0.00     0.269 C 
HETATM    2  N   UNL     1      44.326 -14.290   7.374  1.00  0.00    -0.353 N 
HETATM    3  O   UNL     1      42.434 -14.253   6.105  1.00  0.00    -0.266 OA
HETATM    4  H   UNL     1      45.046 -14.863   7.791  1.00  0.00     0.162 HD
ENDROOT
BRANCH   1   5
HETATM    5  C   UNL     1      43.820 -16.134   5.975  1.00  0.00     0.120 A 
HETATM    6  N   UNL     1      44.429 -17.069   6.764  1.00  0.00    -0.272 N 
HETATM    7  N   UNL     1      44.603 -18.262   6.174  1.00  0.00    -0.174 NA
HETATM    8  H   UNL     1      44.712 -16.955   7.732  1.00  0.00     0.189 HD
HETATM    9  C   UNL     1      44.106 -18.102   4.937  1.00  0.00     0.089 A 
HETATM   10  C   UNL     1      43.635 -16.771   4.763  1.00  0.00     0.071 A 
BRANCH   9  11
HETATM   11  C   UNL     1      44.042 -19.211   3.980  1.00  0.00    -0.005 A 
HETATM   12  C   UNL     1      43.310 -19.075   2.787  1.00  0.00     0.017 A 
HETATM   13  C   UNL     1      43.281 -20.107   1.846  1.00  0.00     0.043 A 
HETATM   14  C   UNL     1      43.977 -21.282   2.098  1.00  0.00     0.116 A 
HETATM   15  C   UNL     1      44.698 -21.446   3.275  1.00  0.00     0.043 A 
HETATM   16  F   UNL     1      43.957 -22.270   1.195  1.00  0.00    -0.206 F 
HETATM   17  C   UNL     1      44.731 -20.412   4.216  1.00  0.00     0.017 A 
ENDBRANCH   9  11
ENDBRANCH   1   5
BRANCH   2  18
HETATM   18  C   UNL     1      44.282 -12.903   7.791  1.00  0.00     0.156 C 
BRANCH  18  19
HETATM   19  C   UNL     1      44.884 -12.648   9.173  1.00  0.00     0.159 C 
BRANCH  19  20
HETATM   20  O   UNL     1      44.184 -13.414  10.166  1.00  0.00    -0.392 OA
HETATM   21  H   UNL     1      43.438 -12.842  10.438  1.00  0.00     0.210 HD
ENDBRANCH  19  20
BRANCH  19  22
HETATM   22  C   UNL     1      44.912 -11.169   9.571  1.00  0.00     0.201 C 
BRANCH  22  23
HETATM   23  O   UNL     1      43.572 -10.680   9.380  1.00  0.00    -0.383 OA
BRANCH  23  24
HETATM   24  C   UNL     1      42.960 -10.180  10.572  1.00  0.00     0.121 C 
HETATM   25  C   UNL     1      44.036 -10.184  11.663  1.00  0.00     0.032 C 
HETATM   26  C   UNL     1      43.480  -9.740  13.012  1.00  0.00     0.002 C 
HETATM   27  C   UNL     1      42.279 -10.586  13.424  1.00  0.00     0.000 C 
HETATM   28  C   UNL     1      41.203 -10.603  12.342  1.00  0.00     0.002 C 
HETATM   29  C   UNL     1      41.763 -11.038  10.989  1.00  0.00     0.032 C 
ENDBRANCH  23  24
ENDBRANCH  22  23
ENDBRANCH  19  22
ENDBRANCH  18  19
ENDBRANCH   2  18
TORSDOF 8
ENDMDL
MODEL 3
REMARK VINA RESULT:      -7.7      0.557      1.160
REMARK  8 active torsions:
REMARK  status: ('A' for Active; 'I' for Inactive)
REMARK    1  A    between atoms: C_2  and  C_3 
REMARK    2  A    between atoms: C_7  and  C_8 
REMARK       I    between atoms: C_8  and  N_9 
REMARK    3  A    between atoms: N_9  and  C_10 
REMARK    4  A    between atoms: C_10  and  C_11 
REMARK    5  A    between atoms: C_11  and  O_12 
REMARK    6  A    between atoms: C_11  and  C_13 
REMARK    7  A    between atoms: C_13  and  O_14 
REMARK    8  A    between atoms: O_14  and  C_15 
ROOT
HETATM    1  C   UNL     1      41.084 -15.820   1.085  1.00  0.00     0.269 C 
HETATM    2  N   UNL     1      40.017 -15.786   1.945  1.00  0.00    -0.353 N 
HETATM    3  O   UNL     1      41.265 -14.965   0.224  1.00  0.00    -0.266 OA
HETATM    4  H   UNL     1      39.803 -16.590   2.517  1.00  0.00     0.162 HD
ENDROOT
BRANCH   1   5
HETATM    5  C   UNL     1      42.000 -16.909   1.298  1.00  0.00     0.120 A 
HETATM    6  N   UNL     1      43.157 -17.032   0.581  1.00  0.00    -0.272 N 
HETATM    7  N   UNL     1      43.953 -18.034   0.985  1.00  0.00    -0.174 NA
HETATM    8  H   UNL     1      43.472 -16.429  -0.172  1.00  0.00     0.189 HD
HETATM    9  C   UNL     1      43.286 -18.609   1.998  1.00  0.00     0.089 A 
HETATM   10  C   UNL     1      42.041 -17.953   2.203  1.00  0.00     0.071 A 
BRANCH   9  11
HETATM   11  C   UNL     1      43.856 -19.718   2.769  1.00  0.00    -0.005 A 
HETATM   12  C   UNL     1      44.281 -19.514   4.093  1.00  0.00     0.017 A 
HETATM   13  C   UNL     1      44.781 -20.574   4.854  1.00  0.00     0.043 A 
HETATM   14  C   UNL     1      44.866 -21.840   4.290  1.00  0.00     0.116 A 
HETATM   15  C   UNL     1      44.463 -22.066   2.979  1.00  0.00     0.043 A 
HETATM   16  F   UNL     1      45.339 -22.859   5.018  1.00  0.00    -0.206 F 
HETATM   17  C   UNL     1      43.958 -21.007   2.218  1.00  0.00     0.017 A 
ENDBRANCH   9  11
ENDBRANCH   1   5
BRANCH   2  18
HETATM   18  C   UNL     1      39.135 -14.644   2.080  1.00  0.00     0.156 C 
BRANCH  18  19
HETATM   19  C   UNL     1      39.604 -13.611   3.105  1.00  0.00     0.159 C 
BRANCH  19  20
HETATM   20  O   UNL     1      40.720 -12.870   2.586  1.00  0.00    -0.392 OA
HETATM   21  H   UNL     1      40.597 -11.964   2.936  1.00  0.00     0.210 HD
ENDBRANCH  19  20
BRANCH  19  22
HETATM   22  C   UNL     1      39.959 -14.214   4.469  1.00  0.00     0.201 C 
BRANCH  22  23
HETATM   23  O   UNL     1      41.279 -14.769   4.328  1.00  0.00    -0.383 OA
BRANCH  23  24
HETATM   24  C   UNL     1      41.844 -15.244   5.553  1.00  0.00     0.121 C 
HETATM   25  C   UNL     1      43.338 -14.903   5.519  1.00  0.00     0.032 C 
HETATM   26  C   UNL     1      44.069 -15.431   6.748  1.00  0.00     0.002 C 
HETATM   27  C   UNL     1      43.853 -16.931   6.922  1.00  0.00     0.000 C 
HETATM   28  C   UNL     1      42.370 -17.289   6.945  1.00  0.00     0.002 C 
HETATM   29  C   UNL     1      41.636 -16.751   5.718  1.00  0.00     0.032 C 
ENDBRANCH  23  24
ENDBRANCH  22  23
ENDBRANCH  19  22
ENDBRANCH  18  19
ENDBRANCH   2  18
TORSDOF 8
ENDMDL
MODEL 4
REMARK VINA RESULT:      -7.7      1.187      1.933
REMARK  8 active torsions:
REMARK  status: ('A' for Active; 'I' for Inactive)
REMARK    1  A    between atoms: C_2  and  C_3 
REMARK    2  A    between atoms: C_7  and  C_8 
REMARK       I    between atoms: C_8  and  N_9 
REMARK    3  A    between atoms: N_9  and  C_10 
REMARK    4  A    between atoms: C_10  and  C_11 
REMARK    5  A    between atoms: C_11  and  O_12 
REMARK    6  A    between atoms: C_11  and  C_13 
REMARK    7  A    between atoms: C_13  and  O_14 
REMARK    8  A    between atoms: O_14  and  C_15 
ROOT
HETATM    1  C   UNL     1      41.683 -15.393   1.261  1.00  0.00     0.269 C 
HETATM    2  N   UNL     1      41.065 -14.867   2.364  1.00  0.00    -0.353 N 
HETATM    3  O   UNL     1      41.687 -14.825   0.173  1.00  0.00    -0.266 OA
HETATM    4  H   UNL     1      40.928 -15.437   3.187  1.00  0.00     0.162 HD
ENDROOT
BRANCH   1   5
HETATM    5  C   UNL     1      42.364 -16.641   1.484  1.00  0.00     0.120 A 
HETATM    6  N   UNL     1      43.264 -17.145   0.587  1.00  0.00    -0.272 N 
HETATM    7  N   UNL     1      43.895 -18.254   1.002  1.00  0.00    -0.174 NA
HETATM    8  H   UNL     1      43.515 -16.745  -0.312  1.00  0.00     0.189 HD
HETATM    9  C   UNL     1      43.377 -18.505   2.214  1.00  0.00     0.089 A 
HETATM   10  C   UNL     1      42.389 -17.534   2.538  1.00  0.00     0.071 A 
BRANCH   9  11
HETATM   11  C   UNL     1      43.858 -19.612   3.047  1.00  0.00    -0.005 A 
HETATM   12  C   UNL     1      44.074 -20.881   2.482  1.00  0.00     0.017 A 
HETATM   13  C   UNL     1      44.577 -21.930   3.256  1.00  0.00     0.043 A 
HETATM   14  C   UNL     1      44.857 -21.716   4.600  1.00  0.00     0.116 A 
HETATM   15  C   UNL     1      44.641 -20.474   5.185  1.00  0.00     0.043 A 
HETATM   16  F   UNL     1      45.345 -22.717   5.342  1.00  0.00    -0.206 F 
HETATM   17  C   UNL     1      44.142 -19.422   4.410  1.00  0.00     0.017 A 
ENDBRANCH   9  11
ENDBRANCH   1   5
BRANCH   2  18
HETATM   18  C   UNL     1      40.560 -13.510   2.427  1.00  0.00     0.156 C 
BRANCH  18  19
HETATM   19  C   UNL     1      41.608 -12.474   2.835  1.00  0.00     0.159 C 
BRANCH  19  20
HETATM   20  O   UNL     1      42.500 -12.214   1.739  1.00  0.00    -0.392 OA
HETATM   21  H   UNL     1      43.274 -12.787   1.912  1.00  0.00     0.210 HD
ENDBRANCH  19  20
BRANCH  19  22
HETATM   22  C   UNL     1      42.406 -12.861   4.084  1.00  0.00     0.201 C 
BRANCH  22  23
HETATM   23  O   UNL     1      41.525 -13.669   4.885  1.00  0.00    -0.383 OA
BRANCH  23  24
HETATM   24  C   UNL     1      42.188 -14.401   5.920  1.00  0.00     0.121 C 
HETATM   25  C   UNL     1      43.689 -14.133   5.767  1.00  0.00     0.032 C 
HETATM   26  C   UNL     1      44.513 -14.925   6.776  1.00  0.00     0.002 C 
HETATM   27  C   UNL     1      44.212 -16.418   6.691  1.00  0.00     0.000 C 
HETATM   28  C   UNL     1      42.718 -16.701   6.828  1.00  0.00     0.002 C 
HETATM   29  C   UNL     1      41.892 -15.900   5.824  1.00  0.00     0.032 C 
ENDBRANCH  23  24
ENDBRANCH  22  23
ENDBRANCH  19  22
ENDBRANCH  18  19
ENDBRANCH   2  18
TORSDOF 8
ENDMDL
MODEL 5
REMARK VINA RESULT:      -7.6      7.107     10.460
REMARK  8 active torsions:
REMARK  status: ('A' for Active; 'I' for Inactive)
REMARK    1  A    between atoms: C_2  and  C_3 
REMARK    2  A    between atoms: C_7  and  C_8 
REMARK       I    between atoms: C_8  and  N_9 
REMARK    3  A    between atoms: N_9  and  C_10 
REMARK    4  A    between atoms: C_10  and  C_11 
REMARK    5  A    between atoms: C_11  and  O_12 
REMARK    6  A    between atoms: C_11  and  C_13 
REMARK    7  A    between atoms: C_13  and  O_14 
REMARK    8  A    between atoms: O_14  and  C_15 
ROOT
HETATM    1  C   UNL     1      44.835 -13.130   8.253  1.00  0.00     0.269 C 
HETATM    2  N   UNL     1      44.094 -14.241   7.947  1.00  0.00    -0.353 N 
HETATM    3  O   UNL     1      45.941 -12.920   7.766  1.00  0.00    -0.266 OA
HETATM    4  H   UNL     1      43.276 -14.470   8.494  1.00  0.00     0.162 HD
ENDROOT
BRANCH   1   5
HETATM    5  C   UNL     1      44.198 -12.205   9.153  1.00  0.00     0.120 A 
HETATM    6  N   UNL     1      43.245 -11.322   8.728  1.00  0.00    -0.272 N 
HETATM    7  N   UNL     1      42.669 -10.615   9.714  1.00  0.00    -0.174 NA
HETATM    8  H   UNL     1      42.920 -11.191   7.776  1.00  0.00     0.189 HD
HETATM    9  C   UNL     1      43.281 -11.033  10.832  1.00  0.00     0.089 A 
HETATM   10  C   UNL     1      44.270 -12.007  10.519  1.00  0.00     0.071 A 
BRANCH   9  11
HETATM   11  C   UNL     1      42.887 -10.547  12.158  1.00  0.00    -0.005 A 
HETATM   12  C   UNL     1      41.727 -11.043  12.778  1.00  0.00     0.017 A 
HETATM   13  C   UNL     1      41.368 -10.622  14.061  1.00  0.00     0.043 A 
HETATM   14  C   UNL     1      42.163  -9.697  14.725  1.00  0.00     0.116 A 
HETATM   15  C   UNL     1      43.309  -9.182  14.130  1.00  0.00     0.043 A 
HETATM   16  F   UNL     1      41.825  -9.297  15.957  1.00  0.00    -0.206 F 
HETATM   17  C   UNL     1      43.672  -9.606  12.847  1.00  0.00     0.017 A 
ENDBRANCH   9  11
ENDBRANCH   1   5
BRANCH   2  18
HETATM   18  C   UNL     1      44.425 -15.152   6.869  1.00  0.00     0.156 C 
BRANCH  18  19
HETATM   19  C   UNL     1      43.640 -16.463   6.897  1.00  0.00     0.159 C 
BRANCH  19  20
HETATM   20  O   UNL     1      43.479 -16.915   8.251  1.00  0.00    -0.392 OA
HETATM   21  H   UNL     1      42.856 -17.667   8.187  1.00  0.00     0.210 HD
ENDBRANCH  19  20
BRANCH  19  22
HETATM   22  C   UNL     1      44.259 -17.572   6.040  1.00  0.00     0.201 C 
BRANCH  22  23
HETATM   23  O   UNL     1      43.387 -17.735   4.908  1.00  0.00    -0.383 OA
BRANCH  23  24
HETATM   24  C   UNL     1      43.956 -18.500   3.841  1.00  0.00     0.121 C 
HETATM   25  C   UNL     1      42.882 -18.620   2.755  1.00  0.00     0.032 C 
HETATM   26  C   UNL     1      43.349 -19.485   1.589  1.00  0.00     0.002 C 
HETATM   27  C   UNL     1      43.803 -20.861   2.064  1.00  0.00     0.000 C 
HETATM   28  C   UNL     1      44.864 -20.759   3.156  1.00  0.00     0.002 C 
HETATM   29  C   UNL     1      44.401 -19.884   4.320  1.00  0.00     0.032 C 
ENDBRANCH  23  24
ENDBRANCH  22  23
ENDBRANCH  19  22
ENDBRANCH  18  19
ENDBRANCH   2  18
TORSDOF 8
ENDMDL
MODEL 6
REMARK VINA RESULT:      -7.6      2.526      4.274
REMARK  8 active torsions:
REMARK  status: ('A' for Active; 'I' for Inactive)
REMARK    1  A    between atoms: C_2  and  C_3 
REMARK    2  A    between atoms: C_7  and  C_8 
REMARK       I    between atoms: C_8  and  N_9 
REMARK    3  A    between atoms: N_9  and  C_10 
REMARK    4  A    between atoms: C_10  and  C_11 
REMARK    5  A    between atoms: C_11  and  O_12 
REMARK    6  A    between atoms: C_11  and  C_13 
REMARK    7  A    between atoms: C_13  and  O_14 
REMARK    8  A    between atoms: O_14  and  C_15 
ROOT
HETATM    1  C   UNL     1      43.649 -15.110   6.359  1.00  0.00     0.269 C 
HETATM    2  N   UNL     1      42.865 -14.352   5.530  1.00  0.00    -0.353 N 
HETATM    3  O   UNL     1      43.983 -14.733   7.478  1.00  0.00    -0.266 OA
HETATM    4  H   UNL     1      42.757 -14.611   4.560  1.00  0.00     0.162 HD
ENDROOT
BRANCH   1   5
HETATM    5  C   UNL     1      44.013 -16.401   5.838  1.00  0.00     0.120 A 
HETATM    6  N   UNL     1      44.682 -17.324   6.592  1.00  0.00    -0.272 N 
HETATM    7  N   UNL     1      44.839 -18.516   5.995  1.00  0.00    -0.174 NA
HETATM    8  H   UNL     1      45.020 -17.203   7.541  1.00  0.00     0.189 HD
HETATM    9  C   UNL     1      44.267 -18.368   4.789  1.00  0.00     0.089 A 
HETATM   10  C   UNL     1      43.766 -17.045   4.640  1.00  0.00     0.071 A 
BRANCH   9  11
HETATM   11  C   UNL     1      44.164 -19.481   3.840  1.00  0.00    -0.005 A 
HETATM   12  C   UNL     1      43.547 -19.291   2.591  1.00  0.00     0.017 A 
HETATM   13  C   UNL     1      43.485 -20.331   1.660  1.00  0.00     0.043 A 
HETATM   14  C   UNL     1      44.032 -21.567   1.978  1.00  0.00     0.116 A 
HETATM   15  C   UNL     1      44.637 -21.784   3.210  1.00  0.00     0.043 A 
HETATM   16  F   UNL     1      43.981 -22.563   1.085  1.00  0.00    -0.206 F 
HETATM   17  C   UNL     1      44.704 -20.743   4.142  1.00  0.00     0.017 A 
ENDBRANCH   9  11
ENDBRANCH   1   5
BRANCH   2  18
HETATM   18  C   UNL     1      42.172 -13.153   5.960  1.00  0.00     0.156 C 
BRANCH  18  19
HETATM   19  C   UNL     1      40.660 -13.194   5.738  1.00  0.00     0.159 C 
BRANCH  19  20
HETATM   20  O   UNL     1      40.063 -14.195   6.579  1.00  0.00    -0.392 OA
HETATM   21  H   UNL     1      39.875 -13.730   7.419  1.00  0.00     0.210 HD
ENDBRANCH  19  20
BRANCH  19  22
HETATM   22  C   UNL     1      40.256 -13.423   4.278  1.00  0.00     0.201 C 
BRANCH  22  23
HETATM   23  O   UNL     1      40.237 -14.849   4.088  1.00  0.00    -0.383 OA
BRANCH  23  24
HETATM   24  C   UNL     1      40.375 -15.256   2.724  1.00  0.00     0.121 C 
HETATM   25  C   UNL     1      40.639 -16.766   2.732  1.00  0.00     0.032 C 
HETATM   26  C   UNL     1      40.881 -17.307   1.328  1.00  0.00     0.002 C 
HETATM   27  C   UNL     1      42.011 -16.558   0.629  1.00  0.00     0.000 C 
HETATM   28  C   UNL     1      41.770 -15.051   0.624  1.00  0.00     0.002 C 
HETATM   29  C   UNL     1      41.517 -14.510   2.030  1.00  0.00     0.032 C 
ENDBRANCH  23  24
ENDBRANCH  22  23
ENDBRANCH  19  22
ENDBRANCH  18  19
ENDBRANCH   2  18
TORSDOF 8
ENDMDL
MODEL 7
REMARK VINA RESULT:      -7.3      3.932      5.775
REMARK  8 active torsions:
REMARK  status: ('A' for Active; 'I' for Inactive)
REMARK    1  A    between atoms: C_2  and  C_3 
REMARK    2  A    between atoms: C_7  and  C_8 
REMARK       I    between atoms: C_8  and  N_9 
REMARK    3  A    between atoms: N_9  and  C_10 
REMARK    4  A    between atoms: C_10  and  C_11 
REMARK    5  A    between atoms: C_11  and  O_12 
REMARK    6  A    between atoms: C_11  and  C_13 
REMARK    7  A    between atoms: C_13  and  O_14 
REMARK    8  A    between atoms: O_14  and  C_15 
ROOT
HETATM    1  C   UNL     1      41.385 -15.511   0.351  1.00  0.00     0.269 C 
HETATM    2  N   UNL     1      41.462 -15.547  -1.016  1.00  0.00    -0.353 N 
HETATM    3  O   UNL     1      40.602 -14.781   0.950  1.00  0.00    -0.266 OA
HETATM    4  H   UNL     1      42.231 -16.021  -1.468  1.00  0.00     0.162 HD
ENDROOT
BRANCH   1   5
HETATM    5  C   UNL     1      42.262 -16.428   1.032  1.00  0.00     0.120 A 
HETATM    6  N   UNL     1      43.200 -16.001   1.929  1.00  0.00    -0.272 N 
HETATM    7  N   UNL     1      43.851 -16.991   2.560  1.00  0.00    -0.174 NA
HETATM    8  H   UNL     1      43.408 -15.040   2.179  1.00  0.00     0.189 HD
HETATM    9  C   UNL     1      43.336 -18.117   2.044  1.00  0.00     0.089 A 
HETATM   10  C   UNL     1      42.359 -17.807   1.058  1.00  0.00     0.071 A 
BRANCH   9  11
HETATM   11  C   UNL     1      43.737 -19.443   2.525  1.00  0.00    -0.005 A 
HETATM   12  C   UNL     1      43.539 -20.578   1.720  1.00  0.00     0.017 A 
HETATM   13  C   UNL     1      43.960 -21.840   2.147  1.00  0.00     0.043 A 
HETATM   14  C   UNL     1      44.574 -21.971   3.386  1.00  0.00     0.116 A 
HETATM   15  C   UNL     1      44.772 -20.867   4.206  1.00  0.00     0.043 A 
HETATM   16  F   UNL     1      44.986 -23.178   3.796  1.00  0.00    -0.206 F 
HETATM   17  C   UNL     1      44.355 -19.603   3.777  1.00  0.00     0.017 A 
ENDBRANCH   9  11
ENDBRANCH   1   5
BRANCH   2  18
HETATM   18  C   UNL     1      40.492 -14.913  -1.888  1.00  0.00     0.156 C 
BRANCH  18  19
HETATM   19  C   UNL     1      41.040 -14.547  -3.267  1.00  0.00     0.159 C 
BRANCH  19  20
HETATM   20  O   UNL     1      42.237 -15.294  -3.538  1.00  0.00    -0.392 OA
HETATM   21  H   UNL     1      42.167 -15.537  -4.484  1.00  0.00     0.210 HD
ENDBRANCH  19  20
BRANCH  19  22
HETATM   22  C   UNL     1      41.300 -13.048  -3.451  1.00  0.00     0.201 C 
BRANCH  22  23
HETATM   23  O   UNL     1      42.200 -12.668  -2.395  1.00  0.00    -0.383 OA
BRANCH  23  24
HETATM   24  C   UNL     1      42.835 -11.403  -2.600  1.00  0.00     0.121 C 
HETATM   25  C   UNL     1      43.213 -10.862  -1.217  1.00  0.00     0.032 C 
HETATM   26  C   UNL     1      43.835  -9.473  -1.301  1.00  0.00     0.002 C 
HETATM   27  C   UNL     1      42.922  -8.499  -2.038  1.00  0.00     0.000 C 
HETATM   28  C   UNL     1      42.525  -9.028  -3.413  1.00  0.00     0.002 C 
HETATM   29  C   UNL     1      41.912 -10.424  -3.330  1.00  0.00     0.032 C 
ENDBRANCH  23  24
ENDBRANCH  22  23
ENDBRANCH  19  22
ENDBRANCH  18  19
ENDBRANCH   2  18
TORSDOF 8
ENDMDL
MODEL 8
REMARK VINA RESULT:      -7.2      6.909     10.004
REMARK  8 active torsions:
REMARK  status: ('A' for Active; 'I' for Inactive)
REMARK    1  A    between atoms: C_2  and  C_3 
REMARK    2  A    between atoms: C_7  and  C_8 
REMARK       I    between atoms: C_8  and  N_9 
REMARK    3  A    between atoms: N_9  and  C_10 
REMARK    4  A    between atoms: C_10  and  C_11 
REMARK    5  A    between atoms: C_11  and  O_12 
REMARK    6  A    between atoms: C_11  and  C_13 
REMARK    7  A    between atoms: C_13  and  O_14 
REMARK    8  A    between atoms: O_14  and  C_15 
ROOT
HETATM    1  C   UNL     1      45.287 -13.311   7.747  1.00  0.00     0.269 C 
HETATM    2  N   UNL     1      44.334 -14.289   7.641  1.00  0.00    -0.353 N 
HETATM    3  O   UNL     1      46.224 -13.215   6.960  1.00  0.00    -0.266 OA
HETATM    4  H   UNL     1      43.684 -14.446   8.399  1.00  0.00     0.162 HD
ENDROOT
BRANCH   1   5
HETATM    5  C   UNL     1      45.082 -12.377   8.822  1.00  0.00     0.120 A 
HETATM    6  N   UNL     1      45.844 -11.250   8.957  1.00  0.00    -0.272 N 
HETATM    7  N   UNL     1      45.446 -10.429   9.942  1.00  0.00    -0.174 NA
HETATM    8  H   UNL     1      46.628 -10.973   8.375  1.00  0.00     0.189 HD
HETATM    9  C   UNL     1      44.390 -11.048  10.492  1.00  0.00     0.089 A 
HETATM   10  C   UNL     1      44.150 -12.289   9.839  1.00  0.00     0.071 A 
BRANCH   9  11
HETATM   11  C   UNL     1      43.612 -10.436  11.574  1.00  0.00    -0.005 A 
HETATM   12  C   UNL     1      43.245  -9.081  11.503  1.00  0.00     0.017 A 
HETATM   13  C   UNL     1      42.463  -8.500  12.505  1.00  0.00     0.043 A 
HETATM   14  C   UNL     1      42.053  -9.271  13.585  1.00  0.00     0.116 A 
HETATM   15  C   UNL     1      42.412 -10.609  13.684  1.00  0.00     0.043 A 
HETATM   16  F   UNL     1      41.298  -8.718  14.543  1.00  0.00    -0.206 F 
HETATM   17  C   UNL     1      43.190 -11.193  12.680  1.00  0.00     0.017 A 
ENDBRANCH   9  11
ENDBRANCH   1   5
BRANCH   2  18
HETATM   18  C   UNL     1      44.201 -15.155   6.487  1.00  0.00     0.156 C 
BRANCH  18  19
HETATM   19  C   UNL     1      42.855 -15.036   5.770  1.00  0.00     0.159 C 
BRANCH  19  20
HETATM   20  O   UNL     1      41.788 -15.405   6.657  1.00  0.00    -0.392 OA
HETATM   21  H   UNL     1      42.114 -16.206   7.115  1.00  0.00     0.210 HD
ENDBRANCH  19  20
BRANCH  19  22
HETATM   22  C   UNL     1      42.772 -15.851   4.475  1.00  0.00     0.201 C 
BRANCH  22  23
HETATM   23  O   UNL     1      41.915 -16.970   4.763  1.00  0.00    -0.383 OA
BRANCH  23  24
HETATM   24  C   UNL     1      42.349 -18.201   4.179  1.00  0.00     0.121 C 
HETATM   25  C   UNL     1      43.718 -18.526   4.786  1.00  0.00     0.032 C 
HETATM   26  C   UNL     1      44.322 -19.788   4.180  1.00  0.00     0.002 C 
HETATM   27  C   UNL     1      44.408 -19.689   2.661  1.00  0.00     0.000 C 
HETATM   28  C   UNL     1      43.055 -19.352   2.040  1.00  0.00     0.002 C 
HETATM   29  C   UNL     1      42.444 -18.094   2.655  1.00  0.00     0.032 C 
ENDBRANCH  23  24
ENDBRANCH  22  23
ENDBRANCH  19  22
ENDBRANCH  18  19
ENDBRANCH   2  18
TORSDOF 8
ENDMDL
MODEL 9
REMARK VINA RESULT:      -7.1      3.743      6.466
REMARK  8 active torsions:
REMARK  status: ('A' for Active; 'I' for Inactive)
REMARK    1  A    between atoms: C_2  and  C_3 
REMARK    2  A    between atoms: C_7  and  C_8 
REMARK       I    between atoms: C_8  and  N_9 
REMARK    3  A    between atoms: N_9  and  C_10 
REMARK    4  A    between atoms: C_10  and  C_11 
REMARK    5  A    between atoms: C_11  and  O_12 
REMARK    6  A    between atoms: C_11  and  C_13 
REMARK    7  A    between atoms: C_13  and  O_14 
REMARK    8  A    between atoms: O_14  and  C_15 
ROOT
HETATM    1  C   UNL     1      42.009 -15.234   0.740  1.00  0.00     0.269 C 
HETATM    2  N   UNL     1      41.850 -15.554  -0.582  1.00  0.00    -0.353 N 
HETATM    3  O   UNL     1      41.629 -14.167   1.212  1.00  0.00    -0.266 OA
HETATM    4  H   UNL     1      42.328 -16.355  -0.970  1.00  0.00     0.162 HD
ENDROOT
BRANCH   1   5
HETATM    5  C   UNL     1      42.615 -16.263   1.545  1.00  0.00     0.120 A 
HETATM    6  N   UNL     1      42.863 -16.087   2.877  1.00  0.00    -0.272 N 
HETATM    7  N   UNL     1      43.321 -17.183   3.502  1.00  0.00    -0.174 NA
HETATM    8  H   UNL     1      42.697 -15.246   3.420  1.00  0.00     0.189 HD
HETATM    9  C   UNL     1      43.398 -18.115   2.540  1.00  0.00     0.089 A 
HETATM   10  C   UNL     1      42.995 -17.567   1.290  1.00  0.00     0.071 A 
BRANCH   9  11
HETATM   11  C   UNL     1      43.796 -19.496   2.829  1.00  0.00    -0.005 A 
HETATM   12  C   UNL     1      43.565 -20.511   1.884  1.00  0.00     0.017 A 
HETATM   13  C   UNL     1      43.983 -21.822   2.129  1.00  0.00     0.043 A 
HETATM   14  C   UNL     1      44.626 -22.123   3.323  1.00  0.00     0.116 A 
HETATM   15  C   UNL     1      44.856 -21.140   4.278  1.00  0.00     0.043 A 
HETATM   16  F   UNL     1      45.034 -23.377   3.557  1.00  0.00    -0.206 F 
HETATM   17  C   UNL     1      44.442 -19.827   4.032  1.00  0.00     0.017 A 
ENDBRANCH   9  11
ENDBRANCH   1   5
BRANCH   2  18
HETATM   18  C   UNL     1      41.030 -14.785  -1.498  1.00  0.00     0.156 C 
BRANCH  18  19
HETATM   19  C   UNL     1      40.855 -15.432  -2.871  1.00  0.00     0.159 C 
BRANCH  19  20
HETATM   20  O   UNL     1      41.995 -15.154  -3.699  1.00  0.00    -0.392 OA
HETATM   21  H   UNL     1      42.061 -15.927  -4.296  1.00  0.00     0.210 HD
ENDBRANCH  19  20
BRANCH  19  22
HETATM   22  C   UNL     1      39.567 -15.016  -3.590  1.00  0.00     0.201 C 
BRANCH  22  23
HETATM   23  O   UNL     1      39.055 -13.884  -2.866  1.00  0.00    -0.383 OA
BRANCH  23  24
HETATM   24  C   UNL     1      37.695 -13.563  -3.174  1.00  0.00     0.121 C 
HETATM   25  C   UNL     1      37.222 -14.578  -4.220  1.00  0.00     0.032 C 
HETATM   26  C   UNL     1      35.800 -14.291  -4.688  1.00  0.00     0.002 C 
HETATM   27  C   UNL     1      35.663 -12.864  -5.208  1.00  0.00     0.000 C 
HETATM   28  C   UNL     1      36.142 -11.841  -4.183  1.00  0.00     0.002 C 
HETATM   29  C   UNL     1      37.564 -12.134  -3.707  1.00  0.00     0.032 C 
ENDBRANCH  23  24
ENDBRANCH  22  23
ENDBRANCH  19  22
ENDBRANCH  18  19
ENDBRANCH   2  18
TORSDOF 8
ENDMDL
MODEL 10
REMARK VINA RESULT:      -7.1      3.808      7.068
REMARK  8 active torsions:
REMARK  status: ('A' for Active; 'I' for Inactive)
REMARK    1  A    between atoms: C_2  and  C_3 
REMARK    2  A    between atoms: C_7  and  C_8 
REMARK       I    between atoms: C_8  and  N_9 
REMARK    3  A    between atoms: N_9  and  C_10 
REMARK    4  A    between atoms: C_10  and  C_11 
REMARK    5  A    between atoms: C_11  and  O_12 
REMARK    6  A    between atoms: C_11  and  C_13 
REMARK    7  A    between atoms: C_13  and  O_14 
REMARK    8  A    between atoms: O_14  and  C_15 
ROOT
HETATM    1  C   UNL     1      43.676 -14.615   6.087  1.00  0.00     0.269 C 
HETATM    2  N   UNL     1      43.029 -15.590   6.799  1.00  0.00    -0.353 N 
HETATM    3  O   UNL     1      44.725 -14.106   6.468  1.00  0.00    -0.266 OA
HETATM    4  H   UNL     1      42.087 -15.858   6.550  1.00  0.00     0.162 HD
ENDROOT
BRANCH   1   5
HETATM    5  C   UNL     1      43.055 -14.263   4.837  1.00  0.00     0.120 A 
HETATM    6  N   UNL     1      43.766 -13.722   3.803  1.00  0.00    -0.272 N 
HETATM    7  N   UNL     1      43.062 -13.565   2.671  1.00  0.00    -0.174 NA
HETATM    8  H   UNL     1      44.752 -13.478   3.806  1.00  0.00     0.189 HD
HETATM    9  C   UNL     1      41.830 -14.001   2.976  1.00  0.00     0.089 A 
HETATM   10  C   UNL     1      41.776 -14.417   4.335  1.00  0.00     0.071 A 
BRANCH   9  11
HETATM   11  C   UNL     1      40.761 -14.061   1.974  1.00  0.00    -0.005 A 
HETATM   12  C   UNL     1      39.484 -14.528   2.331  1.00  0.00     0.017 A 
HETATM   13  C   UNL     1      38.444 -14.545   1.397  1.00  0.00     0.043 A 
HETATM   14  C   UNL     1      38.681 -14.103   0.102  1.00  0.00     0.116 A 
HETATM   15  C   UNL     1      39.937 -13.647  -0.278  1.00  0.00     0.043 A 
HETATM   16  F   UNL     1      37.685 -14.112  -0.793  1.00  0.00    -0.206 F 
HETATM   17  C   UNL     1      40.977 -13.625   0.656  1.00  0.00     0.017 A 
ENDBRANCH   9  11
ENDBRANCH   1   5
BRANCH   2  18
HETATM   18  C   UNL     1      43.617 -16.274   7.934  1.00  0.00     0.156 C 
BRANCH  18  19
HETATM   19  C   UNL     1      43.466 -17.795   7.891  1.00  0.00     0.159 C 
BRANCH  19  20
HETATM   20  O   UNL     1      43.955 -18.375   9.111  1.00  0.00    -0.392 OA
HETATM   21  H   UNL     1      43.253 -19.000   9.385  1.00  0.00     0.210 HD
ENDBRANCH  19  20
BRANCH  19  22
HETATM   22  C   UNL     1      44.148 -18.450   6.685  1.00  0.00     0.201 C 
BRANCH  22  23
HETATM   23  O   UNL     1      43.347 -18.108   5.541  1.00  0.00    -0.383 OA
BRANCH  23  24
HETATM   24  C   UNL     1      43.885 -18.564   4.297  1.00  0.00     0.121 C 
HETATM   25  C   UNL     1      42.762 -18.466   3.259  1.00  0.00     0.032 C 
HETATM   26  C   UNL     1      43.196 -19.001   1.899  1.00  0.00     0.002 C 
HETATM   27  C   UNL     1      43.721 -20.429   2.004  1.00  0.00     0.000 C 
HETATM   28  C   UNL     1      44.833 -20.547   3.043  1.00  0.00     0.002 C 
HETATM   29  C   UNL     1      44.401 -20.002   4.403  1.00  0.00     0.032 C 
ENDBRANCH  23  24
ENDBRANCH  22  23
ENDBRANCH  19  22
ENDBRANCH  18  19
ENDBRANCH   2  18
TORSDOF 8
ENDMDL
