MODEL 1
REMARK VINA RESULT:      -9.4      0.000      0.000
REMARK  5 active torsions:
REMARK  status: ('A' for Active; 'I' for Inactive)
REMARK       I    between atoms: C_2  and  N_3 
REMARK    1  A    between atoms: C_2  and  C_31 
REMARK    2  A    between atoms: N_3  and  C_4 
REMARK    3  A    between atoms: C_9  and  C_10 
REMARK    4  A    between atoms: C_12  and  N_13 
REMARK    5  A    between atoms: N_13  and  C_14 
ROOT
HETATM    1  C   UNL     1      42.063 -17.494   1.975  1.00  0.00     0.164 A 
HETATM    2  N   UNL     1      41.298 -16.859   2.877  1.00  0.00    -0.210 NA
HETATM    3  C   UNL     1      40.498 -15.865   2.449  1.00  0.00     0.143 A 
HETATM    4  C   UNL     1      40.466 -15.466   1.104  1.00  0.00     0.039 A 
HETATM    5  C   UNL     1      39.681 -14.405   0.582  1.00  0.00     0.018 A 
HETATM    6  C   UNL     1      39.733 -14.074  -0.770  1.00  0.00     0.001 A 
HETATM    7  C   UNL     1      40.572 -14.790  -1.612  1.00  0.00     0.002 A 
HETATM    8  C   UNL     1      41.349 -15.830  -1.095  1.00  0.00     0.032 A 
HETATM    9  C   UNL     1      41.309 -16.183   0.248  1.00  0.00     0.073 A 
HETATM   10  N   UNL     1      42.084 -17.189   0.667  1.00  0.00    -0.228 NA
ENDROOT
BRANCH   1  11
HETATM   11  C   UNL     1      42.945 -18.579   2.469  1.00  0.00     0.039 A 
HETATM   12  C   UNL     1      43.738 -18.494   3.647  1.00  0.00     0.049 A 
HETATM   13  C   UNL     1      44.526 -19.594   4.029  1.00  0.00     0.030 A 
HETATM   14  C   UNL     1      44.556 -20.769   3.275  1.00  0.00     0.002 A 
HETATM   15  C   UNL     1      43.799 -20.866   2.120  1.00  0.00     0.001 A 
HETATM   16  C   UNL     1      43.009 -19.788   1.726  1.00  0.00     0.018 A 
BRANCH  12  17
HETATM   17  N   UNL     1      43.751 -17.295   4.403  1.00  0.00    -0.321 N 
HETATM   18  C   UNL     1      43.526 -17.114   5.755  1.00  0.00     0.274 C 
HETATM   19  O   UNL     1      43.202 -17.967   6.574  1.00  0.00    -0.266 OA
HETATM   20  H   UNL     1      43.937 -16.434   3.881  1.00  0.00     0.169 HD
BRANCH  18  21
HETATM   21  C   UNL     1      43.713 -15.696   6.214  1.00  0.00     0.124 A 
HETATM   22  C   UNL     1      43.148 -14.656   5.485  1.00  0.00     0.037 A 
HETATM   23  C   UNL     1      43.313 -13.354   5.950  1.00  0.00     0.004 A 
HETATM   24  C   UNL     1      44.026 -13.138   7.124  1.00  0.00     0.019 A 
HETATM   25  C   UNL     1      44.554 -14.235   7.788  1.00  0.00     0.117 A 
HETATM   26  N   UNL     1      44.425 -15.510   7.361  1.00  0.00    -0.256 NA
ENDBRANCH  18  21
ENDBRANCH  12  17
ENDBRANCH   1  11
BRANCH   3  27
HETATM   27  N   UNL     1      39.647 -15.216   3.384  1.00  0.00    -0.340 N 
HETATM   28  H   UNL     1      39.238 -15.918   3.991  1.00  0.00     0.167 HD
BRANCH  27  29
HETATM   29  C   UNL     1      39.898 -14.004   4.072  1.00  0.00     0.034 A 
HETATM   30  C   UNL     1      40.446 -12.887   3.427  1.00  0.00     0.032 A 
HETATM   31  C   UNL     1      40.648 -11.664   4.082  1.00  0.00     0.034 A 
HETATM   32  C   UNL     1      40.257 -11.595   5.420  1.00  0.00     0.062 A 
HETATM   33  N   UNL     1      40.313 -10.578   6.336  1.00  0.00    -0.278 N 
HETATM   34  C   UNL     1      39.681 -12.664   6.093  1.00  0.00     0.013 A 
HETATM   35  H   UNL     1      40.674  -9.641   6.198  1.00  0.00     0.189 HD
HETATM   36  N   UNL     1      39.817 -10.899   7.545  1.00  0.00    -0.186 NA
HETATM   37  C   UNL     1      39.434 -12.171   7.393  1.00  0.00     0.152 A 
HETATM   38  C   UNL     1      39.483 -13.880   5.412  1.00  0.00     0.044 A 
ENDBRANCH  27  29
ENDBRANCH   3  27
TORSDOF 5
ENDMDL
MODEL 2
REMARK VINA RESULT:      -9.3      3.184      5.052
REMARK  5 active torsions:
REMARK  status: ('A' for Active; 'I' for Inactive)
REMARK       I    between atoms: C_2  and  N_3 
REMARK    1  A    between atoms: C_2  and  C_31 
REMARK    2  A    between atoms: N_3  and  C_4 
REMARK    3  A    between atoms: C_9  and  C_10 
REMARK    4  A    between atoms: C_12  and  N_13 
REMARK    5  A    between atoms: N_13  and  C_14 
ROOT
HETATM    1  C   UNL     1      41.576 -16.163   1.449  1.00  0.00     0.164 A 
HETATM    2  N   UNL     1      42.079 -15.777   0.265  1.00  0.00    -0.210 NA
HETATM    3  C   UNL     1      41.330 -14.978  -0.516  1.00  0.00     0.143 A 
HETATM    4  C   UNL     1      40.043 -14.566  -0.138  1.00  0.00     0.039 A 
HETATM    5  C   UNL     1      39.179 -13.757  -0.921  1.00  0.00     0.018 A 
HETATM    6  C   UNL     1      37.908 -13.415  -0.462  1.00  0.00     0.001 A 
HETATM    7  C   UNL     1      37.485 -13.882   0.773  1.00  0.00     0.002 A 
HETATM    8  C   UNL     1      38.335 -14.684   1.539  1.00  0.00     0.032 A 
HETATM    9  C   UNL     1      39.609 -15.032   1.107  1.00  0.00     0.073 A 
HETATM   10  N   UNL     1      40.363 -15.804   1.897  1.00  0.00    -0.228 NA
ENDROOT
BRANCH   1  11
HETATM   11  C   UNL     1      42.413 -17.053   2.291  1.00  0.00     0.039 A 
HETATM   12  C   UNL     1      42.603 -16.886   3.691  1.00  0.00     0.049 A 
HETATM   13  C   UNL     1      43.407 -17.801   4.392  1.00  0.00     0.030 A 
HETATM   14  C   UNL     1      44.032 -18.869   3.745  1.00  0.00     0.002 A 
HETATM   15  C   UNL     1      43.867 -19.042   2.382  1.00  0.00     0.001 A 
HETATM   16  C   UNL     1      43.072 -18.146   1.669  1.00  0.00     0.018 A 
BRANCH  12  17
HETATM   17  N   UNL     1      42.008 -15.784   4.357  1.00  0.00    -0.321 N 
HETATM   18  C   UNL     1      42.518 -14.518   4.574  1.00  0.00     0.274 C 
HETATM   19  O   UNL     1      43.636 -14.109   4.282  1.00  0.00    -0.266 OA
HETATM   20  H   UNL     1      41.076 -15.943   4.749  1.00  0.00     0.169 HD
BRANCH  18  21
HETATM   21  C   UNL     1      41.552 -13.585   5.246  1.00  0.00     0.124 A 
HETATM   22  C   UNL     1      40.192 -13.874   5.232  1.00  0.00     0.037 A 
HETATM   23  C   UNL     1      39.324 -13.006   5.888  1.00  0.00     0.004 A 
HETATM   24  C   UNL     1      39.841 -11.891   6.539  1.00  0.00     0.019 A 
HETATM   25  C   UNL     1      41.211 -11.683   6.504  1.00  0.00     0.117 A 
HETATM   26  N   UNL     1      42.083 -12.495   5.868  1.00  0.00    -0.256 NA
ENDBRANCH  18  21
ENDBRANCH  12  17
ENDBRANCH   1  11
BRANCH   3  27
HETATM   27  N   UNL     1      41.869 -14.522  -1.751  1.00  0.00    -0.340 N 
HETATM   28  H   UNL     1      41.417 -15.027  -2.506  1.00  0.00     0.167 HD
BRANCH  27  29
HETATM   29  C   UNL     1      42.168 -13.187  -2.113  1.00  0.00     0.034 A 
HETATM   30  C   UNL     1      41.842 -12.672  -3.376  1.00  0.00     0.032 A 
HETATM   31  C   UNL     1      42.083 -11.337  -3.728  1.00  0.00     0.034 A 
HETATM   32  C   UNL     1      42.651 -10.519  -2.750  1.00  0.00     0.062 A 
HETATM   33  N   UNL     1      43.010  -9.198  -2.759  1.00  0.00    -0.278 N 
HETATM   34  C   UNL     1      42.962 -10.976  -1.475  1.00  0.00     0.013 A 
HETATM   35  H   UNL     1      42.927  -8.541  -3.527  1.00  0.00     0.189 HD
HETATM   36  N   UNL     1      43.525  -8.759  -1.596  1.00  0.00    -0.186 NA
HETATM   37  C   UNL     1      43.494  -9.845  -0.817  1.00  0.00     0.152 A 
HETATM   38  C   UNL     1      42.706 -12.319  -1.143  1.00  0.00     0.044 A 
ENDBRANCH  27  29
ENDBRANCH   3  27
TORSDOF 5
ENDMDL
MODEL 3
REMARK VINA RESULT:      -9.3      2.340      5.694
REMARK  5 active torsions:
REMARK  status: ('A' for Active; 'I' for Inactive)
REMARK       I    between atoms: C_2  and  N_3 
REMARK    1  A    between atoms: C_2  and  C_31 
REMARK    2  A    between atoms: N_3  and  C_4 
REMARK    3  A    between atoms: C_9  and  C_10 
REMARK    4  A    between atoms: C_12  and  N_13 
REMARK    5  A    between atoms: N_13  and  C_14 
ROOT
HETATM    1  C   UNL     1      42.545 -15.102   4.895  1.00  0.00     0.164 A 
HETATM    2  N   UNL     1      42.682 -14.722   3.614  1.00  0.00    -0.210 NA
HETATM    3  C   UNL     1      41.895 -13.733   3.154  1.00  0.00     0.143 A 
HETATM    4  C   UNL     1      40.929 -13.116   3.965  1.00  0.00     0.039 A 
HETATM    5  C   UNL     1      40.038 -12.095   3.544  1.00  0.00     0.018 A 
HETATM    6  C   UNL     1      39.100 -11.557   4.423  1.00  0.00     0.001 A 
HETATM    7  C   UNL     1      39.037 -12.035   5.724  1.00  0.00     0.002 A 
HETATM    8  C   UNL     1      39.912 -13.045   6.133  1.00  0.00     0.032 A 
HETATM    9  C   UNL     1      40.860 -13.592   5.278  1.00  0.00     0.073 A 
HETATM   10  N   UNL     1      41.660 -14.556   5.744  1.00  0.00    -0.228 NA
ENDROOT
BRANCH   1  11
HETATM   11  C   UNL     1      43.415 -16.201   5.379  1.00  0.00     0.039 A 
HETATM   12  C   UNL     1      44.134 -16.173   6.607  1.00  0.00     0.049 A 
HETATM   13  C   UNL     1      44.917 -17.281   6.973  1.00  0.00     0.030 A 
HETATM   14  C   UNL     1      45.013 -18.410   6.157  1.00  0.00     0.002 A 
HETATM   15  C   UNL     1      44.329 -18.452   4.955  1.00  0.00     0.001 A 
HETATM   16  C   UNL     1      43.545 -17.363   4.575  1.00  0.00     0.018 A 
BRANCH  12  17
HETATM   17  N   UNL     1      44.079 -15.019   7.430  1.00  0.00    -0.321 N 
HETATM   18  C   UNL     1      44.856 -13.878   7.382  1.00  0.00     0.274 C 
HETATM   19  O   UNL     1      45.810 -13.659   6.643  1.00  0.00    -0.266 OA
HETATM   20  H   UNL     1      43.379 -15.030   8.177  1.00  0.00     0.169 HD
BRANCH  18  21
HETATM   21  C   UNL     1      44.442 -12.824   8.369  1.00  0.00     0.124 A 
HETATM   22  C   UNL     1      43.450 -11.912   8.027  1.00  0.00     0.037 A 
HETATM   23  C   UNL     1      43.067 -10.965   8.973  1.00  0.00     0.004 A 
HETATM   24  C   UNL     1      43.678 -10.965  10.222  1.00  0.00     0.019 A 
HETATM   25  C   UNL     1      44.657 -11.913  10.477  1.00  0.00     0.117 A 
HETATM   26  N   UNL     1      45.064 -12.839   9.582  1.00  0.00    -0.256 NA
ENDBRANCH  18  21
ENDBRANCH  12  17
ENDBRANCH   1  11
BRANCH   3  27
HETATM   27  N   UNL     1      42.062 -13.287   1.814  1.00  0.00    -0.340 N 
HETATM   28  H   UNL     1      42.938 -12.780   1.750  1.00  0.00     0.167 HD
BRANCH  27  29
HETATM   29  C   UNL     1      41.781 -14.011   0.630  1.00  0.00     0.034 A 
HETATM   30  C   UNL     1      41.548 -15.393   0.647  1.00  0.00     0.032 A 
HETATM   31  C   UNL     1      41.214 -16.113  -0.509  1.00  0.00     0.034 A 
HETATM   32  C   UNL     1      41.102 -15.384  -1.694  1.00  0.00     0.062 A 
HETATM   33  N   UNL     1      40.800 -15.764  -2.975  1.00  0.00    -0.278 N 
HETATM   34  C   UNL     1      41.293 -14.010  -1.754  1.00  0.00     0.013 A 
HETATM   35  H   UNL     1      40.597 -16.698  -3.311  1.00  0.00     0.189 HD
HETATM   36  N   UNL     1      40.775 -14.749  -3.859  1.00  0.00    -0.186 NA
HETATM   37  C   UNL     1      41.077 -13.683  -3.112  1.00  0.00     0.152 A 
HETATM   38  C   UNL     1      41.621 -13.308  -0.579  1.00  0.00     0.044 A 
ENDBRANCH  27  29
ENDBRANCH   3  27
TORSDOF 5
ENDMDL
MODEL 4
REMARK VINA RESULT:      -9.2      2.375      5.422
REMARK  5 active torsions:
REMARK  status: ('A' for Active; 'I' for Inactive)
REMARK       I    between atoms: C_2  and  N_3 
REMARK    1  A    between atoms: C_2  and  C_31 
REMARK    2  A    between atoms: N_3  and  C_4 
REMARK    3  A    between atoms: C_9  and  C_10 
REMARK    4  A    between atoms: C_12  and  N_13 
REMARK    5  A    between atoms: N_13  and  C_14 
ROOT
HETATM    1  C   UNL     1      41.231 -15.795   0.275  1.00  0.00     0.164 A 
HETATM    2  N   UNL     1      40.558 -15.432   1.378  1.00  0.00    -0.210 NA
HETATM    3  C   UNL     1      40.877 -16.024   2.543  1.00  0.00     0.143 A 
HETATM    4  C   UNL     1      41.865 -17.018   2.624  1.00  0.00     0.039 A 
HETATM    5  C   UNL     1      42.231 -17.716   3.805  1.00  0.00     0.018 A 
HETATM    6  C   UNL     1      43.215 -18.701   3.778  1.00  0.00     0.001 A 
HETATM    7  C   UNL     1      43.838 -19.005   2.576  1.00  0.00     0.002 A 
HETATM    8  C   UNL     1      43.471 -18.322   1.414  1.00  0.00     0.032 A 
HETATM    9  C   UNL     1      42.497 -17.331   1.416  1.00  0.00     0.073 A 
HETATM   10  N   UNL     1      42.201 -16.723   0.263  1.00  0.00    -0.228 NA
ENDROOT
BRANCH   1  11
HETATM   11  C   UNL     1      40.858 -15.137  -1.002  1.00  0.00     0.039 A 
HETATM   12  C   UNL     1      40.354 -13.810  -1.102  1.00  0.00     0.049 A 
HETATM   13  C   UNL     1      40.047 -13.283  -2.369  1.00  0.00     0.030 A 
HETATM   14  C   UNL     1      40.219 -14.033  -3.534  1.00  0.00     0.002 A 
HETATM   15  C   UNL     1      40.699 -15.329  -3.455  1.00  0.00     0.001 A 
HETATM   16  C   UNL     1      41.011 -15.869  -2.208  1.00  0.00     0.018 A 
BRANCH  12  17
HETATM   17  N   UNL     1      40.136 -13.047   0.073  1.00  0.00    -0.321 N 
HETATM   18  C   UNL     1      41.012 -12.221   0.752  1.00  0.00     0.274 C 
HETATM   19  O   UNL     1      42.197 -12.030   0.500  1.00  0.00    -0.266 OA
HETATM   20  H   UNL     1      39.207 -13.124   0.495  1.00  0.00     0.169 HD
BRANCH  18  21
HETATM   21  C   UNL     1      40.389 -11.507   1.916  1.00  0.00     0.124 A 
HETATM   22  C   UNL     1      39.133 -11.893   2.369  1.00  0.00     0.037 A 
HETATM   23  C   UNL     1      38.593 -11.232   3.469  1.00  0.00     0.004 A 
HETATM   24  C   UNL     1      39.326 -10.219   4.080  1.00  0.00     0.019 A 
HETATM   25  C   UNL     1      40.572  -9.901   3.562  1.00  0.00     0.117 A 
HETATM   26  N   UNL     1      41.123 -10.512   2.490  1.00  0.00    -0.256 NA
ENDBRANCH  18  21
ENDBRANCH  12  17
ENDBRANCH   1  11
BRANCH   3  27
HETATM   27  N   UNL     1      40.207 -15.616   3.729  1.00  0.00    -0.340 N 
HETATM   28  H   UNL     1      39.923 -16.444   4.241  1.00  0.00     0.167 HD
BRANCH  27  29
HETATM   29  C   UNL     1      40.569 -14.557   4.596  1.00  0.00     0.034 A 
HETATM   30  C   UNL     1      41.804 -13.902   4.487  1.00  0.00     0.032 A 
HETATM   31  C   UNL     1      42.153 -12.816   5.302  1.00  0.00     0.034 A 
HETATM   32  C   UNL     1      41.200 -12.392   6.229  1.00  0.00     0.062 A 
HETATM   33  N   UNL     1      41.214 -11.386   7.158  1.00  0.00    -0.278 N 
HETATM   34  C   UNL     1      39.952 -12.988   6.351  1.00  0.00     0.013 A 
HETATM   35  H   UNL     1      41.967 -10.736   7.354  1.00  0.00     0.189 HD
HETATM   36  N   UNL     1      40.077 -11.279   7.870  1.00  0.00    -0.186 NA
HETATM   37  C   UNL     1      39.311 -12.257   7.377  1.00  0.00     0.152 A 
HETATM   38  C   UNL     1      39.621 -14.073   5.518  1.00  0.00     0.044 A 
ENDBRANCH  27  29
ENDBRANCH   3  27
TORSDOF 5
ENDMDL
MODEL 5
REMARK VINA RESULT:      -9.2      2.114      6.521
REMARK  5 active torsions:
REMARK  status: ('A' for Active; 'I' for Inactive)
REMARK       I    between atoms: C_2  and  N_3 
REMARK    1  A    between atoms: C_2  and  C_31 
REMARK    2  A    between atoms: N_3  and  C_4 
REMARK    3  A    between atoms: C_9  and  C_10 
REMARK    4  A    between atoms: C_12  and  N_13 
REMARK    5  A    between atoms: N_13  and  C_14 
ROOT
HETATM    1  C   UNL     1      39.949 -13.210   1.403  1.00  0.00     0.164 A 
HETATM    2  N   UNL     1      40.067 -14.536   1.580  1.00  0.00    -0.210 NA
HETATM    3  C   UNL     1      40.420 -15.291   0.524  1.00  0.00     0.143 A 
HETATM    4  C   UNL     1      40.640 -14.735  -0.746  1.00  0.00     0.039 A 
HETATM    5  C   UNL     1      40.978 -15.468  -1.914  1.00  0.00     0.018 A 
HETATM    6  C   UNL     1      41.158 -14.823  -3.135  1.00  0.00     0.001 A 
HETATM    7  C   UNL     1      40.998 -13.447  -3.206  1.00  0.00     0.002 A 
HETATM    8  C   UNL     1      40.660 -12.729  -2.056  1.00  0.00     0.032 A 
HETATM    9  C   UNL     1      40.480 -13.348  -0.825  1.00  0.00     0.073 A 
HETATM   10  N   UNL     1      40.156 -12.592   0.228  1.00  0.00    -0.228 NA
ENDROOT
BRANCH   1  11
HETATM   11  C   UNL     1      39.548 -12.396   2.576  1.00  0.00     0.039 A 
HETATM   12  C   UNL     1      39.847 -12.733   3.926  1.00  0.00     0.049 A 
HETATM   13  C   UNL     1      39.429 -11.877   4.959  1.00  0.00     0.030 A 
HETATM   14  C   UNL     1      38.721 -10.704   4.695  1.00  0.00     0.002 A 
HETATM   15  C   UNL     1      38.412 -10.364   3.389  1.00  0.00     0.001 A 
HETATM   16  C   UNL     1      38.820 -11.199   2.350  1.00  0.00     0.018 A 
BRANCH  12  17
HETATM   17  N   UNL     1      40.531 -13.941   4.216  1.00  0.00    -0.321 N 
HETATM   18  C   UNL     1      41.846 -14.129   4.596  1.00  0.00     0.274 C 
HETATM   19  O   UNL     1      42.718 -13.272   4.700  1.00  0.00    -0.266 OA
HETATM   20  H   UNL     1      39.987 -14.803   4.117  1.00  0.00     0.169 HD
BRANCH  18  21
HETATM   21  C   UNL     1      42.188 -15.558   4.903  1.00  0.00     0.124 A 
HETATM   22  C   UNL     1      41.236 -16.552   4.706  1.00  0.00     0.037 A 
HETATM   23  C   UNL     1      41.592 -17.872   4.971  1.00  0.00     0.004 A 
HETATM   24  C   UNL     1      42.880 -18.153   5.414  1.00  0.00     0.019 A 
HETATM   25  C   UNL     1      43.765 -17.099   5.582  1.00  0.00     0.117 A 
HETATM   26  N   UNL     1      43.453 -15.806   5.346  1.00  0.00    -0.256 NA
ENDBRANCH  18  21
ENDBRANCH  12  17
ENDBRANCH   1  11
BRANCH   3  27
HETATM   27  N   UNL     1      40.596 -16.690   0.708  1.00  0.00    -0.340 N 
HETATM   28  H   UNL     1      40.132 -17.176  -0.052  1.00  0.00     0.167 HD
BRANCH  27  29
HETATM   29  C   UNL     1      41.774 -17.358   1.121  1.00  0.00     0.034 A 
HETATM   30  C   UNL     1      42.958 -16.663   1.403  1.00  0.00     0.032 A 
HETATM   31  C   UNL     1      44.115 -17.305   1.865  1.00  0.00     0.034 A 
HETATM   32  C   UNL     1      44.035 -18.685   2.058  1.00  0.00     0.062 A 
HETATM   33  N   UNL     1      44.956 -19.603   2.489  1.00  0.00    -0.278 N 
HETATM   34  C   UNL     1      42.875 -19.412   1.823  1.00  0.00     0.013 A 
HETATM   35  H   UNL     1      45.919 -19.432   2.755  1.00  0.00     0.189 HD
HETATM   36  N   UNL     1      44.488 -20.863   2.556  1.00  0.00    -0.186 NA
HETATM   37  C   UNL     1      43.221 -20.743   2.150  1.00  0.00     0.152 A 
HETATM   38  C   UNL     1      41.724 -18.744   1.364  1.00  0.00     0.044 A 
ENDBRANCH  27  29
ENDBRANCH   3  27
TORSDOF 5
ENDMDL
MODEL 6
REMARK VINA RESULT:      -9.0      2.950      7.616
REMARK  5 active torsions:
REMARK  status: ('A' for Active; 'I' for Inactive)
REMARK       I    between atoms: C_2  and  N_3 
REMARK    1  A    between atoms: C_2  and  C_31 
REMARK    2  A    between atoms: N_3  and  C_4 
REMARK    3  A    between atoms: C_9  and  C_10 
REMARK    4  A    between atoms: C_12  and  N_13 
REMARK    5  A    between atoms: N_13  and  C_14 
ROOT
HETATM    1  C   UNL     1      41.376 -15.142   0.871  1.00  0.00     0.164 A 
HETATM    2  N   UNL     1      42.472 -15.858   1.170  1.00  0.00    -0.210 NA
HETATM    3  C   UNL     1      42.713 -16.145   2.461  1.00  0.00     0.143 A 
HETATM    4  C   UNL     1      41.873 -15.695   3.492  1.00  0.00     0.039 A 
HETATM    5  C   UNL     1      42.080 -15.922   4.877  1.00  0.00     0.018 A 
HETATM    6  C   UNL     1      41.193 -15.417   5.825  1.00  0.00     0.001 A 
HETATM    7  C   UNL     1      40.099 -14.676   5.404  1.00  0.00     0.002 A 
HETATM    8  C   UNL     1      39.901 -14.448   4.040  1.00  0.00     0.032 A 
HETATM    9  C   UNL     1      40.767 -14.947   3.075  1.00  0.00     0.073 A 
HETATM   10  N   UNL     1      40.510 -14.685   1.789  1.00  0.00    -0.228 NA
ENDROOT
BRANCH   1  11
HETATM   11  C   UNL     1      41.133 -14.827  -0.558  1.00  0.00     0.039 A 
HETATM   12  C   UNL     1      40.878 -13.520  -1.060  1.00  0.00     0.049 A 
HETATM   13  C   UNL     1      40.676 -13.338  -2.439  1.00  0.00     0.030 A 
HETATM   14  C   UNL     1      40.714 -14.411  -3.331  1.00  0.00     0.002 A 
HETATM   15  C   UNL     1      40.950 -15.691  -2.861  1.00  0.00     0.001 A 
HETATM   16  C   UNL     1      41.155 -15.892  -1.497  1.00  0.00     0.018 A 
BRANCH  12  17
HETATM   17  N   UNL     1      40.797 -12.425  -0.164  1.00  0.00    -0.321 N 
HETATM   18  C   UNL     1      41.759 -11.485   0.154  1.00  0.00     0.274 C 
HETATM   19  O   UNL     1      42.920 -11.450  -0.239  1.00  0.00    -0.266 OA
HETATM   20  H   UNL     1      39.910 -12.314   0.336  1.00  0.00     0.169 HD
BRANCH  18  21
HETATM   21  C   UNL     1      41.273 -10.414   1.088  1.00  0.00     0.124 A 
HETATM   22  C   UNL     1      41.545  -9.079   0.807  1.00  0.00     0.037 A 
HETATM   23  C   UNL     1      41.056  -8.107   1.675  1.00  0.00     0.004 A 
HETATM   24  C   UNL     1      40.312  -8.497   2.783  1.00  0.00     0.019 A 
HETATM   25  C   UNL     1      40.088  -9.851   2.984  1.00  0.00     0.117 A 
HETATM   26  N   UNL     1      40.555 -10.823   2.171  1.00  0.00    -0.256 NA
ENDBRANCH  18  21
ENDBRANCH  12  17
ENDBRANCH   1  11
BRANCH   3  27
HETATM   27  N   UNL     1      43.843 -16.944   2.789  1.00  0.00    -0.340 N 
HETATM   28  H   UNL     1      44.330 -16.511   3.567  1.00  0.00     0.167 HD
BRANCH  27  29
HETATM   29  C   UNL     1      43.904 -18.357   2.848  1.00  0.00     0.034 A 
HETATM   30  C   UNL     1      43.588 -19.157   1.740  1.00  0.00     0.032 A 
HETATM   31  C   UNL     1      43.697 -20.555   1.768  1.00  0.00     0.034 A 
HETATM   32  C   UNL     1      44.160 -21.128   2.953  1.00  0.00     0.062 A 
HETATM   33  N   UNL     1      44.380 -22.431   3.313  1.00  0.00    -0.278 N 
HETATM   34  C   UNL     1      44.516 -20.374   4.064  1.00  0.00     0.013 A 
HETATM   35  H   UNL     1      44.230 -23.260   2.750  1.00  0.00     0.189 HD
HETATM   36  N   UNL     1      44.851 -22.584   4.564  1.00  0.00    -0.186 NA
HETATM   37  C   UNL     1      44.932 -21.330   5.019  1.00  0.00     0.152 A 
HETATM   38  C   UNL     1      44.403 -18.972   4.012  1.00  0.00     0.044 A 
ENDBRANCH  27  29
ENDBRANCH   3  27
TORSDOF 5
ENDMDL
MODEL 7
REMARK VINA RESULT:      -8.9      2.232      5.627
REMARK  5 active torsions:
REMARK  status: ('A' for Active; 'I' for Inactive)
REMARK       I    between atoms: C_2  and  N_3 
REMARK    1  A    between atoms: C_2  and  C_31 
REMARK    2  A    between atoms: N_3  and  C_4 
REMARK    3  A    between atoms: C_9  and  C_10 
REMARK    4  A    between atoms: C_12  and  N_13 
REMARK    5  A    between atoms: N_13  and  C_14 
ROOT
HETATM    1  C   UNL     1      42.845 -16.605   4.139  1.00  0.00     0.164 A 
HETATM    2  N   UNL     1      41.582 -16.258   3.840  1.00  0.00    -0.210 NA
HETATM    3  C   UNL     1      41.093 -15.118   4.361  1.00  0.00     0.143 A 
HETATM    4  C   UNL     1      41.853 -14.308   5.219  1.00  0.00     0.039 A 
HETATM    5  C   UNL     1      41.397 -13.115   5.837  1.00  0.00     0.018 A 
HETATM    6  C   UNL     1      42.226 -12.389   6.690  1.00  0.00     0.001 A 
HETATM    7  C   UNL     1      43.511 -12.848   6.940  1.00  0.00     0.002 A 
HETATM    8  C   UNL     1      43.956 -14.027   6.335  1.00  0.00     0.032 A 
HETATM    9  C   UNL     1      43.151 -14.765   5.476  1.00  0.00     0.073 A 
HETATM   10  N   UNL     1      43.647 -15.883   4.937  1.00  0.00    -0.228 NA
ENDROOT
BRANCH   1  11
HETATM   11  C   UNL     1      43.362 -17.870   3.563  1.00  0.00     0.039 A 
HETATM   12  C   UNL     1      43.434 -18.146   2.169  1.00  0.00     0.049 A 
HETATM   13  C   UNL     1      43.958 -19.376   1.736  1.00  0.00     0.030 A 
HETATM   14  C   UNL     1      44.405 -20.340   2.641  1.00  0.00     0.002 A 
HETATM   15  C   UNL     1      44.333 -20.094   4.002  1.00  0.00     0.001 A 
HETATM   16  C   UNL     1      43.819 -18.878   4.451  1.00  0.00     0.018 A 
BRANCH  12  17
HETATM   17  N   UNL     1      42.948 -17.195   1.236  1.00  0.00    -0.321 N 
HETATM   18  C   UNL     1      41.679 -17.064   0.705  1.00  0.00     0.274 C 
HETATM   19  O   UNL     1      40.717 -17.801   0.892  1.00  0.00    -0.266 OA
HETATM   20  H   UNL     1      43.630 -16.514   0.889  1.00  0.00     0.169 HD
BRANCH  18  21
HETATM   21  C   UNL     1      41.520 -15.872  -0.195  1.00  0.00     0.124 A 
HETATM   22  C   UNL     1      41.916 -14.616   0.251  1.00  0.00     0.037 A 
HETATM   23  C   UNL     1      41.784 -13.534  -0.616  1.00  0.00     0.004 A 
HETATM   24  C   UNL     1      41.272 -13.744  -1.892  1.00  0.00     0.019 A 
HETATM   25  C   UNL     1      40.904 -15.031  -2.252  1.00  0.00     0.117 A 
HETATM   26  N   UNL     1      41.006 -16.103  -1.435  1.00  0.00    -0.256 NA
ENDBRANCH  18  21
ENDBRANCH  12  17
ENDBRANCH   1  11
BRANCH   3  27
HETATM   27  N   UNL     1      39.775 -14.714   4.014  1.00  0.00    -0.340 N 
HETATM   28  H   UNL     1      39.348 -14.278   4.824  1.00  0.00     0.167 HD
BRANCH  27  29
HETATM   29  C   UNL     1      39.355 -14.108   2.805  1.00  0.00     0.034 A 
HETATM   30  C   UNL     1      38.650 -14.822   1.826  1.00  0.00     0.032 A 
HETATM   31  C   UNL     1      38.181 -14.221   0.650  1.00  0.00     0.034 A 
HETATM   32  C   UNL     1      38.429 -12.856   0.497  1.00  0.00     0.062 A 
HETATM   33  N   UNL     1      38.118 -11.978  -0.506  1.00  0.00    -0.278 N 
HETATM   34  C   UNL     1      39.094 -12.100   1.454  1.00  0.00     0.013 A 
HETATM   35  H   UNL     1      37.628 -12.176  -1.371  1.00  0.00     0.189 HD
HETATM   36  N   UNL     1      38.524 -10.715  -0.278  1.00  0.00    -0.186 NA
HETATM   37  C   UNL     1      39.119 -10.794   0.916  1.00  0.00     0.152 A 
HETATM   38  C   UNL     1      39.552 -12.725   2.630  1.00  0.00     0.044 A 
ENDBRANCH  27  29
ENDBRANCH   3  27
TORSDOF 5
ENDMDL
MODEL 8
REMARK VINA RESULT:      -8.8      3.489      7.666
REMARK  5 active torsions:
REMARK  status: ('A' for Active; 'I' for Inactive)
REMARK       I    between atoms: C_2  and  N_3 
REMARK    1  A    between atoms: C_2  and  C_31 
REMARK    2  A    between atoms: N_3  and  C_4 
REMARK    3  A    between atoms: C_9  and  C_10 
REMARK    4  A    between atoms: C_12  and  N_13 
REMARK    5  A    between atoms: N_13  and  C_14 
ROOT
HETATM    1  C   UNL     1      41.499 -14.466   3.271  1.00  0.00     0.164 A 
HETATM    2  N   UNL     1      41.479 -14.260   1.945  1.00  0.00    -0.210 NA
HETATM    3  C   UNL     1      42.019 -15.197   1.145  1.00  0.00     0.143 A 
HETATM    4  C   UNL     1      42.620 -16.356   1.660  1.00  0.00     0.039 A 
HETATM    5  C   UNL     1      43.244 -17.369   0.887  1.00  0.00     0.018 A 
HETATM    6  C   UNL     1      43.829 -18.476   1.497  1.00  0.00     0.001 A 
HETATM    7  C   UNL     1      43.805 -18.581   2.880  1.00  0.00     0.002 A 
HETATM    8  C   UNL     1      43.195 -17.579   3.640  1.00  0.00     0.032 A 
HETATM    9  C   UNL     1      42.599 -16.469   3.055  1.00  0.00     0.073 A 
HETATM   10  N   UNL     1      42.038 -15.552   3.849  1.00  0.00    -0.228 NA
ENDROOT
BRANCH   1  11
HETATM   11  C   UNL     1      40.907 -13.417   4.137  1.00  0.00     0.039 A 
HETATM   12  C   UNL     1      40.874 -12.033   3.809  1.00  0.00     0.049 A 
HETATM   13  C   UNL     1      40.271 -11.128   4.700  1.00  0.00     0.030 A 
HETATM   14  C   UNL     1      39.708 -11.553   5.905  1.00  0.00     0.002 A 
HETATM   15  C   UNL     1      39.740 -12.895   6.245  1.00  0.00     0.001 A 
HETATM   16  C   UNL     1      40.331 -13.808   5.373  1.00  0.00     0.018 A 
BRANCH  12  17
HETATM   17  N   UNL     1      41.476 -11.577   2.609  1.00  0.00    -0.321 N 
HETATM   18  C   UNL     1      40.875 -11.100   1.459  1.00  0.00     0.274 C 
HETATM   19  O   UNL     1      39.674 -11.034   1.222  1.00  0.00    -0.266 OA
HETATM   20  H   UNL     1      42.498 -11.618   2.573  1.00  0.00     0.169 HD
BRANCH  18  21
HETATM   21  C   UNL     1      41.851 -10.625   0.421  1.00  0.00     0.124 A 
HETATM   22  C   UNL     1      42.100  -9.265   0.280  1.00  0.00     0.037 A 
HETATM   23  C   UNL     1      43.031  -8.857  -0.671  1.00  0.00     0.004 A 
HETATM   24  C   UNL     1      43.683  -9.815  -1.439  1.00  0.00     0.019 A 
HETATM   25  C   UNL     1      43.373 -11.151  -1.230  1.00  0.00     0.117 A 
HETATM   26  N   UNL     1      42.468 -11.584  -0.326  1.00  0.00    -0.256 NA
ENDBRANCH  18  21
ENDBRANCH  12  17
ENDBRANCH   1  11
BRANCH   3  27
HETATM   27  N   UNL     1      41.962 -15.015  -0.264  1.00  0.00    -0.340 N 
HETATM   28  H   UNL     1      42.669 -15.602  -0.694  1.00  0.00     0.167 HD
BRANCH  27  29
HETATM   29  C   UNL     1      40.801 -14.911  -1.067  1.00  0.00     0.034 A 
HETATM   30  C   UNL     1      39.783 -13.991  -0.779  1.00  0.00     0.032 A 
HETATM   31  C   UNL     1      38.654 -13.839  -1.596  1.00  0.00     0.034 A 
HETATM   32  C   UNL     1      38.591 -14.638  -2.739  1.00  0.00     0.062 A 
HETATM   33  N   UNL     1      37.651 -14.742  -3.730  1.00  0.00    -0.278 N 
HETATM   34  C   UNL     1      39.590 -15.540  -3.083  1.00  0.00     0.013 A 
HETATM   35  H   UNL     1      36.780 -14.231  -3.811  1.00  0.00     0.189 HD
HETATM   36  N   UNL     1      37.960 -15.634  -4.689  1.00  0.00    -0.186 NA
HETATM   37  C   UNL     1      39.141 -16.118  -4.291  1.00  0.00     0.152 A 
HETATM   38  C   UNL     1      40.717 -15.671  -2.249  1.00  0.00     0.044 A 
ENDBRANCH  27  29
ENDBRANCH   3  27
TORSDOF 5
ENDMDL
MODEL 9
REMARK VINA RESULT:      -8.7      3.421      7.536
REMARK  5 active torsions:
REMARK  status: ('A' for Active; 'I' for Inactive)
REMARK       I    between atoms: C_2  and  N_3 
REMARK    1  A    between atoms: C_2  and  C_31 
REMARK    2  A    between atoms: N_3  and  C_4 
REMARK    3  A    between atoms: C_9  and  C_10 
REMARK    4  A    between atoms: C_12  and  N_13 
REMARK    5  A    between atoms: N_13  and  C_14 
ROOT
HETATM    1  C   UNL     1      41.028 -14.629   3.267  1.00  0.00     0.164 A 
HETATM    2  N   UNL     1      40.590 -14.768   2.005  1.00  0.00    -0.210 NA
HETATM    3  C   UNL     1      41.075 -15.784   1.270  1.00  0.00     0.143 A 
HETATM    4  C   UNL     1      42.035 -16.674   1.776  1.00  0.00     0.039 A 
HETATM    5  C   UNL     1      42.623 -17.745   1.052  1.00  0.00     0.018 A 
HETATM    6  C   UNL     1      43.583 -18.564   1.641  1.00  0.00     0.001 A 
HETATM    7  C   UNL     1      43.972 -18.321   2.950  1.00  0.00     0.002 A 
HETATM    8  C   UNL     1      43.397 -17.262   3.658  1.00  0.00     0.032 A 
HETATM    9  C   UNL     1      42.433 -16.436   3.095  1.00  0.00     0.073 A 
HETATM   10  N   UNL     1      41.931 -15.443   3.837  1.00  0.00    -0.228 NA
ENDROOT
BRANCH   1  11
HETATM   11  C   UNL     1      40.488 -13.496   4.058  1.00  0.00     0.039 A 
HETATM   12  C   UNL     1      40.413 -12.155   3.589  1.00  0.00     0.049 A 
HETATM   13  C   UNL     1      39.867 -11.163   4.422  1.00  0.00     0.030 A 
HETATM   14  C   UNL     1      39.401 -11.460   5.704  1.00  0.00     0.002 A 
HETATM   15  C   UNL     1      39.475 -12.757   6.181  1.00  0.00     0.001 A 
HETATM   16  C   UNL     1      40.011 -13.756   5.369  1.00  0.00     0.018 A 
BRANCH  12  17
HETATM   17  N   UNL     1      40.918 -11.828   2.305  1.00  0.00    -0.321 N 
HETATM   18  C   UNL     1      40.246 -11.330   1.205  1.00  0.00     0.274 C 
HETATM   19  O   UNL     1      39.041 -11.128   1.101  1.00  0.00    -0.266 OA
HETATM   20  H   UNL     1      41.917 -11.994   2.157  1.00  0.00     0.169 HD
BRANCH  18  21
HETATM   21  C   UNL     1      41.140 -11.022   0.038  1.00  0.00     0.124 A 
HETATM   22  C   UNL     1      42.310 -11.752  -0.144  1.00  0.00     0.037 A 
HETATM   23  C   UNL     1      43.104 -11.464  -1.250  1.00  0.00     0.004 A 
HETATM   24  C   UNL     1      42.702 -10.469  -2.135  1.00  0.00     0.019 A 
HETATM   25  C   UNL     1      41.520  -9.793  -1.876  1.00  0.00     0.117 A 
HETATM   26  N   UNL     1      40.729 -10.036  -0.808  1.00  0.00    -0.256 NA
ENDBRANCH  18  21
ENDBRANCH  12  17
ENDBRANCH   1  11
BRANCH   3  27
HETATM   27  N   UNL     1      40.585 -15.973  -0.052  1.00  0.00    -0.340 N 
HETATM   28  H   UNL     1      39.753 -16.550  -0.008  1.00  0.00     0.167 HD
BRANCH  27  29
HETATM   29  C   UNL     1      40.502 -15.003  -1.080  1.00  0.00     0.034 A 
HETATM   30  C   UNL     1      41.429 -14.958  -2.131  1.00  0.00     0.032 A 
HETATM   31  C   UNL     1      41.328 -14.039  -3.185  1.00  0.00     0.034 A 
HETATM   32  C   UNL     1      40.237 -13.169  -3.158  1.00  0.00     0.062 A 
HETATM   33  N   UNL     1      39.844 -12.170  -4.009  1.00  0.00    -0.278 N 
HETATM   34  C   UNL     1      39.276 -13.197  -2.156  1.00  0.00     0.013 A 
HETATM   35  H   UNL     1      40.307 -11.865  -4.858  1.00  0.00     0.189 HD
HETATM   36  N   UNL     1      38.706 -11.552  -3.644  1.00  0.00    -0.186 NA
HETATM   37  C   UNL     1      38.364 -12.179  -2.515  1.00  0.00     0.152 A 
HETATM   38  C   UNL     1      39.396 -14.132  -1.111  1.00  0.00     0.044 A 
ENDBRANCH  27  29
ENDBRANCH   3  27
TORSDOF 5
ENDMDL
MODEL 10
REMARK VINA RESULT:      -8.6      2.476      6.993
REMARK  5 active torsions:
REMARK  status: ('A' for Active; 'I' for Inactive)
REMARK       I    between atoms: C_2  and  N_3 
REMARK    1  A    between atoms: C_2  and  C_31 
REMARK    2  A    between atoms: N_3  and  C_4 
REMARK    3  A    between atoms: C_9  and  C_10 
REMARK    4  A    between atoms: C_12  and  N_13 
REMARK    5  A    between atoms: N_13  and  C_14 
ROOT
HETATM    1  C   UNL     1      38.939 -13.002   2.153  1.00  0.00     0.164 A 
HETATM    2  N   UNL     1      39.276 -14.163   2.736  1.00  0.00    -0.210 NA
HETATM    3  C   UNL     1      39.602 -14.151   4.041  1.00  0.00     0.143 A 
HETATM    4  C   UNL     1      39.622 -12.964   4.790  1.00  0.00     0.039 A 
HETATM    5  C   UNL     1      39.990 -12.863   6.157  1.00  0.00     0.018 A 
HETATM    6  C   UNL     1      39.995 -11.631   6.808  1.00  0.00     0.001 A 
HETATM    7  C   UNL     1      39.641 -10.490   6.103  1.00  0.00     0.002 A 
HETATM    8  C   UNL     1      39.285 -10.591   4.755  1.00  0.00     0.032 A 
HETATM    9  C   UNL     1      39.266 -11.809   4.086  1.00  0.00     0.073 A 
HETATM   10  N   UNL     1      38.916 -11.823   2.796  1.00  0.00    -0.228 NA
ENDROOT
BRANCH   1  11
HETATM   11  C   UNL     1      38.593 -13.035   0.711  1.00  0.00     0.039 A 
HETATM   12  C   UNL     1      39.062 -14.019  -0.203  1.00  0.00     0.049 A 
HETATM   13  C   UNL     1      38.656 -13.960  -1.548  1.00  0.00     0.030 A 
HETATM   14  C   UNL     1      37.807 -12.954  -2.011  1.00  0.00     0.002 A 
HETATM   15  C   UNL     1      37.349 -11.982  -1.139  1.00  0.00     0.001 A 
HETATM   16  C   UNL     1      37.738 -12.025   0.199  1.00  0.00     0.018 A 
BRANCH  12  17
HETATM   17  N   UNL     1      39.957 -15.025   0.241  1.00  0.00    -0.321 N 
HETATM   18  C   UNL     1      41.339 -15.032   0.226  1.00  0.00     0.274 C 
HETATM   19  O   UNL     1      42.079 -14.175  -0.243  1.00  0.00    -0.266 OA
HETATM   20  H   UNL     1      39.529 -15.878   0.614  1.00  0.00     0.169 HD
BRANCH  18  21
HETATM   21  C   UNL     1      41.944 -16.247   0.868  1.00  0.00     0.124 A 
HETATM   22  C   UNL     1      41.120 -17.280   1.303  1.00  0.00     0.037 A 
HETATM   23  C   UNL     1      41.712 -18.406   1.867  1.00  0.00     0.004 A 
HETATM   24  C   UNL     1      43.097 -18.466   1.971  1.00  0.00     0.019 A 
HETATM   25  C   UNL     1      43.841 -17.391   1.509  1.00  0.00     0.117 A 
HETATM   26  N   UNL     1      43.303 -16.277   0.967  1.00  0.00    -0.256 NA
ENDBRANCH  18  21
ENDBRANCH  12  17
ENDBRANCH   1  11
BRANCH   3  27
HETATM   27  N   UNL     1      39.914 -15.380   4.684  1.00  0.00    -0.340 N 
HETATM   28  H   UNL     1      39.207 -16.064   4.435  1.00  0.00     0.167 HD
BRANCH  27  29
HETATM   29  C   UNL     1      41.193 -15.970   4.827  1.00  0.00     0.034 A 
HETATM   30  C   UNL     1      42.369 -15.268   4.528  1.00  0.00     0.032 A 
HETATM   31  C   UNL     1      43.643 -15.821   4.717  1.00  0.00     0.034 A 
HETATM   32  C   UNL     1      43.698 -17.112   5.243  1.00  0.00     0.062 A 
HETATM   33  N   UNL     1      44.753 -17.932   5.546  1.00  0.00    -0.278 N 
HETATM   34  C   UNL     1      42.562 -17.835   5.585  1.00  0.00     0.013 A 
HETATM   35  H   UNL     1      45.740 -17.735   5.430  1.00  0.00     0.189 HD
HETATM   36  N   UNL     1      44.395 -19.123   6.059  1.00  0.00    -0.186 NA
HETATM   37  C   UNL     1      43.060 -19.061   6.081  1.00  0.00     0.152 A 
HETATM   38  C   UNL     1      41.293 -17.257   5.391  1.00  0.00     0.044 A 
ENDBRANCH  27  29
ENDBRANCH   3  27
TORSDOF 5
ENDMDL
