MODEL 1
REMARK VINA RESULT:      -8.7      0.000      0.000
REMARK  5 active torsions:
REMARK  status: ('A' for Active; 'I' for Inactive)
REMARK    1  A    between atoms: C_2  and  C_3 
REMARK    2  A    between atoms: C_8  and  C_9 
REMARK       I    between atoms: C_9  and  N_10 
REMARK    3  A    between atoms: N_10  and  C_11 
REMARK    4  A    between atoms: C_11  and  C_12 
REMARK    5  A    between atoms: C_19  and  C_20 
ROOT
HETATM    1  C   UNL     1      40.466 -15.753   2.034  1.00  0.00     0.118 C 
HETATM    2  N   UNL     1      40.405 -15.300   3.420  1.00  0.00    -0.366 N 
HETATM    3  C   UNL     1      41.445 -15.507   4.260  1.00  0.00     0.123 C 
HETATM    4  N   UNL     1      42.458 -16.377   3.953  1.00  0.00    -0.240 N 
HETATM    5  N   UNL     1      43.498 -16.299   4.803  1.00  0.00    -0.165 NA
HETATM    6  C   UNL     1      43.071 -15.446   5.762  1.00  0.00     0.148 C 
HETATM    7  C   UNL     1      41.774 -14.948   5.465  1.00  0.00     0.088 C 
HETATM    8  C   UNL     1      42.556 -17.102   2.699  1.00  0.00     0.221 C 
HETATM    9  C   UNL     1      41.213 -17.090   1.942  1.00  0.00     0.066 C 
HETATM   10  H   UNL     1      39.800 -14.493   3.570  1.00  0.00     0.161 HD
ENDROOT
BRANCH   6  11
HETATM   11  C   UNL     1      43.913 -15.069   6.908  1.00  0.00     0.272 C 
HETATM   12  N   UNL     1      44.493 -13.830   6.775  1.00  0.00    -0.353 N 
HETATM   13  H   UNL     1      44.417 -13.405   5.854  1.00  0.00     0.162 HD
HETATM   14  O   UNL     1      44.066 -15.788   7.890  1.00  0.00    -0.266 OA
BRANCH  12  15
HETATM   15  C   UNL     1      45.417 -13.285   7.745  1.00  0.00     0.155 C 
BRANCH  15  16
HETATM   16  C   UNL     1      44.725 -12.398   8.781  1.00  0.00     0.139 C 
HETATM   17  O   UNL     1      44.353 -13.169   9.941  1.00  0.00    -0.384 OA
HETATM   18  C   UNL     1      44.431 -12.315  11.090  1.00  0.00     0.168 C 
HETATM   19  C   UNL     1      44.972 -10.974  10.631  1.00  0.00     0.029 C 
HETATM   20  C   UNL     1      45.632 -11.305   9.316  1.00  0.00     0.035 C 
ENDBRANCH  15  16
ENDBRANCH  12  15
ENDBRANCH   6  11
BRANCH   8  21
HETATM   21  C   UNL     1      42.997 -18.532   2.923  1.00  0.00     0.409 C 
HETATM   22  F   UNL     1      42.521 -19.044   4.081  1.00  0.00    -0.169 F 
HETATM   23  F   UNL     1      42.511 -19.321   1.925  1.00  0.00    -0.169 F 
HETATM   24  F   UNL     1      44.336 -18.693   2.909  1.00  0.00    -0.169 F 
ENDBRANCH   8  21
BRANCH   1  25
HETATM   25  C   UNL     1      40.992 -14.670   1.102  1.00  0.00    -0.035 A 
HETATM   26  C   UNL     1      41.391 -13.399   1.552  1.00  0.00     0.011 A 
HETATM   27  C   UNL     1      41.868 -12.435   0.659  1.00  0.00     0.024 A 
HETATM   28  C   UNL     1      41.948 -12.726  -0.698  1.00  0.00     0.034 A 
HETATM   29  C   UNL     1      41.558 -13.975  -1.171  1.00  0.00     0.024 A 
HETATM   30 CL   UNL     1      42.524 -11.536  -1.798  1.00  0.00    -0.084 Cl
HETATM   31  C   UNL     1      41.087 -14.941  -0.275  1.00  0.00     0.011 A 
ENDBRANCH   1  25
TORSDOF 5
ENDMDL
MODEL 2
REMARK VINA RESULT:      -8.7      2.227      3.076
REMARK  5 active torsions:
REMARK  status: ('A' for Active; 'I' for Inactive)
REMARK    1  A    between atoms: C_2  and  C_3 
REMARK    2  A    between atoms: C_8  and  C_9 
REMARK       I    between atoms: C_9  and  N_10 
REMARK    3  A    between atoms: N_10  and  C_11 
REMARK    4  A    between atoms: C_11  and  C_12 
REMARK    5  A    between atoms: C_19  and  C_20 
ROOT
HETATM    1  C   UNL     1      41.271 -17.341   4.749  1.00  0.00     0.118 C 
HETATM    2  N   UNL     1      41.375 -16.176   5.621  1.00  0.00    -0.366 N 
HETATM    3  C   UNL     1      42.581 -15.743   6.053  1.00  0.00     0.123 C 
HETATM    4  N   UNL     1      43.708 -16.514   5.939  1.00  0.00    -0.240 N 
HETATM    5  N   UNL     1      44.839 -15.845   6.228  1.00  0.00    -0.165 NA
HETATM    6  C   UNL     1      44.402 -14.645   6.674  1.00  0.00     0.148 C 
HETATM    7  C   UNL     1      42.986 -14.555   6.601  1.00  0.00     0.088 C 
HETATM    8  C   UNL     1      43.740 -17.818   5.301  1.00  0.00     0.221 C 
HETATM    9  C   UNL     1      42.319 -18.392   5.135  1.00  0.00     0.066 C 
HETATM   10  H   UNL     1      40.617 -15.503   5.513  1.00  0.00     0.161 HD
ENDROOT
BRANCH   6  11
HETATM   11  C   UNL     1      45.325 -13.585   7.105  1.00  0.00     0.272 C 
HETATM   12  N   UNL     1      44.998 -13.036   8.322  1.00  0.00    -0.353 N 
HETATM   13  H   UNL     1      44.086 -13.296   8.690  1.00  0.00     0.162 HD
HETATM   14  O   UNL     1      46.300 -13.238   6.445  1.00  0.00    -0.266 OA
BRANCH  12  15
HETATM   15  C   UNL     1      45.722 -11.929   8.907  1.00  0.00     0.155 C 
BRANCH  15  16
HETATM   16  C   UNL     1      44.859 -11.104   9.862  1.00  0.00     0.139 C 
HETATM   17  O   UNL     1      43.699 -10.588   9.179  1.00  0.00    -0.384 OA
HETATM   18  C   UNL     1      42.621 -10.511  10.123  1.00  0.00     0.168 C 
HETATM   19  C   UNL     1      43.113 -11.100  11.431  1.00  0.00     0.029 C 
HETATM   20  C   UNL     1      44.301 -11.927  11.008  1.00  0.00     0.035 C 
ENDBRANCH  15  16
ENDBRANCH  12  15
ENDBRANCH   6  11
BRANCH   8  21
HETATM   21  C   UNL     1      44.591 -18.793   6.084  1.00  0.00     0.409 C 
HETATM   22  F   UNL     1      44.293 -18.796   7.404  1.00  0.00    -0.169 F 
HETATM   23  F   UNL     1      44.365 -20.059   5.635  1.00  0.00    -0.169 F 
HETATM   24  F   UNL     1      45.917 -18.581   5.951  1.00  0.00    -0.169 F 
ENDBRANCH   8  21
BRANCH   1  25
HETATM   25  C   UNL     1      41.277 -16.954   3.276  1.00  0.00    -0.035 A 
HETATM   26  C   UNL     1      41.976 -17.678   2.296  1.00  0.00     0.011 A 
HETATM   27  C   UNL     1      41.953 -17.285   0.954  1.00  0.00     0.024 A 
HETATM   28  C   UNL     1      41.234 -16.158   0.575  1.00  0.00     0.034 A 
HETATM   29  C   UNL     1      40.533 -15.421   1.525  1.00  0.00     0.024 A 
HETATM   30 CL   UNL     1      41.214 -15.667  -1.074  1.00  0.00    -0.084 Cl
HETATM   31  C   UNL     1      40.551 -15.820   2.866  1.00  0.00     0.011 A 
ENDBRANCH   1  25
TORSDOF 5
ENDMDL
MODEL 3
REMARK VINA RESULT:      -8.6      4.812      8.633
REMARK  5 active torsions:
REMARK  status: ('A' for Active; 'I' for Inactive)
REMARK    1  A    between atoms: C_2  and  C_3 
REMARK    2  A    between atoms: C_8  and  C_9 
REMARK       I    between atoms: C_9  and  N_10 
REMARK    3  A    between atoms: N_10  and  C_11 
REMARK    4  A    between atoms: C_11  and  C_12 
REMARK    5  A    between atoms: C_19  and  C_20 
ROOT
HETATM    1  C   UNL     1      41.822 -17.379   4.286  1.00  0.00     0.118 C 
HETATM    2  N   UNL     1      40.825 -16.864   3.354  1.00  0.00    -0.366 N 
HETATM    3  C   UNL     1      41.113 -15.823   2.541  1.00  0.00     0.123 C 
HETATM    4  N   UNL     1      42.216 -15.034   2.741  1.00  0.00    -0.240 N 
HETATM    5  N   UNL     1      42.452 -14.186   1.725  1.00  0.00    -0.165 NA
HETATM    6  C   UNL     1      41.383 -14.346   0.912  1.00  0.00     0.148 C 
HETATM    7  C   UNL     1      40.508 -15.350   1.408  1.00  0.00     0.088 C 
HETATM    8  C   UNL     1      43.203 -15.266   3.781  1.00  0.00     0.221 C 
HETATM    9  C   UNL     1      42.664 -16.231   4.855  1.00  0.00     0.066 C 
HETATM   10  H   UNL     1      40.140 -17.555   3.049  1.00  0.00     0.161 HD
ENDROOT
BRANCH   6  11
HETATM   11  C   UNL     1      41.233 -13.595  -0.344  1.00  0.00     0.272 C 
HETATM   12  N   UNL     1      41.463 -14.357  -1.465  1.00  0.00    -0.353 N 
HETATM   13  H   UNL     1      41.868 -15.274  -1.299  1.00  0.00     0.162 HD
HETATM   14  O   UNL     1      40.917 -12.410  -0.381  1.00  0.00    -0.266 OA
BRANCH  12  15
HETATM   15  C   UNL     1      41.443 -13.811  -2.805  1.00  0.00     0.155 C 
BRANCH  15  16
HETATM   16  C   UNL     1      40.230 -14.277  -3.610  1.00  0.00     0.139 C 
HETATM   17  O   UNL     1      40.348 -15.676  -3.939  1.00  0.00    -0.384 OA
HETATM   18  C   UNL     1      39.029 -16.239  -3.979  1.00  0.00     0.168 C 
HETATM   19  C   UNL     1      38.054 -15.156  -3.558  1.00  0.00     0.029 C 
HETATM   20  C   UNL     1      38.932 -14.169  -2.831  1.00  0.00     0.035 C 
ENDBRANCH  15  16
ENDBRANCH  12  15
ENDBRANCH   6  11
BRANCH   8  21
HETATM   21  C   UNL     1      43.628 -13.968   4.434  1.00  0.00     0.409 C 
HETATM   22  F   UNL     1      43.933 -14.125   5.743  1.00  0.00    -0.169 F 
HETATM   23  F   UNL     1      44.755 -13.501   3.829  1.00  0.00    -0.169 F 
HETATM   24  F   UNL     1      42.712 -12.985   4.328  1.00  0.00    -0.169 F 
ENDBRANCH   8  21
BRANCH   1  25
HETATM   25  C   UNL     1      42.633 -18.518   3.682  1.00  0.00    -0.035 A 
HETATM   26  C   UNL     1      42.455 -18.970   2.363  1.00  0.00     0.011 A 
HETATM   27  C   UNL     1      43.223 -20.020   1.850  1.00  0.00     0.024 A 
HETATM   28  C   UNL     1      44.177 -20.636   2.651  1.00  0.00     0.034 A 
HETATM   29  C   UNL     1      44.374 -20.210   3.961  1.00  0.00     0.024 A 
HETATM   30 CL   UNL     1      45.115 -21.935   2.024  1.00  0.00    -0.084 Cl
HETATM   31  C   UNL     1      43.609 -19.155   4.471  1.00  0.00     0.011 A 
ENDBRANCH   1  25
TORSDOF 5
ENDMDL
MODEL 4
REMARK VINA RESULT:      -8.4      4.525      8.495
REMARK  5 active torsions:
REMARK  status: ('A' for Active; 'I' for Inactive)
REMARK    1  A    between atoms: C_2  and  C_3 
REMARK    2  A    between atoms: C_8  and  C_9 
REMARK       I    between atoms: C_9  and  N_10 
REMARK    3  A    between atoms: N_10  and  C_11 
REMARK    4  A    between atoms: C_11  and  C_12 
REMARK    5  A    between atoms: C_19  and  C_20 
ROOT
HETATM    1  C   UNL     1      42.356 -17.410   6.666  1.00  0.00     0.118 C 
HETATM    2  N   UNL     1      41.441 -16.903   5.649  1.00  0.00    -0.366 N 
HETATM    3  C   UNL     1      41.832 -15.935   4.789  1.00  0.00     0.123 C 
HETATM    4  N   UNL     1      42.968 -15.198   5.001  1.00  0.00    -0.240 N 
HETATM    5  N   UNL     1      43.306 -14.433   3.947  1.00  0.00    -0.165 NA
HETATM    6  C   UNL     1      42.273 -14.587   3.088  1.00  0.00     0.148 C 
HETATM    7  C   UNL     1      41.316 -15.506   3.596  1.00  0.00     0.088 C 
HETATM    8  C   UNL     1      43.883 -15.414   6.107  1.00  0.00     0.221 C 
HETATM    9  C   UNL     1      43.233 -16.274   7.208  1.00  0.00     0.066 C 
HETATM   10  H   UNL     1      40.734 -17.574   5.351  1.00  0.00     0.161 HD
ENDROOT
BRANCH   6  11
HETATM   11  C   UNL     1      42.233 -13.915   1.780  1.00  0.00     0.272 C 
HETATM   12  N   UNL     1      41.765 -14.718   0.767  1.00  0.00    -0.353 N 
HETATM   13  H   UNL     1      41.670 -15.704   0.996  1.00  0.00     0.162 HD
HETATM   14  O   UNL     1      42.571 -12.747   1.618  1.00  0.00    -0.266 OA
BRANCH  12  15
HETATM   15  C   UNL     1      41.709 -14.291  -0.614  1.00  0.00     0.155 C 
BRANCH  15  16
HETATM   16  C   UNL     1      40.598 -14.991  -1.399  1.00  0.00     0.139 C 
HETATM   17  O   UNL     1      39.536 -14.067  -1.707  1.00  0.00    -0.384 OA
HETATM   18  C   UNL     1      38.960 -14.450  -2.964  1.00  0.00     0.168 C 
HETATM   19  C   UNL     1      39.770 -15.613  -3.505  1.00  0.00     0.029 C 
HETATM   20  C   UNL     1      41.068 -15.507  -2.746  1.00  0.00     0.035 C 
ENDBRANCH  15  16
ENDBRANCH  12  15
ENDBRANCH   6  11
BRANCH   8  21
HETATM   21  C   UNL     1      44.350 -14.102   6.699  1.00  0.00     0.409 C 
HETATM   22  F   UNL     1      44.694 -14.217   8.002  1.00  0.00    -0.169 F 
HETATM   23  F   UNL     1      45.464 -13.675   6.042  1.00  0.00    -0.169 F 
HETATM   24  F   UNL     1      43.446 -13.107   6.587  1.00  0.00    -0.169 F 
ENDBRANCH   8  21
BRANCH   1  25
HETATM   25  C   UNL     1      43.129 -18.629   6.182  1.00  0.00    -0.035 A 
HETATM   26  C   UNL     1      43.646 -18.742   4.880  1.00  0.00     0.011 A 
HETATM   27  C   UNL     1      44.350 -19.881   4.478  1.00  0.00     0.024 A 
HETATM   28  C   UNL     1      44.542 -20.927   5.373  1.00  0.00     0.034 A 
HETATM   29  C   UNL     1      44.040 -20.843   6.668  1.00  0.00     0.024 A 
HETATM   30 CL   UNL     1      45.398 -22.334   4.877  1.00  0.00    -0.084 Cl
HETATM   31  C   UNL     1      43.341 -19.700   7.070  1.00  0.00     0.011 A 
ENDBRANCH   1  25
TORSDOF 5
ENDMDL
MODEL 5
REMARK VINA RESULT:      -8.3      5.096      8.335
REMARK  5 active torsions:
REMARK  status: ('A' for Active; 'I' for Inactive)
REMARK    1  A    between atoms: C_2  and  C_3 
REMARK    2  A    between atoms: C_8  and  C_9 
REMARK       I    between atoms: C_9  and  N_10 
REMARK    3  A    between atoms: N_10  and  C_11 
REMARK    4  A    between atoms: C_11  and  C_12 
REMARK    5  A    between atoms: C_19  and  C_20 
ROOT
HETATM    1  C   UNL     1      42.193 -17.315   4.587  1.00  0.00     0.118 C 
HETATM    2  N   UNL     1      40.874 -17.057   4.021  1.00  0.00    -0.366 N 
HETATM    3  C   UNL     1      40.716 -16.168   3.015  1.00  0.00     0.123 C 
HETATM    4  N   UNL     1      41.701 -15.277   2.678  1.00  0.00    -0.240 N 
HETATM    5  N   UNL     1      41.450 -14.618   1.532  1.00  0.00    -0.165 NA
HETATM    6  C   UNL     1      40.197 -15.005   1.202  1.00  0.00     0.148 C 
HETATM    7  C   UNL     1      39.695 -15.960   2.126  1.00  0.00     0.088 C 
HETATM    8  C   UNL     1      43.010 -15.237   3.305  1.00  0.00     0.221 C 
HETATM    9  C   UNL     1      43.017 -16.022   4.632  1.00  0.00     0.066 C 
HETATM   10  H   UNL     1      40.226 -17.842   4.094  1.00  0.00     0.161 HD
ENDROOT
BRANCH   6  11
HETATM   11  C   UNL     1      39.518 -14.515  -0.007  1.00  0.00     0.272 C 
HETATM   12  N   UNL     1      40.146 -14.884  -1.173  1.00  0.00    -0.353 N 
HETATM   13  H   UNL     1      41.072 -15.290  -1.065  1.00  0.00     0.162 HD
HETATM   14  O   UNL     1      38.484 -13.856   0.027  1.00  0.00    -0.266 OA
BRANCH  12  15
HETATM   15  C   UNL     1      39.696 -14.454  -2.479  1.00  0.00     0.155 C 
BRANCH  15  16
HETATM   16  C   UNL     1      40.806 -13.782  -3.288  1.00  0.00     0.139 C 
HETATM   17  O   UNL     1      40.315 -12.583  -3.923  1.00  0.00    -0.384 OA
HETATM   18  C   UNL     1      41.396 -11.643  -4.001  1.00  0.00     0.168 C 
HETATM   19  C   UNL     1      42.589 -12.255  -3.292  1.00  0.00     0.029 C 
HETATM   20  C   UNL     1      41.963 -13.317  -2.424  1.00  0.00     0.035 C 
ENDBRANCH  15  16
ENDBRANCH  12  15
ENDBRANCH   6  11
BRANCH   8  21
HETATM   21  C   UNL     1      43.456 -13.813   3.557  1.00  0.00     0.409 C 
HETATM   22  F   UNL     1      43.096 -12.974   2.559  1.00  0.00    -0.169 F 
HETATM   23  F   UNL     1      42.862 -13.343   4.689  1.00  0.00    -0.169 F 
HETATM   24  F   UNL     1      44.785 -13.691   3.754  1.00  0.00    -0.169 F 
ENDBRANCH   8  21
BRANCH   1  25
HETATM   25  C   UNL     1      42.889 -18.484   3.902  1.00  0.00    -0.035 A 
HETATM   26  C   UNL     1      43.885 -19.255   4.526  1.00  0.00     0.011 A 
HETATM   27  C   UNL     1      44.497 -20.320   3.858  1.00  0.00     0.024 A 
HETATM   28  C   UNL     1      44.125 -20.626   2.554  1.00  0.00     0.034 A 
HETATM   29  C   UNL     1      43.143 -19.879   1.912  1.00  0.00     0.024 A 
HETATM   30 CL   UNL     1      44.886 -21.929   1.728  1.00  0.00    -0.084 Cl
HETATM   31  C   UNL     1      42.527 -18.817   2.584  1.00  0.00     0.011 A 
ENDBRANCH   1  25
TORSDOF 5
ENDMDL
MODEL 6
REMARK VINA RESULT:      -8.2      4.084      5.638
REMARK  5 active torsions:
REMARK  status: ('A' for Active; 'I' for Inactive)
REMARK    1  A    between atoms: C_2  and  C_3 
REMARK    2  A    between atoms: C_8  and  C_9 
REMARK       I    between atoms: C_9  and  N_10 
REMARK    3  A    between atoms: N_10  and  C_11 
REMARK    4  A    between atoms: C_11  and  C_12 
REMARK    5  A    between atoms: C_19  and  C_20 
ROOT
HETATM    1  C   UNL     1      43.588 -16.310   3.676  1.00  0.00     0.118 C 
HETATM    2  N   UNL     1      43.498 -15.026   4.363  1.00  0.00    -0.366 N 
HETATM    3  C   UNL     1      42.296 -14.448   4.590  1.00  0.00     0.123 C 
HETATM    4  N   UNL     1      41.159 -14.875   3.955  1.00  0.00    -0.240 N 
HETATM    5  N   UNL     1      40.037 -14.326   4.454  1.00  0.00    -0.165 NA
HETATM    6  C   UNL     1      40.489 -13.415   5.346  1.00  0.00     0.148 C 
HETATM    7  C   UNL     1      41.906 -13.448   5.438  1.00  0.00     0.088 C 
HETATM    8  C   UNL     1      41.111 -16.005   3.046  1.00  0.00     0.221 C 
HETATM    9  C   UNL     1      42.524 -16.403   2.576  1.00  0.00     0.066 C 
HETATM   10  H   UNL     1      44.265 -14.841   5.008  1.00  0.00     0.161 HD
ENDROOT
BRANCH   6  11
HETATM   11  C   UNL     1      39.578 -12.573   6.137  1.00  0.00     0.272 C 
HETATM   12  N   UNL     1      40.104 -12.189   7.348  1.00  0.00    -0.353 N 
HETATM   13  H   UNL     1      40.962 -12.660   7.624  1.00  0.00     0.162 HD
HETATM   14  O   UNL     1      38.466 -12.237   5.743  1.00  0.00    -0.266 OA
BRANCH  12  15
HETATM   15  C   UNL     1      39.359 -11.420   8.321  1.00  0.00     0.155 C 
BRANCH  15  16
HETATM   16  C   UNL     1      40.267 -10.601   9.239  1.00  0.00     0.139 C 
HETATM   17  O   UNL     1      40.416 -11.252  10.517  1.00  0.00    -0.384 OA
HETATM   18  C   UNL     1      41.726 -10.956  11.021  1.00  0.00     0.168 C 
HETATM   19  C   UNL     1      42.458 -10.160   9.957  1.00  0.00     0.029 C 
HETATM   20  C   UNL     1      41.680 -10.470   8.703  1.00  0.00     0.035 C 
ENDBRANCH  15  16
ENDBRANCH  12  15
ENDBRANCH   6  11
BRANCH   8  21
HETATM   21  C   UNL     1      40.243 -15.707   1.842  1.00  0.00     0.409 C 
HETATM   22  F   UNL     1      40.374 -14.430   1.415  1.00  0.00    -0.169 F 
HETATM   23  F   UNL     1      40.617 -16.502   0.801  1.00  0.00    -0.169 F 
HETATM   24  F   UNL     1      38.933 -15.952   2.047  1.00  0.00    -0.169 F 
ENDBRANCH   8  21
BRANCH   1  25
HETATM   25  C   UNL     1      43.593 -17.480   4.651  1.00  0.00    -0.035 A 
HETATM   26  C   UNL     1      43.154 -17.370   5.982  1.00  0.00     0.011 A 
HETATM   27  C   UNL     1      43.176 -18.472   6.843  1.00  0.00     0.024 A 
HETATM   28  C   UNL     1      43.643 -19.699   6.385  1.00  0.00     0.034 A 
HETATM   29  C   UNL     1      44.085 -19.836   5.073  1.00  0.00     0.024 A 
HETATM   30 CL   UNL     1      43.681 -21.052   7.446  1.00  0.00    -0.084 Cl
HETATM   31  C   UNL     1      44.056 -18.734   4.211  1.00  0.00     0.011 A 
ENDBRANCH   1  25
TORSDOF 5
ENDMDL
MODEL 7
REMARK VINA RESULT:      -8.1      4.834      8.019
REMARK  5 active torsions:
REMARK  status: ('A' for Active; 'I' for Inactive)
REMARK    1  A    between atoms: C_2  and  C_3 
REMARK    2  A    between atoms: C_8  and  C_9 
REMARK       I    between atoms: C_9  and  N_10 
REMARK    3  A    between atoms: N_10  and  C_11 
REMARK    4  A    between atoms: C_11  and  C_12 
REMARK    5  A    between atoms: C_19  and  C_20 
ROOT
HETATM    1  C   UNL     1      41.977 -17.317   5.688  1.00  0.00     0.118 C 
HETATM    2  N   UNL     1      41.017 -17.176   4.599  1.00  0.00    -0.366 N 
HETATM    3  C   UNL     1      41.312 -16.431   3.510  1.00  0.00     0.123 C 
HETATM    4  N   UNL     1      42.371 -15.562   3.496  1.00  0.00    -0.240 N 
HETATM    5  N   UNL     1      42.634 -15.066   2.273  1.00  0.00    -0.165 NA
HETATM    6  C   UNL     1      41.620 -15.532   1.509  1.00  0.00     0.148 C 
HETATM    7  C   UNL     1      40.756 -16.374   2.260  1.00  0.00     0.088 C 
HETATM    8  C   UNL     1      43.304 -15.399   4.597  1.00  0.00     0.221 C 
HETATM    9  C   UNL     1      42.741 -16.003   5.898  1.00  0.00     0.066 C 
HETATM   10  H   UNL     1      40.378 -17.965   4.501  1.00  0.00     0.161 HD
ENDROOT
BRANCH   6  11
HETATM   11  C   UNL     1      41.514 -15.226   0.074  1.00  0.00     0.272 C 
HETATM   12  N   UNL     1      41.756 -13.906  -0.222  1.00  0.00    -0.353 N 
HETATM   13  H   UNL     1      41.805 -13.278   0.577  1.00  0.00     0.162 HD
HETATM   14  O   UNL     1      41.251 -16.074  -0.773  1.00  0.00    -0.266 OA
BRANCH  12  15
HETATM   15  C   UNL     1      41.636 -13.363  -1.558  1.00  0.00     0.155 C 
BRANCH  15  16
HETATM   16  C   UNL     1      41.854 -11.850  -1.598  1.00  0.00     0.139 C 
HETATM   17  O   UNL     1      42.834 -11.454  -0.618  1.00  0.00    -0.384 OA
HETATM   18  C   UNL     1      43.545 -10.318  -1.129  1.00  0.00     0.168 C 
HETATM   19  C   UNL     1      43.044 -10.058  -2.537  1.00  0.00     0.029 C 
HETATM   20  C   UNL     1      42.416 -11.374  -2.924  1.00  0.00     0.035 C 
ENDBRANCH  15  16
ENDBRANCH  12  15
ENDBRANCH   6  11
BRANCH   8  21
HETATM   21  C   UNL     1      43.642 -13.941   4.821  1.00  0.00     0.409 C 
HETATM   22  F   UNL     1      44.260 -13.730   6.005  1.00  0.00    -0.169 F 
HETATM   23  F   UNL     1      44.504 -13.518   3.855  1.00  0.00    -0.169 F 
HETATM   24  F   UNL     1      42.573 -13.122   4.751  1.00  0.00    -0.169 F 
ENDBRANCH   8  21
BRANCH   1  25
HETATM   25  C   UNL     1      42.864 -18.542   5.513  1.00  0.00    -0.035 A 
HETATM   26  C   UNL     1      43.450 -18.895   4.285  1.00  0.00     0.011 A 
HETATM   27  C   UNL     1      44.258 -20.031   4.171  1.00  0.00     0.024 A 
HETATM   28  C   UNL     1      44.487 -20.832   5.283  1.00  0.00     0.034 A 
HETATM   29  C   UNL     1      43.919 -20.507   6.510  1.00  0.00     0.024 A 
HETATM   30 CL   UNL     1      45.472 -22.235   5.141  1.00  0.00    -0.084 Cl
HETATM   31  C   UNL     1      43.116 -19.367   6.625  1.00  0.00     0.011 A 
ENDBRANCH   1  25
TORSDOF 5
ENDMDL
MODEL 8
REMARK VINA RESULT:      -8.1      5.105      6.922
REMARK  5 active torsions:
REMARK  status: ('A' for Active; 'I' for Inactive)
REMARK    1  A    between atoms: C_2  and  C_3 
REMARK    2  A    between atoms: C_8  and  C_9 
REMARK       I    between atoms: C_9  and  N_10 
REMARK    3  A    between atoms: N_10  and  C_11 
REMARK    4  A    between atoms: C_11  and  C_12 
REMARK    5  A    between atoms: C_19  and  C_20 
ROOT
HETATM    1  C   UNL     1      38.231 -14.131   1.117  1.00  0.00     0.118 C 
HETATM    2  N   UNL     1      38.712 -15.332   1.791  1.00  0.00    -0.366 N 
HETATM    3  C   UNL     1      39.980 -15.767   1.606  1.00  0.00     0.123 C 
HETATM    4  N   UNL     1      40.765 -15.290   0.588  1.00  0.00    -0.240 N 
HETATM    5  N   UNL     1      42.049 -15.678   0.684  1.00  0.00    -0.165 NA
HETATM    6  C   UNL     1      42.050 -16.544   1.723  1.00  0.00     0.148 C 
HETATM    7  C   UNL     1      40.760 -16.642   2.311  1.00  0.00     0.088 C 
HETATM    8  C   UNL     1      40.354 -14.248  -0.335  1.00  0.00     0.221 C 
HETATM    9  C   UNL     1      38.828 -14.035  -0.293  1.00  0.00     0.066 C 
HETATM   10  H   UNL     1      38.245 -15.531   2.675  1.00  0.00     0.161 HD
ENDROOT
BRANCH   6  11
HETATM   11  C   UNL     1      43.275 -17.218   2.182  1.00  0.00     0.272 C 
HETATM   12  N   UNL     1      43.046 -18.170   3.146  1.00  0.00    -0.353 N 
HETATM   13  H   UNL     1      42.110 -18.176   3.545  1.00  0.00     0.162 HD
HETATM   14  O   UNL     1      44.387 -16.961   1.732  1.00  0.00    -0.266 OA
BRANCH  12  15
HETATM   15  C   UNL     1      44.110 -18.905   3.795  1.00  0.00     0.155 C 
BRANCH  15  16
HETATM   16  C   UNL     1      44.589 -20.097   2.965  1.00  0.00     0.139 C 
HETATM   17  O   UNL     1      44.827 -21.240   3.811  1.00  0.00    -0.384 OA
HETATM   18  C   UNL     1      44.531 -22.424   3.058  1.00  0.00     0.168 C 
HETATM   19  C   UNL     1      43.991 -21.988   1.709  1.00  0.00     0.029 C 
HETATM   20  C   UNL     1      43.553 -20.566   1.961  1.00  0.00     0.035 C 
ENDBRANCH  15  16
ENDBRANCH  12  15
ENDBRANCH   6  11
BRANCH   8  21
HETATM   21  C   UNL     1      40.781 -14.568  -1.751  1.00  0.00     0.409 C 
HETATM   22  F   UNL     1      42.000 -14.064  -2.050  1.00  0.00    -0.169 F 
HETATM   23  F   UNL     1      40.874 -15.918  -1.906  1.00  0.00    -0.169 F 
HETATM   24  F   UNL     1      39.907 -14.145  -2.687  1.00  0.00    -0.169 F 
ENDBRANCH   8  21
BRANCH   1  25
HETATM   25  C   UNL     1      38.420 -12.883   1.969  1.00  0.00    -0.035 A 
HETATM   26  C   UNL     1      37.793 -11.658   1.685  1.00  0.00     0.011 A 
HETATM   27  C   UNL     1      37.995 -10.538   2.497  1.00  0.00     0.024 A 
HETATM   28  C   UNL     1      38.834 -10.626   3.602  1.00  0.00     0.034 A 
HETATM   29  C   UNL     1      39.470 -11.825   3.906  1.00  0.00     0.024 A 
HETATM   30 CL   UNL     1      39.093  -9.245   4.594  1.00  0.00    -0.084 Cl
HETATM   31  C   UNL     1      39.260 -12.947   3.097  1.00  0.00     0.011 A 
ENDBRANCH   1  25
TORSDOF 5
ENDMDL
MODEL 9
REMARK VINA RESULT:      -8.1      4.175      7.123
REMARK  5 active torsions:
REMARK  status: ('A' for Active; 'I' for Inactive)
REMARK    1  A    between atoms: C_2  and  C_3 
REMARK    2  A    between atoms: C_8  and  C_9 
REMARK       I    between atoms: C_9  and  N_10 
REMARK    3  A    between atoms: N_10  and  C_11 
REMARK    4  A    between atoms: C_11  and  C_12 
REMARK    5  A    between atoms: C_19  and  C_20 
ROOT
HETATM    1  C   UNL     1      39.662 -12.994   5.432  1.00  0.00     0.118 C 
HETATM    2  N   UNL     1      39.545 -14.400   5.804  1.00  0.00    -0.366 N 
HETATM    3  C   UNL     1      40.618 -15.220   5.748  1.00  0.00     0.123 C 
HETATM    4  N   UNL     1      41.764 -14.865   5.086  1.00  0.00    -0.240 N 
HETATM    5  N   UNL     1      42.788 -15.708   5.309  1.00  0.00    -0.165 NA
HETATM    6  C   UNL     1      42.233 -16.710   6.028  1.00  0.00     0.148 C 
HETATM    7  C   UNL     1      40.864 -16.448   6.302  1.00  0.00     0.088 C 
HETATM    8  C   UNL     1      41.968 -13.577   4.447  1.00  0.00     0.221 C 
HETATM    9  C   UNL     1      40.632 -12.833   4.255  1.00  0.00     0.066 C 
HETATM   10  H   UNL     1      38.809 -14.593   6.484  1.00  0.00     0.161 HD
ENDROOT
BRANCH   6  11
HETATM   11  C   UNL     1      43.014 -17.865   6.497  1.00  0.00     0.272 C 
HETATM   12  N   UNL     1      43.706 -18.499   5.492  1.00  0.00    -0.353 N 
HETATM   13  H   UNL     1      43.468 -18.214   4.546  1.00  0.00     0.162 HD
HETATM   14  O   UNL     1      43.053 -18.214   7.672  1.00  0.00    -0.266 OA
BRANCH  12  15
HETATM   15  C   UNL     1      44.482 -19.701   5.708  1.00  0.00     0.155 C 
BRANCH  15  16
HETATM   16  C   UNL     1      44.933 -20.351   4.399  1.00  0.00     0.139 C 
HETATM   17  O   UNL     1      44.793 -21.784   4.471  1.00  0.00    -0.384 OA
HETATM   18  C   UNL     1      44.483 -22.269   3.157  1.00  0.00     0.168 C 
HETATM   19  C   UNL     1      44.328 -21.066   2.247  1.00  0.00     0.029 C 
HETATM   20  C   UNL     1      44.081 -19.936   3.215  1.00  0.00     0.035 C 
ENDBRANCH  15  16
ENDBRANCH  12  15
ENDBRANCH   6  11
BRANCH   8  21
HETATM   21  C   UNL     1      42.658 -13.729   3.109  1.00  0.00     0.409 C 
HETATM   22  F   UNL     1      42.184 -14.779   2.399  1.00  0.00    -0.169 F 
HETATM   23  F   UNL     1      42.435 -12.620   2.351  1.00  0.00    -0.169 F 
HETATM   24  F   UNL     1      43.998 -13.854   3.204  1.00  0.00    -0.169 F 
ENDBRANCH   8  21
BRANCH   1  25
HETATM   25  C   UNL     1      39.972 -12.110   6.632  1.00  0.00    -0.035 A 
HETATM   26  C   UNL     1      39.230 -12.148   7.826  1.00  0.00     0.011 A 
HETATM   27  C   UNL     1      39.552 -11.317   8.903  1.00  0.00     0.024 A 
HETATM   28  C   UNL     1      40.618 -10.431   8.800  1.00  0.00     0.034 A 
HETATM   29  C   UNL     1      41.368 -10.370   7.630  1.00  0.00     0.024 A 
HETATM   30 CL   UNL     1      41.007  -9.400  10.121  1.00  0.00    -0.084 Cl
HETATM   31  C   UNL     1      41.050 -11.208   6.556  1.00  0.00     0.011 A 
ENDBRANCH   1  25
TORSDOF 5
ENDMDL
MODEL 10
REMARK VINA RESULT:      -8.0      4.183      7.718
REMARK  5 active torsions:
REMARK  status: ('A' for Active; 'I' for Inactive)
REMARK    1  A    between atoms: C_2  and  C_3 
REMARK    2  A    between atoms: C_8  and  C_9 
REMARK       I    between atoms: C_9  and  N_10 
REMARK    3  A    between atoms: N_10  and  C_11 
REMARK    4  A    between atoms: C_11  and  C_12 
REMARK    5  A    between atoms: C_19  and  C_20 
ROOT
HETATM    1  C   UNL     1      42.093 -17.337   5.691  1.00  0.00     0.118 C 
HETATM    2  N   UNL     1      41.096 -16.558   4.965  1.00  0.00    -0.366 N 
HETATM    3  C   UNL     1      41.419 -15.368   4.410  1.00  0.00     0.123 C 
HETATM    4  N   UNL     1      42.578 -14.712   4.734  1.00  0.00    -0.240 N 
HETATM    5  N   UNL     1      42.829 -13.657   3.939  1.00  0.00    -0.165 NA
HETATM    6  C   UNL     1      41.721 -13.557   3.170  1.00  0.00     0.148 C 
HETATM    7  C   UNL     1      40.802 -14.603   3.457  1.00  0.00     0.088 C 
HETATM    8  C   UNL     1      43.588 -15.242   5.633  1.00  0.00     0.221 C 
HETATM    9  C   UNL     1      43.030 -16.408   6.473  1.00  0.00     0.066 C 
HETATM   10  H   UNL     1      40.356 -17.117   4.540  1.00  0.00     0.161 HD
ENDROOT
BRANCH   6  11
HETATM   11  C   UNL     1      41.571 -12.518   2.141  1.00  0.00     0.272 C 
HETATM   12  N   UNL     1      42.117 -12.868   0.928  1.00  0.00    -0.353 N 
HETATM   13  H   UNL     1      42.697 -13.703   0.932  1.00  0.00     0.162 HD
HETATM   14  O   UNL     1      40.999 -11.452   2.344  1.00  0.00    -0.266 OA
BRANCH  12  15
HETATM   15  C   UNL     1      42.151 -11.972  -0.207  1.00  0.00     0.155 C 
BRANCH  15  16
HETATM   16  C   UNL     1      42.202 -12.719  -1.541  1.00  0.00     0.139 C 
HETATM   17  O   UNL     1      41.759 -14.081  -1.376  1.00  0.00    -0.384 OA
HETATM   18  C   UNL     1      41.116 -14.494  -2.590  1.00  0.00     0.168 C 
HETATM   19  C   UNL     1      41.074 -13.294  -3.518  1.00  0.00     0.029 C 
HETATM   20  C   UNL     1      41.265 -12.130  -2.579  1.00  0.00     0.035 C 
ENDBRANCH  15  16
ENDBRANCH  12  15
ENDBRANCH   6  11
BRANCH   8  21
HETATM   21  C   UNL     1      44.122 -14.166   6.554  1.00  0.00     0.409 C 
HETATM   22  F   UNL     1      43.250 -13.145   6.718  1.00  0.00    -0.169 F 
HETATM   23  F   UNL     1      44.338 -14.691   7.792  1.00  0.00    -0.169 F 
HETATM   24  F   UNL     1      45.304 -13.653   6.156  1.00  0.00    -0.169 F 
ENDBRANCH   8  21
BRANCH   1  25
HETATM   25  C   UNL     1      42.803 -18.337   4.789  1.00  0.00    -0.035 A 
HETATM   26  C   UNL     1      43.762 -19.250   5.262  1.00  0.00     0.011 A 
HETATM   27  C   UNL     1      44.389 -20.152   4.396  1.00  0.00     0.024 A 
HETATM   28  C   UNL     1      44.070 -20.149   3.043  1.00  0.00     0.034 A 
HETATM   29  C   UNL     1      43.126 -19.255   2.548  1.00  0.00     0.024 A 
HETATM   30 CL   UNL     1      44.849 -21.250   1.976  1.00  0.00    -0.084 Cl
HETATM   31  C   UNL     1      42.494 -18.359   3.416  1.00  0.00     0.011 A 
ENDBRANCH   1  25
TORSDOF 5
ENDMDL
