MODEL 1
REMARK VINA RESULT:      -8.4      0.000      0.000
REMARK  5 active torsions:
REMARK  status: ('A' for Active; 'I' for Inactive)
REMARK    1  A    between atoms: C_2  and  C_3 
REMARK    2  A    between atoms: C_2  and  C_18 
REMARK       I    between atoms: C_3  and  N_4 
REMARK    3  A    between atoms: N_4  and  C_5 
REMARK    4  A    between atoms: C_7  and  C_8 
REMARK    5  A    between atoms: C_18  and  C_19 
ROOT
HETATM    1  C   UNL     1      42.593 -16.723   4.060  1.00  0.00     0.226 C 
HETATM    2  N   UNL     1      41.567 -17.031   3.177  1.00  0.00    -0.327 N 
HETATM    3  O   UNL     1      43.225 -15.672   4.061  1.00  0.00    -0.273 OA
HETATM    4  H   UNL     1      41.292 -18.004   3.118  1.00  0.00     0.169 HD
ENDROOT
BRANCH   2   5
HETATM    5  C   UNL     1      40.937 -16.158   2.264  1.00  0.00     0.035 A 
HETATM    6  C   UNL     1      41.334 -16.017   0.930  1.00  0.00     0.042 A 
HETATM    7  C   UNL     1      40.697 -15.104   0.068  1.00  0.00    -0.021 A 
HETATM    8  C   UNL     1      39.635 -14.341   0.577  1.00  0.00     0.012 A 
HETATM    9  C   UNL     1      39.236 -14.472   1.908  1.00  0.00     0.003 A 
HETATM   10  C   UNL     1      39.892 -15.368   2.750  1.00  0.00     0.029 A 
BRANCH   7  11
HETATM   11  C   UNL     1      41.131 -14.927  -1.314  1.00  0.00     0.010 A 
HETATM   12  C   UNL     1      40.887 -15.709  -2.472  1.00  0.00     0.152 A 
HETATM   13  N   UNL     1      41.453 -15.208  -3.574  1.00  0.00    -0.187 NA
HETATM   14  N   UNL     1      42.065 -14.100  -3.130  1.00  0.00    -0.289 N 
HETATM   15  H   UNL     1      42.575 -13.531  -3.798  1.00  0.00     0.188 HD
HETATM   16  C   UNL     1      41.905 -13.888  -1.792  1.00  0.00     0.123 A 
ENDBRANCH   7  11
ENDBRANCH   2   5
BRANCH   1  17
HETATM   17  C   UNL     1      42.908 -17.882   5.016  1.00  0.00     0.078 C 
HETATM   18  C   UNL     1      42.694 -17.467   6.473  1.00  0.00     0.020 C 
BRANCH  17  19
HETATM   19  C   UNL     1      44.290 -18.523   4.763  1.00  0.00     0.052 C 
BRANCH  19  20
HETATM   20  C   UNL     1      44.329 -19.825   3.995  1.00  0.00    -0.057 A 
HETATM   21  C   UNL     1      44.705 -21.019   4.627  1.00  0.00     0.007 A 
HETATM   22  C   UNL     1      44.727 -22.223   3.919  1.00  0.00     0.001 A 
HETATM   23  C   UNL     1      44.366 -22.250   2.574  1.00  0.00     0.000 A 
HETATM   24  C   UNL     1      43.982 -21.073   1.937  1.00  0.00     0.001 A 
HETATM   25  C   UNL     1      43.962 -19.869   2.643  1.00  0.00     0.007 A 
ENDBRANCH  19  20
ENDBRANCH  17  19
ENDBRANCH   1  17
TORSDOF 5
ENDMDL
MODEL 2
REMARK VINA RESULT:      -8.3      1.766      2.322
REMARK  5 active torsions:
REMARK  status: ('A' for Active; 'I' for Inactive)
REMARK    1  A    between atoms: C_2  and  C_3 
REMARK    2  A    between atoms: C_2  and  C_18 
REMARK       I    between atoms: C_3  and  N_4 
REMARK    3  A    between atoms: N_4  and  C_5 
REMARK    4  A    between atoms: C_7  and  C_8 
REMARK    5  A    between atoms: C_18  and  C_19 
ROOT
HETATM    1  C   UNL     1      42.707 -17.701   5.551  1.00  0.00     0.226 C 
HETATM    2  N   UNL     1      43.531 -16.850   4.827  1.00  0.00    -0.327 N 
HETATM    3  O   UNL     1      41.503 -17.538   5.717  1.00  0.00    -0.273 OA
HETATM    4  H   UNL     1      44.528 -16.955   4.964  1.00  0.00     0.169 HD
ENDROOT
BRANCH   2   5
HETATM    5  C   UNL     1      43.132 -15.774   4.005  1.00  0.00     0.035 A 
HETATM    6  C   UNL     1      42.647 -15.934   2.702  1.00  0.00     0.042 A 
HETATM    7  C   UNL     1      42.297 -14.825   1.910  1.00  0.00    -0.021 A 
HETATM    8  C   UNL     1      42.432 -13.544   2.463  1.00  0.00     0.012 A 
HETATM    9  C   UNL     1      42.919 -13.374   3.760  1.00  0.00     0.003 A 
HETATM   10  C   UNL     1      43.278 -14.484   4.523  1.00  0.00     0.029 A 
BRANCH   7  11
HETATM   11  C   UNL     1      41.824 -14.985   0.538  1.00  0.00     0.010 A 
HETATM   12  C   UNL     1      41.617 -14.032  -0.491  1.00  0.00     0.152 A 
HETATM   13  N   UNL     1      41.182 -14.575  -1.632  1.00  0.00    -0.187 NA
HETATM   14  N   UNL     1      41.108 -15.882  -1.343  1.00  0.00    -0.289 N 
HETATM   15  H   UNL     1      40.798 -16.520  -2.069  1.00  0.00     0.188 HD
HETATM   16  C   UNL     1      41.479 -16.179  -0.064  1.00  0.00     0.123 A 
ENDBRANCH   7  11
ENDBRANCH   2   5
BRANCH   1  17
HETATM   17  C   UNL     1      43.484 -18.859   6.193  1.00  0.00     0.078 C 
HETATM   18  C   UNL     1      43.786 -18.568   7.665  1.00  0.00     0.020 C 
BRANCH  17  19
HETATM   19  C   UNL     1      44.733 -19.276   5.388  1.00  0.00     0.052 C 
BRANCH  19  20
HETATM   20  C   UNL     1      44.535 -20.236   4.236  1.00  0.00    -0.057 A 
HETATM   21  C   UNL     1      44.788 -21.607   4.394  1.00  0.00     0.007 A 
HETATM   22  C   UNL     1      44.592 -22.494   3.334  1.00  0.00     0.001 A 
HETATM   23  C   UNL     1      44.133 -22.025   2.105  1.00  0.00     0.000 A 
HETATM   24  C   UNL     1      43.870 -20.668   1.937  1.00  0.00     0.001 A 
HETATM   25  C   UNL     1      44.068 -19.780   2.997  1.00  0.00     0.007 A 
ENDBRANCH  19  20
ENDBRANCH  17  19
ENDBRANCH   1  17
TORSDOF 5
ENDMDL
MODEL 3
REMARK VINA RESULT:      -8.2      1.502      2.025
REMARK  5 active torsions:
REMARK  status: ('A' for Active; 'I' for Inactive)
REMARK    1  A    between atoms: C_2  and  C_3 
REMARK    2  A    between atoms: C_2  and  C_18 
REMARK       I    between atoms: C_3  and  N_4 
REMARK    3  A    between atoms: N_4  and  C_5 
REMARK    4  A    between atoms: C_7  and  C_8 
REMARK    5  A    between atoms: C_18  and  C_19 
ROOT
HETATM    1  C   UNL     1      41.660 -16.501   3.354  1.00  0.00     0.226 C 
HETATM    2  N   UNL     1      42.317 -16.142   2.184  1.00  0.00    -0.327 N 
HETATM    3  O   UNL     1      40.708 -15.897   3.837  1.00  0.00    -0.273 OA
HETATM    4  H   UNL     1      43.222 -16.565   2.021  1.00  0.00     0.169 HD
ENDROOT
BRANCH   2   5
HETATM    5  C   UNL     1      41.916 -15.164   1.248  1.00  0.00     0.035 A 
HETATM    6  C   UNL     1      41.273 -15.465   0.042  1.00  0.00     0.042 A 
HETATM    7  C   UNL     1      40.927 -14.456  -0.875  1.00  0.00    -0.021 A 
HETATM    8  C   UNL     1      41.229 -13.127  -0.545  1.00  0.00     0.012 A 
HETATM    9  C   UNL     1      41.875 -12.817   0.653  1.00  0.00     0.003 A 
HETATM   10  C   UNL     1      42.226 -13.833   1.541  1.00  0.00     0.029 A 
BRANCH   7  11
HETATM   11  C   UNL     1      40.289 -14.769  -2.150  1.00  0.00     0.010 A 
HETATM   12  C   UNL     1      40.549 -15.797  -3.092  1.00  0.00     0.152 A 
HETATM   13  N   UNL     1      39.731 -15.762  -4.148  1.00  0.00    -0.187 NA
HETATM   14  N   UNL     1      38.939 -14.711  -3.891  1.00  0.00    -0.289 N 
HETATM   15  H   UNL     1      38.216 -14.476  -4.563  1.00  0.00     0.188 HD
HETATM   16  C   UNL     1      39.231 -14.084  -2.714  1.00  0.00     0.123 A 
ENDBRANCH   7  11
ENDBRANCH   2   5
BRANCH   1  17
HETATM   17  C   UNL     1      42.301 -17.720   4.032  1.00  0.00     0.078 C 
HETATM   18  C   UNL     1      42.354 -17.539   5.551  1.00  0.00     0.020 C 
BRANCH  17  19
HETATM   19  C   UNL     1      43.662 -18.113   3.420  1.00  0.00     0.052 C 
BRANCH  19  20
HETATM   20  C   UNL     1      43.931 -19.585   3.197  1.00  0.00    -0.057 A 
HETATM   21  C   UNL     1      43.578 -20.203   1.989  1.00  0.00     0.007 A 
HETATM   22  C   UNL     1      43.839 -21.560   1.780  1.00  0.00     0.001 A 
HETATM   23  C   UNL     1      44.464 -22.312   2.772  1.00  0.00     0.000 A 
HETATM   24  C   UNL     1      44.828 -21.708   3.973  1.00  0.00     0.001 A 
HETATM   25  C   UNL     1      44.565 -20.353   4.183  1.00  0.00     0.007 A 
ENDBRANCH  19  20
ENDBRANCH  17  19
ENDBRANCH   1  17
TORSDOF 5
ENDMDL
MODEL 4
REMARK VINA RESULT:      -7.9      3.393      6.191
REMARK  5 active torsions:
REMARK  status: ('A' for Active; 'I' for Inactive)
REMARK    1  A    between atoms: C_2  and  C_3 
REMARK    2  A    between atoms: C_2  and  C_18 
REMARK       I    between atoms: C_3  and  N_4 
REMARK    3  A    between atoms: N_4  and  C_5 
REMARK    4  A    between atoms: C_7  and  C_8 
REMARK    5  A    between atoms: C_18  and  C_19 
ROOT
HETATM    1  C   UNL     1      42.078 -15.502   4.553  1.00  0.00     0.226 C 
HETATM    2  N   UNL     1      43.232 -15.841   3.858  1.00  0.00    -0.327 N 
HETATM    3  O   UNL     1      40.987 -16.043   4.405  1.00  0.00    -0.273 OA
HETATM    4  H   UNL     1      43.994 -15.175   3.888  1.00  0.00     0.169 HD
ENDROOT
BRANCH   2   5
HETATM    5  C   UNL     1      43.424 -16.960   3.019  1.00  0.00     0.035 A 
HETATM    6  C   UNL     1      43.721 -18.242   3.495  1.00  0.00     0.042 A 
HETATM    7  C   UNL     1      43.939 -19.318   2.614  1.00  0.00    -0.021 A 
HETATM    8  C   UNL     1      43.838 -19.079   1.236  1.00  0.00     0.012 A 
HETATM    9  C   UNL     1      43.547 -17.802   0.752  1.00  0.00     0.003 A 
HETATM   10  C   UNL     1      43.352 -16.745   1.640  1.00  0.00     0.029 A 
BRANCH   7  11
HETATM   11  C   UNL     1      44.285 -20.648   3.105  1.00  0.00     0.010 A 
HETATM   12  C   UNL     1      44.297 -21.906   2.450  1.00  0.00     0.152 A 
HETATM   13  N   UNL     1      44.689 -22.908   3.243  1.00  0.00    -0.187 NA
HETATM   14  N   UNL     1      44.932 -22.299   4.413  1.00  0.00    -0.289 N 
HETATM   15  H   UNL     1      45.254 -22.864   5.192  1.00  0.00     0.188 HD
HETATM   16  C   UNL     1      44.705 -20.954   4.384  1.00  0.00     0.123 A 
ENDBRANCH   7  11
ENDBRANCH   2   5
BRANCH   1  17
HETATM   17  C   UNL     1      42.293 -14.311   5.497  1.00  0.00     0.078 C 
HETATM   18  C   UNL     1      42.570 -13.029   4.709  1.00  0.00     0.020 C 
BRANCH  17  19
HETATM   19  C   UNL     1      43.340 -14.587   6.597  1.00  0.00     0.052 C 
BRANCH  19  20
HETATM   20  C   UNL     1      43.715 -16.028   6.862  1.00  0.00    -0.057 A 
HETATM   21  C   UNL     1      44.979 -16.517   6.503  1.00  0.00     0.007 A 
HETATM   22  C   UNL     1      45.329 -17.845   6.760  1.00  0.00     0.001 A 
HETATM   23  C   UNL     1      44.423 -18.697   7.388  1.00  0.00     0.000 A 
HETATM   24  C   UNL     1      43.169 -18.222   7.759  1.00  0.00     0.001 A 
HETATM   25  C   UNL     1      42.818 -16.895   7.499  1.00  0.00     0.007 A 
ENDBRANCH  19  20
ENDBRANCH  17  19
ENDBRANCH   1  17
TORSDOF 5
ENDMDL
MODEL 5
REMARK VINA RESULT:      -7.8      2.926      6.462
REMARK  5 active torsions:
REMARK  status: ('A' for Active; 'I' for Inactive)
REMARK    1  A    between atoms: C_2  and  C_3 
REMARK    2  A    between atoms: C_2  and  C_18 
REMARK       I    between atoms: C_3  and  N_4 
REMARK    3  A    between atoms: N_4  and  C_5 
REMARK    4  A    between atoms: C_7  and  C_8 
REMARK    5  A    between atoms: C_18  and  C_19 
ROOT
HETATM    1  C   UNL     1      43.107 -13.810   4.112  1.00  0.00     0.226 C 
HETATM    2  N   UNL     1      42.710 -14.860   4.931  1.00  0.00    -0.327 N 
HETATM    3  O   UNL     1      44.210 -13.711   3.587  1.00  0.00    -0.273 OA
HETATM    4  H   UNL     1      41.880 -14.712   5.491  1.00  0.00     0.169 HD
ENDROOT
BRANCH   2   5
HETATM    5  C   UNL     1      43.398 -16.071   5.157  1.00  0.00     0.035 A 
HETATM    6  C   UNL     1      43.411 -17.135   4.249  1.00  0.00     0.042 A 
HETATM    7  C   UNL     1      44.083 -18.337   4.538  1.00  0.00    -0.021 A 
HETATM    8  C   UNL     1      44.760 -18.442   5.762  1.00  0.00     0.012 A 
HETATM    9  C   UNL     1      44.749 -17.388   6.677  1.00  0.00     0.003 A 
HETATM   10  C   UNL     1      44.061 -16.212   6.380  1.00  0.00     0.029 A 
BRANCH   7  11
HETATM   11  C   UNL     1      44.069 -19.463   3.609  1.00  0.00     0.010 A 
HETATM   12  C   UNL     1      43.450 -19.614   2.342  1.00  0.00     0.152 A 
HETATM   13  N   UNL     1      43.679 -20.806   1.783  1.00  0.00    -0.187 NA
HETATM   14  N   UNL     1      44.448 -21.429   2.688  1.00  0.00    -0.289 N 
HETATM   15  H   UNL     1      44.764 -22.372   2.486  1.00  0.00     0.188 HD
HETATM   16  C   UNL     1      44.708 -20.673   3.794  1.00  0.00     0.123 A 
ENDBRANCH   7  11
ENDBRANCH   2   5
BRANCH   1  17
HETATM   17  C   UNL     1      42.024 -12.731   3.981  1.00  0.00     0.078 C 
HETATM   18  C   UNL     1      41.547 -12.261   5.356  1.00  0.00     0.020 C 
BRANCH  17  19
HETATM   19  C   UNL     1      40.867 -13.138   3.043  1.00  0.00     0.052 C 
BRANCH  19  20
HETATM   20  C   UNL     1      40.986 -14.460   2.316  1.00  0.00    -0.057 A 
HETATM   21  C   UNL     1      40.240 -15.574   2.729  1.00  0.00     0.007 A 
HETATM   22  C   UNL     1      40.341 -16.789   2.048  1.00  0.00     0.001 A 
HETATM   23  C   UNL     1      41.181 -16.904   0.943  1.00  0.00     0.000 A 
HETATM   24  C   UNL     1      41.920 -15.804   0.518  1.00  0.00     0.001 A 
HETATM   25  C   UNL     1      41.821 -14.588   1.199  1.00  0.00     0.007 A 
ENDBRANCH  19  20
ENDBRANCH  17  19
ENDBRANCH   1  17
TORSDOF 5
ENDMDL
MODEL 6
REMARK VINA RESULT:      -7.7      2.893      4.863
REMARK  5 active torsions:
REMARK  status: ('A' for Active; 'I' for Inactive)
REMARK    1  A    between atoms: C_2  and  C_3 
REMARK    2  A    between atoms: C_2  and  C_18 
REMARK       I    between atoms: C_3  and  N_4 
REMARK    3  A    between atoms: N_4  and  C_5 
REMARK    4  A    between atoms: C_7  and  C_8 
REMARK    5  A    between atoms: C_18  and  C_19 
ROOT
HETATM    1  C   UNL     1      43.618 -18.308   1.836  1.00  0.00     0.226 C 
HETATM    2  N   UNL     1      42.330 -18.232   2.349  1.00  0.00    -0.327 N 
HETATM    3  O   UNL     1      44.226 -17.373   1.328  1.00  0.00    -0.273 OA
HETATM    4  H   UNL     1      41.853 -19.109   2.516  1.00  0.00     0.169 HD
ENDROOT
BRANCH   2   5
HETATM    5  C   UNL     1      41.564 -17.065   2.558  1.00  0.00     0.035 A 
HETATM    6  C   UNL     1      41.826 -16.139   3.574  1.00  0.00     0.042 A 
HETATM    7  C   UNL     1      41.010 -15.009   3.764  1.00  0.00    -0.021 A 
HETATM    8  C   UNL     1      39.924 -14.820   2.896  1.00  0.00     0.012 A 
HETATM    9  C   UNL     1      39.651 -15.741   1.883  1.00  0.00     0.003 A 
HETATM   10  C   UNL     1      40.461 -16.865   1.723  1.00  0.00     0.029 A 
BRANCH   7  11
HETATM   11  C   UNL     1      41.259 -14.059   4.844  1.00  0.00     0.010 A 
HETATM   12  C   UNL     1      42.460 -13.447   5.285  1.00  0.00     0.152 A 
HETATM   13  N   UNL     1      42.279 -12.613   6.313  1.00  0.00    -0.187 NA
HETATM   14  N   UNL     1      40.959 -12.683   6.539  1.00  0.00    -0.289 N 
HETATM   15  H   UNL     1      40.567 -12.122   7.288  1.00  0.00     0.188 HD
HETATM   16  C   UNL     1      40.306 -13.531   5.692  1.00  0.00     0.123 A 
ENDBRANCH   7  11
ENDBRANCH   2   5
BRANCH   1  17
HETATM   17  C   UNL     1      44.194 -19.729   1.912  1.00  0.00     0.078 C 
HETATM   18  C   UNL     1      43.076 -20.772   1.957  1.00  0.00     0.020 C 
BRANCH  17  19
HETATM   19  C   UNL     1      45.236 -19.906   3.037  1.00  0.00     0.052 C 
BRANCH  19  20
HETATM   20  C   UNL     1      44.724 -20.221   4.424  1.00  0.00    -0.057 A 
HETATM   21  C   UNL     1      44.167 -19.216   5.228  1.00  0.00     0.007 A 
HETATM   22  C   UNL     1      43.681 -19.511   6.504  1.00  0.00     0.001 A 
HETATM   23  C   UNL     1      43.739 -20.816   6.989  1.00  0.00     0.000 A 
HETATM   24  C   UNL     1      44.281 -21.825   6.198  1.00  0.00     0.001 A 
HETATM   25  C   UNL     1      44.769 -21.530   4.923  1.00  0.00     0.007 A 
ENDBRANCH  19  20
ENDBRANCH  17  19
ENDBRANCH   1  17
TORSDOF 5
ENDMDL
MODEL 7
REMARK VINA RESULT:      -7.6      2.449      8.194
REMARK  5 active torsions:
REMARK  status: ('A' for Active; 'I' for Inactive)
REMARK    1  A    between atoms: C_2  and  C_3 
REMARK    2  A    between atoms: C_2  and  C_18 
REMARK       I    between atoms: C_3  and  N_4 
REMARK    3  A    between atoms: N_4  and  C_5 
REMARK    4  A    between atoms: C_7  and  C_8 
REMARK    5  A    between atoms: C_18  and  C_19 
ROOT
HETATM    1  C   UNL     1      41.801 -15.949   1.801  1.00  0.00     0.226 C 
HETATM    2  N   UNL     1      43.096 -16.426   1.958  1.00  0.00    -0.327 N 
HETATM    3  O   UNL     1      40.786 -16.566   2.103  1.00  0.00    -0.273 OA
HETATM    4  H   UNL     1      43.826 -15.936   1.456  1.00  0.00     0.169 HD
ENDROOT
BRANCH   2   5
HETATM    5  C   UNL     1      43.498 -17.590   2.647  1.00  0.00     0.035 A 
HETATM    6  C   UNL     1      43.499 -17.701   4.042  1.00  0.00     0.042 A 
HETATM    7  C   UNL     1      43.944 -18.872   4.684  1.00  0.00    -0.021 A 
HETATM    8  C   UNL     1      44.376 -19.942   3.887  1.00  0.00     0.012 A 
HETATM    9  C   UNL     1      44.382 -19.839   2.496  1.00  0.00     0.003 A 
HETATM   10  C   UNL     1      43.955 -18.664   1.879  1.00  0.00     0.029 A 
BRANCH   7  11
HETATM   11  C   UNL     1      43.982 -18.978   6.139  1.00  0.00     0.010 A 
HETATM   12  C   UNL     1      44.327 -18.026   7.132  1.00  0.00     0.152 A 
HETATM   13  N   UNL     1      44.226 -18.502   8.376  1.00  0.00    -0.187 NA
HETATM   14  N   UNL     1      43.813 -19.765   8.191  1.00  0.00    -0.289 N 
HETATM   15  H   UNL     1      43.657 -20.346   9.008  1.00  0.00     0.188 HD
HETATM   16  C   UNL     1      43.654 -20.098   6.877  1.00  0.00     0.123 A 
ENDBRANCH   7  11
ENDBRANCH   2   5
BRANCH   1  17
HETATM   17  C   UNL     1      41.765 -14.566   1.137  1.00  0.00     0.078 C 
HETATM   18  C   UNL     1      42.308 -13.489   2.079  1.00  0.00     0.020 C 
BRANCH  17  19
HETATM   19  C   UNL     1      40.386 -14.212   0.539  1.00  0.00     0.052 C 
BRANCH  19  20
HETATM   20  C   UNL     1      40.153 -14.529  -0.921  1.00  0.00    -0.057 A 
HETATM   21  C   UNL     1      39.075 -13.960  -1.615  1.00  0.00     0.007 A 
HETATM   22  C   UNL     1      38.869 -14.244  -2.967  1.00  0.00     0.001 A 
HETATM   23  C   UNL     1      39.741 -15.092  -3.644  1.00  0.00     0.000 A 
HETATM   24  C   UNL     1      40.820 -15.657  -2.970  1.00  0.00     0.001 A 
HETATM   25  C   UNL     1      41.026 -15.375  -1.617  1.00  0.00     0.007 A 
ENDBRANCH  19  20
ENDBRANCH  17  19
ENDBRANCH   1  17
TORSDOF 5
ENDMDL
MODEL 8
REMARK VINA RESULT:      -7.5      2.616      7.781
REMARK  5 active torsions:
REMARK  status: ('A' for Active; 'I' for Inactive)
REMARK    1  A    between atoms: C_2  and  C_3 
REMARK    2  A    between atoms: C_2  and  C_18 
REMARK       I    between atoms: C_3  and  N_4 
REMARK    3  A    between atoms: N_4  and  C_5 
REMARK    4  A    between atoms: C_7  and  C_8 
REMARK    5  A    between atoms: C_18  and  C_19 
ROOT
HETATM    1  C   UNL     1      40.886 -16.563   1.747  1.00  0.00     0.226 C 
HETATM    2  N   UNL     1      42.245 -16.681   2.005  1.00  0.00    -0.327 N 
HETATM    3  O   UNL     1      40.024 -17.329   2.165  1.00  0.00    -0.273 OA
HETATM    4  H   UNL     1      42.869 -16.144   1.417  1.00  0.00     0.169 HD
ENDROOT
BRANCH   2   5
HETATM    5  C   UNL     1      42.865 -17.556   2.924  1.00  0.00     0.035 A 
HETATM    6  C   UNL     1      42.879 -17.342   4.307  1.00  0.00     0.042 A 
HETATM    7  C   UNL     1      43.543 -18.226   5.178  1.00  0.00    -0.021 A 
HETATM    8  C   UNL     1      44.184 -19.345   4.627  1.00  0.00     0.012 A 
HETATM    9  C   UNL     1      44.179 -19.564   3.248  1.00  0.00     0.003 A 
HETATM   10  C   UNL     1      43.532 -18.667   2.400  1.00  0.00     0.029 A 
BRANCH   7  11
HETATM   11  C   UNL     1      43.591 -17.988   6.617  1.00  0.00     0.010 A 
HETATM   12  C   UNL     1      43.315 -16.821   7.375  1.00  0.00     0.152 A 
HETATM   13  N   UNL     1      43.462 -17.003   8.691  1.00  0.00    -0.187 NA
HETATM   14  N   UNL     1      43.833 -18.288   8.787  1.00  0.00    -0.289 N 
HETATM   15  H   UNL     1      44.005 -18.673   9.709  1.00  0.00     0.188 HD
HETATM   16  C   UNL     1      43.925 -18.919   7.580  1.00  0.00     0.123 A 
ENDBRANCH   7  11
ENDBRANCH   2   5
BRANCH   1  17
HETATM   17  C   UNL     1      40.570 -15.390   0.810  1.00  0.00     0.078 C 
HETATM   18  C   UNL     1      41.712 -15.153  -0.179  1.00  0.00     0.020 C 
BRANCH  17  19
HETATM   19  C   UNL     1      40.140 -14.110   1.559  1.00  0.00     0.052 C 
BRANCH  19  20
HETATM   20  C   UNL     1      40.710 -13.882   2.941  1.00  0.00    -0.057 A 
HETATM   21  C   UNL     1      39.993 -14.263   4.084  1.00  0.00     0.007 A 
HETATM   22  C   UNL     1      40.526 -14.064   5.360  1.00  0.00     0.001 A 
HETATM   23  C   UNL     1      41.786 -13.489   5.508  1.00  0.00     0.000 A 
HETATM   24  C   UNL     1      42.513 -13.114   4.381  1.00  0.00     0.001 A 
HETATM   25  C   UNL     1      41.979 -13.311   3.106  1.00  0.00     0.007 A 
ENDBRANCH  19  20
ENDBRANCH  17  19
ENDBRANCH   1  17
TORSDOF 5
ENDMDL
MODEL 9
REMARK VINA RESULT:      -7.4      1.945      3.252
REMARK  5 active torsions:
REMARK  status: ('A' for Active; 'I' for Inactive)
REMARK    1  A    between atoms: C_2  and  C_3 
REMARK    2  A    between atoms: C_2  and  C_18 
REMARK       I    between atoms: C_3  and  N_4 
REMARK    3  A    between atoms: N_4  and  C_5 
REMARK    4  A    between atoms: C_7  and  C_8 
REMARK    5  A    between atoms: C_18  and  C_19 
ROOT
HETATM    1  C   UNL     1      43.457 -19.258   2.143  1.00  0.00     0.226 C 
HETATM    2  N   UNL     1      44.014 -17.989   2.055  1.00  0.00    -0.327 N 
HETATM    3  O   UNL     1      42.258 -19.491   2.252  1.00  0.00    -0.273 OA
HETATM    4  H   UNL     1      45.011 -17.917   2.213  1.00  0.00     0.169 HD
ENDROOT
BRANCH   2   5
HETATM    5  C   UNL     1      43.328 -16.767   1.883  1.00  0.00     0.035 A 
HETATM    6  C   UNL     1      42.440 -16.521   0.830  1.00  0.00     0.042 A 
HETATM    7  C   UNL     1      41.808 -15.272   0.681  1.00  0.00    -0.021 A 
HETATM    8  C   UNL     1      42.078 -14.275   1.630  1.00  0.00     0.012 A 
HETATM    9  C   UNL     1      42.965 -14.510   2.681  1.00  0.00     0.003 A 
HETATM   10  C   UNL     1      43.596 -15.748   2.800  1.00  0.00     0.029 A 
BRANCH   7  11
HETATM   11  C   UNL     1      40.910 -14.999  -0.436  1.00  0.00     0.010 A 
HETATM   12  C   UNL     1      41.019 -15.314  -1.815  1.00  0.00     0.152 A 
HETATM   13  N   UNL     1      39.971 -14.901  -2.533  1.00  0.00    -0.187 NA
HETATM   14  N   UNL     1      39.181 -14.317  -1.620  1.00  0.00    -0.289 N 
HETATM   15  H   UNL     1      38.301 -13.917  -1.929  1.00  0.00     0.188 HD
HETATM   16  C   UNL     1      39.695 -14.347  -0.356  1.00  0.00     0.123 A 
ENDBRANCH   7  11
ENDBRANCH   2   5
BRANCH   1  17
HETATM   17  C   UNL     1      44.522 -20.363   2.157  1.00  0.00     0.078 C 
HETATM   18  C   UNL     1      43.885 -21.742   1.975  1.00  0.00     0.020 C 
BRANCH  17  19
HETATM   19  C   UNL     1      45.465 -20.286   3.377  1.00  0.00     0.052 C 
BRANCH  19  20
HETATM   20  C   UNL     1      44.832 -20.188   4.747  1.00  0.00    -0.057 A 
HETATM   21  C   UNL     1      44.458 -21.344   5.448  1.00  0.00     0.007 A 
HETATM   22  C   UNL     1      43.886 -21.253   6.719  1.00  0.00     0.001 A 
HETATM   23  C   UNL     1      43.689 -20.007   7.308  1.00  0.00     0.000 A 
HETATM   24  C   UNL     1      44.064 -18.852   6.628  1.00  0.00     0.001 A 
HETATM   25  C   UNL     1      44.634 -18.942   5.356  1.00  0.00     0.007 A 
ENDBRANCH  19  20
ENDBRANCH  17  19
ENDBRANCH   1  17
TORSDOF 5
ENDMDL
MODEL 10
REMARK VINA RESULT:      -7.4      2.452      7.750
REMARK  5 active torsions:
REMARK  status: ('A' for Active; 'I' for Inactive)
REMARK    1  A    between atoms: C_2  and  C_3 
REMARK    2  A    between atoms: C_2  and  C_18 
REMARK       I    between atoms: C_3  and  N_4 
REMARK    3  A    between atoms: N_4  and  C_5 
REMARK    4  A    between atoms: C_7  and  C_8 
REMARK    5  A    between atoms: C_18  and  C_19 
ROOT
HETATM    1  C   UNL     1      42.154 -15.877   2.471  1.00  0.00     0.226 C 
HETATM    2  N   UNL     1      43.364 -16.185   3.081  1.00  0.00    -0.327 N 
HETATM    3  O   UNL     1      41.161 -16.597   2.482  1.00  0.00    -0.273 OA
HETATM    4  H   UNL     1      44.167 -15.637   2.801  1.00  0.00     0.169 HD
ENDROOT
BRANCH   2   5
HETATM    5  C   UNL     1      43.624 -17.254   3.965  1.00  0.00     0.035 A 
HETATM    6  C   UNL     1      43.929 -18.552   3.541  1.00  0.00     0.042 A 
HETATM    7  C   UNL     1      44.145 -19.593   4.464  1.00  0.00    -0.021 A 
HETATM    8  C   UNL     1      44.062 -19.295   5.832  1.00  0.00     0.012 A 
HETATM    9  C   UNL     1      43.755 -18.004   6.264  1.00  0.00     0.003 A 
HETATM   10  C   UNL     1      43.525 -16.991   5.334  1.00  0.00     0.029 A 
BRANCH   7  11
HETATM   11  C   UNL     1      44.427 -20.956   4.025  1.00  0.00     0.010 A 
HETATM   12  C   UNL     1      44.346 -21.555   2.742  1.00  0.00     0.152 A 
HETATM   13  N   UNL     1      44.703 -22.842   2.739  1.00  0.00    -0.187 NA
HETATM   14  N   UNL     1      45.017 -23.079   4.021  1.00  0.00    -0.289 N 
HETATM   15  H   UNL     1      45.328 -24.010   4.278  1.00  0.00     0.188 HD
HETATM   16  C   UNL     1      44.868 -21.989   4.828  1.00  0.00     0.123 A 
ENDBRANCH   7  11
ENDBRANCH   2   5
BRANCH   1  17
HETATM   17  C   UNL     1      42.206 -14.546   1.710  1.00  0.00     0.078 C 
HETATM   18  C   UNL     1      42.563 -13.391   2.646  1.00  0.00     0.020 C 
BRANCH  17  19
HETATM   19  C   UNL     1      40.942 -14.276   0.866  1.00  0.00     0.052 C 
BRANCH  19  20
HETATM   20  C   UNL     1      41.090 -14.282  -0.639  1.00  0.00    -0.057 A 
HETATM   21  C   UNL     1      41.420 -13.108  -1.332  1.00  0.00     0.007 A 
HETATM   22  C   UNL     1      41.569 -13.118  -2.720  1.00  0.00     0.001 A 
HETATM   23  C   UNL     1      41.398 -14.302  -3.433  1.00  0.00     0.000 A 
HETATM   24  C   UNL     1      41.078 -15.476  -2.758  1.00  0.00     0.001 A 
HETATM   25  C   UNL     1      40.927 -15.467  -1.369  1.00  0.00     0.007 A 
ENDBRANCH  19  20
ENDBRANCH  17  19
ENDBRANCH   1  17
TORSDOF 5
ENDMDL
