MODEL 1
REMARK VINA RESULT:      -9.1      0.000      0.000
REMARK  6 active torsions:
REMARK  status: ('A' for Active; 'I' for Inactive)
REMARK    1  A    between atoms: O_2  and  C_3 
REMARK    2  A    between atoms: C_6  and  C_7 
REMARK       I    between atoms: C_7  and  N_8 
REMARK    3  A    between atoms: N_8  and  C_9 
REMARK    4  A    between atoms: C_11  and  C_12 
REMARK    5  A    between atoms: C_12  and  C_13 
REMARK    6  A    between atoms: C_13  and  C_14 
ROOT
HETATM    1  C   UNL     1      43.149 -14.039   5.643  1.00  0.00     0.725 A 
HETATM    2  N   UNL     1      42.534 -15.163   5.380  1.00  0.00    -0.046 NA
HETATM    3  C   UNL     1      42.788 -15.386   4.054  1.00  0.00     0.166 A 
HETATM    4  N   UNL     1      43.551 -14.453   3.470  1.00  0.00    -0.144 NA
HETATM    5  N   UNL     1      43.769 -13.614   4.499  1.00  0.00    -0.106 N 
HETATM    6  H   UNL     1      44.333 -12.788   4.348  1.00  0.00     0.208 HD
ENDROOT
BRANCH   1   7
HETATM    7  N   UNL     1      43.236 -13.355   6.833  1.00  0.00    -0.152 N 
HETATM    8  C   UNL     1      44.459 -13.125   7.435  1.00  0.00     0.270 C 
HETATM    9  O   UNL     1      45.551 -13.569   7.104  1.00  0.00    -0.267 OA
HETATM   10  H   UNL     1      42.390 -13.070   7.302  1.00  0.00     0.187 HD
BRANCH   8  11
HETATM   11  C   UNL     1      44.398 -12.279   8.657  1.00  0.00     0.033 A 
HETATM   12  C   UNL     1      43.296 -11.433   8.830  1.00  0.00     0.020 A 
HETATM   13  C   UNL     1      43.187 -10.640   9.977  1.00  0.00     0.038 A 
HETATM   14  C   UNL     1      44.172 -10.700  10.963  1.00  0.00     0.068 A 
HETATM   15  C   UNL     1      45.266 -11.553  10.791  1.00  0.00     0.038 A 
HETATM   16  C   UNL     1      45.383 -12.346   9.647  1.00  0.00     0.020 A 
BRANCH  14  17
HETATM   17  O   UNL     1      44.181  -9.990  12.132  1.00  0.00    -0.356 OA
HETATM   18  C   UNL     1      42.966  -9.957  12.872  1.00  0.00     0.210 C 
ENDBRANCH  14  17
ENDBRANCH   8  11
ENDBRANCH   1   7
BRANCH   3  19
HETATM   19  C   UNL     1      42.303 -16.605   3.362  1.00  0.00     0.087 C 
BRANCH  19  20
HETATM   20  C   UNL     1      43.445 -17.402   2.727  1.00  0.00     0.048 C 
BRANCH  20  21
HETATM   21  C   UNL     1      43.951 -18.481   3.634  1.00  0.00    -0.030 A 
HETATM   22  C   UNL     1      44.109 -19.863   3.291  1.00  0.00    -0.002 A 
HETATM   23  C   UNL     1      44.601 -20.521   4.419  1.00  0.00     0.042 A 
HETATM   24  C   UNL     1      43.874 -20.614   2.121  1.00  0.00     0.014 A 
HETATM   25  C   UNL     1      44.867 -21.895   4.436  1.00  0.00     0.030 A 
HETATM   26  N   UNL     1      44.745 -19.574   5.406  1.00  0.00    -0.365 N 
HETATM   27  C   UNL     1      44.623 -22.618   3.264  1.00  0.00     0.002 A 
HETATM   28  C   UNL     1      44.134 -21.990   2.121  1.00  0.00     0.001 A 
HETATM   29  H   UNL     1      45.090 -19.767   6.335  1.00  0.00     0.165 HD
HETATM   30  C   UNL     1      44.355 -18.344   4.946  1.00  0.00     0.096 A 
ENDBRANCH  20  21
ENDBRANCH  19  20
ENDBRANCH   3  19
TORSDOF 6
ENDMDL
MODEL 2
REMARK VINA RESULT:      -8.8      2.578      4.219
REMARK  6 active torsions:
REMARK  status: ('A' for Active; 'I' for Inactive)
REMARK    1  A    between atoms: O_2  and  C_3 
REMARK    2  A    between atoms: C_6  and  C_7 
REMARK       I    between atoms: C_7  and  N_8 
REMARK    3  A    between atoms: N_8  and  C_9 
REMARK    4  A    between atoms: C_11  and  C_12 
REMARK    5  A    between atoms: C_12  and  C_13 
REMARK    6  A    between atoms: C_13  and  C_14 
ROOT
HETATM    1  C   UNL     1      44.883 -12.339   9.405  1.00  0.00     0.725 A 
HETATM    2  N   UNL     1      44.373 -13.335   8.728  1.00  0.00    -0.046 NA
HETATM    3  C   UNL     1      45.207 -13.476   7.653  1.00  0.00     0.166 A 
HETATM    4  N   UNL     1      46.233 -12.615   7.629  1.00  0.00    -0.144 NA
HETATM    5  N   UNL     1      46.006 -11.909   8.751  1.00  0.00    -0.106 N 
HETATM    6  H   UNL     1      46.642 -11.163   8.999  1.00  0.00     0.208 HD
ENDROOT
BRANCH   1   7
HETATM    7  N   UNL     1      44.452 -11.781  10.586  1.00  0.00    -0.152 N 
HETATM    8  C   UNL     1      43.220 -11.160  10.672  1.00  0.00     0.270 C 
HETATM    9  O   UNL     1      42.442 -10.912   9.760  1.00  0.00    -0.267 OA
HETATM   10  H   UNL     1      45.069 -11.772  11.383  1.00  0.00     0.187 HD
BRANCH   8  11
HETATM   11  C   UNL     1      42.851 -10.704  12.039  1.00  0.00     0.033 A 
HETATM   12  C   UNL     1      43.686  -9.784  12.685  1.00  0.00     0.020 A 
HETATM   13  C   UNL     1      43.363  -9.310  13.960  1.00  0.00     0.038 A 
HETATM   14  C   UNL     1      42.196  -9.743  14.591  1.00  0.00     0.068 A 
HETATM   15  C   UNL     1      41.360 -10.655  13.939  1.00  0.00     0.038 A 
HETATM   16  C   UNL     1      41.678 -11.134  12.666  1.00  0.00     0.020 A 
BRANCH  14  17
HETATM   17  O   UNL     1      41.759  -9.351  15.826  1.00  0.00    -0.356 OA
HETATM   18  C   UNL     1      40.763  -8.336  15.862  1.00  0.00     0.210 C 
ENDBRANCH  14  17
ENDBRANCH   8  11
ENDBRANCH   1   7
BRANCH   3  19
HETATM   19  C   UNL     1      45.006 -14.547   6.646  1.00  0.00     0.087 C 
BRANCH  19  20
HETATM   20  C   UNL     1      43.604 -15.157   6.723  1.00  0.00     0.048 C 
BRANCH  20  21
HETATM   21  C   UNL     1      43.639 -16.603   7.109  1.00  0.00    -0.030 A 
HETATM   22  C   UNL     1      43.864 -17.706   6.223  1.00  0.00    -0.002 A 
HETATM   23  C   UNL     1      43.812 -18.873   6.984  1.00  0.00     0.042 A 
HETATM   24  C   UNL     1      44.104 -17.814   4.837  1.00  0.00     0.014 A 
HETATM   25  C   UNL     1      43.986 -20.147   6.429  1.00  0.00     0.030 A 
HETATM   26  N   UNL     1      43.574 -18.495   8.285  1.00  0.00    -0.365 N 
HETATM   27  C   UNL     1      44.220 -20.228   5.053  1.00  0.00     0.002 A 
HETATM   28  C   UNL     1      44.279 -19.080   4.265  1.00  0.00     0.001 A 
HETATM   29  H   UNL     1      43.491 -19.137   9.060  1.00  0.00     0.165 HD
HETATM   30  C   UNL     1      43.465 -17.132   8.372  1.00  0.00     0.096 A 
ENDBRANCH  20  21
ENDBRANCH  19  20
ENDBRANCH   3  19
TORSDOF 6
ENDMDL
MODEL 3
REMARK VINA RESULT:      -8.7      5.474      9.113
REMARK  6 active torsions:
REMARK  status: ('A' for Active; 'I' for Inactive)
REMARK    1  A    between atoms: O_2  and  C_3 
REMARK    2  A    between atoms: C_6  and  C_7 
REMARK       I    between atoms: C_7  and  N_8 
REMARK    3  A    between atoms: N_8  and  C_9 
REMARK    4  A    between atoms: C_11  and  C_12 
REMARK    5  A    between atoms: C_12  and  C_13 
REMARK    6  A    between atoms: C_13  and  C_14 
ROOT
HETATM    1  C   UNL     1      41.562 -14.350   1.507  1.00  0.00     0.725 A 
HETATM    2  N   UNL     1      41.846 -15.228   2.434  1.00  0.00    -0.046 NA
HETATM    3  C   UNL     1      42.793 -14.613   3.206  1.00  0.00     0.166 A 
HETATM    4  N   UNL     1      43.113 -13.373   2.810  1.00  0.00    -0.144 NA
HETATM    5  N   UNL     1      42.317 -13.230   1.735  1.00  0.00    -0.106 N 
HETATM    6  H   UNL     1      42.344 -12.363   1.216  1.00  0.00     0.208 HD
ENDROOT
BRANCH   1   7
HETATM    7  N   UNL     1      40.661 -14.440   0.473  1.00  0.00    -0.152 N 
HETATM    8  C   UNL     1      41.039 -14.161  -0.828  1.00  0.00     0.270 C 
HETATM    9  O   UNL     1      42.106 -13.701  -1.214  1.00  0.00    -0.267 OA
HETATM   10  H   UNL     1      39.697 -14.655   0.674  1.00  0.00     0.187 HD
BRANCH   8  11
HETATM   11  C   UNL     1      39.983 -14.409  -1.846  1.00  0.00     0.033 A 
HETATM   12  C   UNL     1      40.298 -15.201  -2.957  1.00  0.00     0.020 A 
HETATM   13  C   UNL     1      39.328 -15.479  -3.924  1.00  0.00     0.038 A 
HETATM   14  C   UNL     1      38.033 -14.979  -3.778  1.00  0.00     0.068 A 
HETATM   15  C   UNL     1      37.720 -14.195  -2.663  1.00  0.00     0.038 A 
HETATM   16  C   UNL     1      38.686 -13.912  -1.694  1.00  0.00     0.020 A 
BRANCH  14  17
HETATM   17  O   UNL     1      36.992 -15.184  -4.641  1.00  0.00    -0.356 OA
HETATM   18  C   UNL     1      36.090 -14.100  -4.826  1.00  0.00     0.210 C 
ENDBRANCH  14  17
ENDBRANCH   8  11
ENDBRANCH   1   7
BRANCH   3  19
HETATM   19  C   UNL     1      43.355 -15.262   4.416  1.00  0.00     0.087 C 
BRANCH  19  20
HETATM   20  C   UNL     1      42.561 -16.503   4.827  1.00  0.00     0.048 C 
BRANCH  20  21
HETATM   21  C   UNL     1      43.425 -17.723   4.914  1.00  0.00    -0.030 A 
HETATM   22  C   UNL     1      43.555 -18.737   3.910  1.00  0.00    -0.002 A 
HETATM   23  C   UNL     1      44.451 -19.691   4.391  1.00  0.00     0.042 A 
HETATM   24  C   UNL     1      42.986 -18.928   2.634  1.00  0.00     0.014 A 
HETATM   25  C   UNL     1      44.806 -20.831   3.660  1.00  0.00     0.030 A 
HETATM   26  N   UNL     1      44.858 -19.269   5.636  1.00  0.00    -0.365 N 
HETATM   27  C   UNL     1      44.226 -20.999   2.399  1.00  0.00     0.002 A 
HETATM   28  C   UNL     1      43.329 -20.064   1.890  1.00  0.00     0.001 A 
HETATM   29  H   UNL     1      45.514 -19.766   6.220  1.00  0.00     0.165 HD
HETATM   30  C   UNL     1      44.245 -18.088   5.962  1.00  0.00     0.096 A 
ENDBRANCH  20  21
ENDBRANCH  19  20
ENDBRANCH   3  19
TORSDOF 6
ENDMDL
MODEL 4
REMARK VINA RESULT:      -8.7      2.526     10.564
REMARK  6 active torsions:
REMARK  status: ('A' for Active; 'I' for Inactive)
REMARK    1  A    between atoms: O_2  and  C_3 
REMARK    2  A    between atoms: C_6  and  C_7 
REMARK       I    between atoms: C_7  and  N_8 
REMARK    3  A    between atoms: N_8  and  C_9 
REMARK    4  A    between atoms: C_11  and  C_12 
REMARK    5  A    between atoms: C_12  and  C_13 
REMARK    6  A    between atoms: C_13  and  C_14 
ROOT
HETATM    1  C   UNL     1      44.566 -13.665   7.443  1.00  0.00     0.725 A 
HETATM    2  N   UNL     1      45.435 -13.241   8.324  1.00  0.00    -0.046 NA
HETATM    3  C   UNL     1      44.899 -12.074   8.795  1.00  0.00     0.166 A 
HETATM    4  N   UNL     1      43.717 -11.747   8.253  1.00  0.00    -0.144 NA
HETATM    5  N   UNL     1      43.528 -12.773   7.404  1.00  0.00    -0.106 N 
HETATM    6  H   UNL     1      42.689 -12.795   6.839  1.00  0.00     0.208 HD
ENDROOT
BRANCH   1   7
HETATM    7  N   UNL     1      44.596 -14.803   6.673  1.00  0.00    -0.152 N 
HETATM    8  C   UNL     1      44.079 -15.996   7.144  1.00  0.00     0.270 C 
HETATM    9  O   UNL     1      43.671 -16.240   8.273  1.00  0.00    -0.267 OA
HETATM   10  H   UNL     1      45.054 -14.782   5.775  1.00  0.00     0.187 HD
BRANCH   8  11
HETATM   11  C   UNL     1      44.087 -17.108   6.156  1.00  0.00     0.033 A 
HETATM   12  C   UNL     1      43.204 -17.044   5.071  1.00  0.00     0.020 A 
HETATM   13  C   UNL     1      43.196 -18.055   4.106  1.00  0.00     0.038 A 
HETATM   14  C   UNL     1      44.081 -19.129   4.212  1.00  0.00     0.068 A 
HETATM   15  C   UNL     1      44.966 -19.185   5.293  1.00  0.00     0.038 A 
HETATM   16  C   UNL     1      44.978 -18.179   6.262  1.00  0.00     0.020 A 
BRANCH  14  17
HETATM   17  O   UNL     1      44.184 -20.174   3.336  1.00  0.00    -0.356 OA
HETATM   18  C   UNL     1      43.541 -20.019   2.076  1.00  0.00     0.210 C 
ENDBRANCH  14  17
ENDBRANCH   8  11
ENDBRANCH   1   7
BRANCH   3  19
HETATM   19  C   UNL     1      45.559 -11.288   9.865  1.00  0.00     0.087 C 
BRANCH  19  20
HETATM   20  C   UNL     1      44.647 -10.193  10.424  1.00  0.00     0.048 C 
BRANCH  20  21
HETATM   21  C   UNL     1      43.818 -10.681  11.572  1.00  0.00    -0.030 A 
HETATM   22  C   UNL     1      43.177  -9.862  12.557  1.00  0.00    -0.002 A 
HETATM   23  C   UNL     1      42.515 -10.711  13.443  1.00  0.00     0.042 A 
HETATM   24  C   UNL     1      43.105  -8.470  12.774  1.00  0.00     0.014 A 
HETATM   25  C   UNL     1      41.784 -10.239  14.540  1.00  0.00     0.030 A 
HETATM   26  N   UNL     1      42.736 -11.997  13.008  1.00  0.00    -0.365 N 
HETATM   27  C   UNL     1      41.730  -8.855  14.735  1.00  0.00     0.002 A 
HETATM   28  C   UNL     1      42.379  -7.981  13.867  1.00  0.00     0.001 A 
HETATM   29  H   UNL     1      42.370 -12.823  13.459  1.00  0.00     0.165 HD
HETATM   30  C   UNL     1      43.521 -11.992  11.885  1.00  0.00     0.096 A 
ENDBRANCH  20  21
ENDBRANCH  19  20
ENDBRANCH   3  19
TORSDOF 6
ENDMDL
MODEL 5
REMARK VINA RESULT:      -8.5      6.093      8.945
REMARK  6 active torsions:
REMARK  status: ('A' for Active; 'I' for Inactive)
REMARK    1  A    between atoms: O_2  and  C_3 
REMARK    2  A    between atoms: C_6  and  C_7 
REMARK       I    between atoms: C_7  and  N_8 
REMARK    3  A    between atoms: N_8  and  C_9 
REMARK    4  A    between atoms: C_11  and  C_12 
REMARK    5  A    between atoms: C_12  and  C_13 
REMARK    6  A    between atoms: C_13  and  C_14 
ROOT
HETATM    1  C   UNL     1      41.569 -15.600   0.106  1.00  0.00     0.725 A 
HETATM    2  N   UNL     1      42.031 -15.516   1.328  1.00  0.00    -0.046 NA
HETATM    3  C   UNL     1      41.603 -16.667   1.931  1.00  0.00     0.166 A 
HETATM    4  N   UNL     1      40.898 -17.483   1.135  1.00  0.00    -0.144 NA
HETATM    5  N   UNL     1      40.894 -16.785  -0.015  1.00  0.00    -0.106 N 
HETATM    6  H   UNL     1      40.419 -17.168  -0.821  1.00  0.00     0.208 HD
ENDROOT
BRANCH   1   7
HETATM    7  N   UNL     1      41.715 -14.718  -0.938  1.00  0.00    -0.152 N 
HETATM    8  C   UNL     1      40.618 -14.089  -1.498  1.00  0.00     0.270 C 
HETATM    9  O   UNL     1      39.435 -14.300  -1.264  1.00  0.00    -0.267 OA
HETATM   10  H   UNL     1      42.628 -14.573  -1.340  1.00  0.00     0.187 HD
BRANCH   8  11
HETATM   11  C   UNL     1      40.948 -13.084  -2.544  1.00  0.00     0.033 A 
HETATM   12  C   UNL     1      39.897 -12.453  -3.221  1.00  0.00     0.020 A 
HETATM   13  C   UNL     1      40.163 -11.485  -4.193  1.00  0.00     0.038 A 
HETATM   14  C   UNL     1      41.480 -11.131  -4.485  1.00  0.00     0.068 A 
HETATM   15  C   UNL     1      42.527 -11.758  -3.801  1.00  0.00     0.038 A 
HETATM   16  C   UNL     1      42.269 -12.728  -2.830  1.00  0.00     0.020 A 
BRANCH  14  17
HETATM   17  O   UNL     1      41.877 -10.196  -5.401  1.00  0.00    -0.356 OA
HETATM   18  C   UNL     1      42.298  -8.937  -4.890  1.00  0.00     0.210 C 
ENDBRANCH  14  17
ENDBRANCH   8  11
ENDBRANCH   1   7
BRANCH   3  19
HETATM   19  C   UNL     1      41.962 -16.993   3.333  1.00  0.00     0.087 C 
BRANCH  19  20
HETATM   20  C   UNL     1      43.476 -16.972   3.561  1.00  0.00     0.048 C 
BRANCH  20  21
HETATM   21  C   UNL     1      43.979 -18.264   4.126  1.00  0.00    -0.030 A 
HETATM   22  C   UNL     1      44.033 -19.519   3.439  1.00  0.00    -0.002 A 
HETATM   23  C   UNL     1      44.562 -20.459   4.324  1.00  0.00     0.042 A 
HETATM   24  C   UNL     1      43.676 -19.941   2.142  1.00  0.00     0.014 A 
HETATM   25  C   UNL     1      44.750 -21.802   3.977  1.00  0.00     0.030 A 
HETATM   26  N   UNL     1      44.828 -19.798   5.501  1.00  0.00    -0.365 N 
HETATM   27  C   UNL     1      44.385 -22.196   2.686  1.00  0.00     0.002 A 
HETATM   28  C   UNL     1      43.856 -21.281   1.778  1.00  0.00     0.001 A 
HETATM   29  H   UNL     1      45.223 -20.232   6.322  1.00  0.00     0.165 HD
HETATM   30  C   UNL     1      44.479 -18.478   5.395  1.00  0.00     0.096 A 
ENDBRANCH  20  21
ENDBRANCH  19  20
ENDBRANCH   3  19
TORSDOF 6
ENDMDL
MODEL 6
REMARK VINA RESULT:      -8.5      1.727      2.742
REMARK  6 active torsions:
REMARK  status: ('A' for Active; 'I' for Inactive)
REMARK    1  A    between atoms: O_2  and  C_3 
REMARK    2  A    between atoms: C_6  and  C_7 
REMARK       I    between atoms: C_7  and  N_8 
REMARK    3  A    between atoms: N_8  and  C_9 
REMARK    4  A    between atoms: C_11  and  C_12 
REMARK    5  A    between atoms: C_12  and  C_13 
REMARK    6  A    between atoms: C_13  and  C_14 
ROOT
HETATM    1  C   UNL     1      43.994 -12.840   7.896  1.00  0.00     0.725 A 
HETATM    2  N   UNL     1      43.313 -13.270   6.865  1.00  0.00    -0.046 NA
HETATM    3  C   UNL     1      44.234 -13.935   6.104  1.00  0.00     0.166 A 
HETATM    4  N   UNL     1      45.471 -13.952   6.618  1.00  0.00    -0.144 NA
HETATM    5  N   UNL     1      45.291 -13.255   7.754  1.00  0.00    -0.106 N 
HETATM    6  H   UNL     1      46.080 -13.102   8.367  1.00  0.00     0.208 HD
ENDROOT
BRANCH   1   7
HETATM    7  N   UNL     1      43.559 -12.121   8.984  1.00  0.00    -0.152 N 
HETATM    8  C   UNL     1      44.244 -12.161  10.185  1.00  0.00     0.270 C 
HETATM    9  O   UNL     1      45.187 -12.883  10.484  1.00  0.00    -0.267 OA
HETATM   10  H   UNL     1      42.696 -11.605   8.923  1.00  0.00     0.187 HD
BRANCH   8  11
HETATM   11  C   UNL     1      43.713 -11.247  11.232  1.00  0.00     0.033 A 
HETATM   12  C   UNL     1      43.679  -9.873  10.965  1.00  0.00     0.020 A 
HETATM   13  C   UNL     1      43.164  -8.983  11.912  1.00  0.00     0.038 A 
HETATM   14  C   UNL     1      42.668  -9.462  13.124  1.00  0.00     0.068 A 
HETATM   15  C   UNL     1      42.697 -10.835  13.384  1.00  0.00     0.038 A 
HETATM   16  C   UNL     1      43.211 -11.731  12.443  1.00  0.00     0.020 A 
BRANCH  14  17
HETATM   17  O   UNL     1      42.130  -8.703  14.127  1.00  0.00    -0.356 OA
HETATM   18  C   UNL     1      41.525  -9.404  15.207  1.00  0.00     0.210 C 
ENDBRANCH  14  17
ENDBRANCH   8  11
ENDBRANCH   1   7
BRANCH   3  19
HETATM   19  C   UNL     1      43.854 -14.628   4.849  1.00  0.00     0.087 C 
BRANCH  19  20
HETATM   20  C   UNL     1      42.915 -15.810   5.104  1.00  0.00     0.048 C 
BRANCH  20  21
HETATM   21  C   UNL     1      43.662 -17.097   5.274  1.00  0.00    -0.030 A 
HETATM   22  C   UNL     1      43.811 -18.121   4.283  1.00  0.00    -0.002 A 
HETATM   23  C   UNL     1      44.570 -19.145   4.849  1.00  0.00     0.042 A 
HETATM   24  C   UNL     1      43.364 -18.269   2.954  1.00  0.00     0.014 A 
HETATM   25  C   UNL     1      44.904 -20.313   4.153  1.00  0.00     0.030 A 
HETATM   26  N   UNL     1      44.879 -18.755   6.132  1.00  0.00    -0.365 N 
HETATM   27  C   UNL     1      44.446 -20.436   2.837  1.00  0.00     0.002 A 
HETATM   28  C   UNL     1      43.688 -19.431   2.243  1.00  0.00     0.001 A 
HETATM   29  H   UNL     1      45.428 -19.303   6.778  1.00  0.00     0.165 HD
HETATM   30  C   UNL     1      44.335 -17.526   6.399  1.00  0.00     0.096 A 
ENDBRANCH  20  21
ENDBRANCH  19  20
ENDBRANCH   3  19
TORSDOF 6
ENDMDL
MODEL 7
REMARK VINA RESULT:      -8.3      6.208      9.466
REMARK  6 active torsions:
REMARK  status: ('A' for Active; 'I' for Inactive)
REMARK    1  A    between atoms: O_2  and  C_3 
REMARK    2  A    between atoms: C_6  and  C_7 
REMARK       I    between atoms: C_7  and  N_8 
REMARK    3  A    between atoms: N_8  and  C_9 
REMARK    4  A    between atoms: C_11  and  C_12 
REMARK    5  A    between atoms: C_12  and  C_13 
REMARK    6  A    between atoms: C_13  and  C_14 
ROOT
HETATM    1  C   UNL     1      40.305 -15.558   2.240  1.00  0.00     0.725 A 
HETATM    2  N   UNL     1      40.537 -14.312   1.916  1.00  0.00    -0.046 NA
HETATM    3  C   UNL     1      39.335 -13.854   1.450  1.00  0.00     0.166 A 
HETATM    4  N   UNL     1      38.347 -14.759   1.477  1.00  0.00    -0.144 NA
HETATM    5  N   UNL     1      38.988 -15.828   1.984  1.00  0.00    -0.106 N 
HETATM    6  H   UNL     1      38.475 -16.688   2.122  1.00  0.00     0.208 HD
ENDROOT
BRANCH   1   7
HETATM    7  N   UNL     1      41.164 -16.489   2.775  1.00  0.00    -0.152 N 
HETATM    8  C   UNL     1      41.656 -17.529   2.007  1.00  0.00     0.270 C 
HETATM    9  O   UNL     1      41.330 -17.836   0.868  1.00  0.00    -0.267 OA
HETATM   10  H   UNL     1      41.390 -16.446   3.756  1.00  0.00     0.187 HD
BRANCH   8  11
HETATM   11  C   UNL     1      42.656 -18.387   2.697  1.00  0.00     0.033 A 
HETATM   12  C   UNL     1      42.976 -18.104   4.030  1.00  0.00     0.020 A 
HETATM   13  C   UNL     1      43.891 -18.901   4.722  1.00  0.00     0.038 A 
HETATM   14  C   UNL     1      44.482 -19.995   4.090  1.00  0.00     0.068 A 
HETATM   15  C   UNL     1      44.155 -20.281   2.761  1.00  0.00     0.038 A 
HETATM   16  C   UNL     1      43.241 -19.487   2.063  1.00  0.00     0.020 A 
BRANCH  14  17
HETATM   17  O   UNL     1      45.381 -20.859   4.653  1.00  0.00    -0.356 OA
HETATM   18  C   UNL     1      44.873 -22.108   5.107  1.00  0.00     0.210 C 
ENDBRANCH  14  17
ENDBRANCH   8  11
ENDBRANCH   1   7
BRANCH   3  19
HETATM   19  C   UNL     1      39.150 -12.447   1.018  1.00  0.00     0.087 C 
BRANCH  19  20
HETATM   20  C   UNL     1      39.741 -12.186  -0.369  1.00  0.00     0.048 C 
BRANCH  20  21
HETATM   21  C   UNL     1      38.907 -12.784  -1.460  1.00  0.00    -0.030 A 
HETATM   22  C   UNL     1      39.222 -13.962  -2.211  1.00  0.00    -0.002 A 
HETATM   23  C   UNL     1      38.187 -14.166  -3.124  1.00  0.00     0.042 A 
HETATM   24  C   UNL     1      40.299 -14.872  -2.198  1.00  0.00     0.014 A 
HETATM   25  C   UNL     1      38.176 -15.235  -4.028  1.00  0.00     0.030 A 
HETATM   26  N   UNL     1      37.273 -13.156  -2.929  1.00  0.00    -0.365 N 
HETATM   27  C   UNL     1      39.256 -16.122  -3.997  1.00  0.00     0.002 A 
HETATM   28  C   UNL     1      40.304 -15.946  -3.096  1.00  0.00     0.001 A 
HETATM   29  H   UNL     1      36.415 -13.055  -3.450  1.00  0.00     0.165 HD
HETATM   30  C   UNL     1      37.697 -12.317  -1.932  1.00  0.00     0.096 A 
ENDBRANCH  20  21
ENDBRANCH  19  20
ENDBRANCH   3  19
TORSDOF 6
ENDMDL
MODEL 8
REMARK VINA RESULT:      -8.3      3.146      3.370
REMARK  6 active torsions:
REMARK  status: ('A' for Active; 'I' for Inactive)
REMARK    1  A    between atoms: O_2  and  C_3 
REMARK    2  A    between atoms: C_6  and  C_7 
REMARK       I    between atoms: C_7  and  N_8 
REMARK    3  A    between atoms: N_8  and  C_9 
REMARK    4  A    between atoms: C_11  and  C_12 
REMARK    5  A    between atoms: C_12  and  C_13 
REMARK    6  A    between atoms: C_13  and  C_14 
ROOT
HETATM    1  C   UNL     1      41.156 -14.328   5.715  1.00  0.00     0.725 A 
HETATM    2  N   UNL     1      41.616 -14.781   4.577  1.00  0.00    -0.046 NA
HETATM    3  C   UNL     1      41.300 -16.112   4.590  1.00  0.00     0.166 A 
HETATM    4  N   UNL     1      40.648 -16.517   5.688  1.00  0.00    -0.144 NA
HETATM    5  N   UNL     1      40.566 -15.368   6.381  1.00  0.00    -0.106 N 
HETATM    6  H   UNL     1      40.109 -15.369   7.283  1.00  0.00     0.208 HD
ENDROOT
BRANCH   1   7
HETATM    7  N   UNL     1      41.189 -13.048   6.215  1.00  0.00    -0.152 N 
HETATM    8  C   UNL     1      40.022 -12.347   6.458  1.00  0.00     0.270 C 
HETATM    9  O   UNL     1      38.879 -12.675   6.166  1.00  0.00    -0.267 OA
HETATM   10  H   UNL     1      42.078 -12.592   6.351  1.00  0.00     0.187 HD
BRANCH   8  11
HETATM   11  C   UNL     1      40.219 -11.019   7.100  1.00  0.00     0.033 A 
HETATM   12  C   UNL     1      39.448 -10.699   8.224  1.00  0.00     0.020 A 
HETATM   13  C   UNL     1      39.620  -9.473   8.872  1.00  0.00     0.038 A 
HETATM   14  C   UNL     1      40.573  -8.565   8.409  1.00  0.00     0.068 A 
HETATM   15  C   UNL     1      41.346  -8.892   7.291  1.00  0.00     0.038 A 
HETATM   16  C   UNL     1      41.179 -10.115   6.637  1.00  0.00     0.020 A 
BRANCH  14  17
HETATM   17  O   UNL     1      40.848  -7.342   8.955  1.00  0.00    -0.356 OA
HETATM   18  C   UNL     1      40.928  -7.276  10.374  1.00  0.00     0.210 C 
ENDBRANCH  14  17
ENDBRANCH   8  11
ENDBRANCH   1   7
BRANCH   3  19
HETATM   19  C   UNL     1      41.607 -16.998   3.441  1.00  0.00     0.087 C 
BRANCH  19  20
HETATM   20  C   UNL     1      43.109 -17.070   3.153  1.00  0.00     0.048 C 
BRANCH  20  21
HETATM   21  C   UNL     1      43.760 -18.232   3.837  1.00  0.00    -0.030 A 
HETATM   22  C   UNL     1      43.899 -19.553   3.302  1.00  0.00    -0.002 A 
HETATM   23  C   UNL     1      44.557 -20.325   4.259  1.00  0.00     0.042 A 
HETATM   24  C   UNL     1      43.521 -20.162   2.088  1.00  0.00     0.014 A 
HETATM   25  C   UNL     1      44.854 -21.680   4.064  1.00  0.00     0.030 A 
HETATM   26  N   UNL     1      44.816 -19.503   5.331  1.00  0.00    -0.365 N 
HETATM   27  C   UNL     1      44.466 -22.261   2.853  1.00  0.00     0.002 A 
HETATM   28  C   UNL     1      43.809 -21.516   1.877  1.00  0.00     0.001 A 
HETATM   29  H   UNL     1      45.290 -19.795   6.173  1.00  0.00     0.165 HD
HETATM   30  C   UNL     1      44.339 -18.242   5.090  1.00  0.00     0.096 A 
ENDBRANCH  20  21
ENDBRANCH  19  20
ENDBRANCH   3  19
TORSDOF 6
ENDMDL
MODEL 9
REMARK VINA RESULT:      -8.2      2.923      9.970
REMARK  6 active torsions:
REMARK  status: ('A' for Active; 'I' for Inactive)
REMARK    1  A    between atoms: O_2  and  C_3 
REMARK    2  A    between atoms: C_6  and  C_7 
REMARK       I    between atoms: C_7  and  N_8 
REMARK    3  A    between atoms: N_8  and  C_9 
REMARK    4  A    between atoms: C_11  and  C_12 
REMARK    5  A    between atoms: C_12  and  C_13 
REMARK    6  A    between atoms: C_13  and  C_14 
ROOT
HETATM    1  C   UNL     1      41.273 -14.070   5.669  1.00  0.00     0.725 A 
HETATM    2  N   UNL     1      41.654 -12.829   5.827  1.00  0.00    -0.046 NA
HETATM    3  C   UNL     1      40.566 -12.207   6.377  1.00  0.00     0.166 A 
HETATM    4  N   UNL     1      39.513 -13.011   6.583  1.00  0.00    -0.144 NA
HETATM    5  N   UNL     1      39.989 -14.184   6.130  1.00  0.00    -0.106 N 
HETATM    6  H   UNL     1      39.393 -15.001   6.162  1.00  0.00     0.208 HD
ENDROOT
BRANCH   1   7
HETATM    7  N   UNL     1      41.979 -15.137   5.167  1.00  0.00    -0.152 N 
HETATM    8  C   UNL     1      41.754 -16.421   5.629  1.00  0.00     0.270 C 
HETATM    9  O   UNL     1      41.048 -16.765   6.568  1.00  0.00    -0.267 OA
HETATM   10  H   UNL     1      42.714 -14.973   4.496  1.00  0.00     0.187 HD
BRANCH   8  11
HETATM   11  C   UNL     1      42.517 -17.479   4.913  1.00  0.00     0.033 A 
HETATM   12  C   UNL     1      42.187 -17.757   3.582  1.00  0.00     0.020 A 
HETATM   13  C   UNL     1      42.895 -18.726   2.865  1.00  0.00     0.038 A 
HETATM   14  C   UNL     1      43.948 -19.412   3.472  1.00  0.00     0.068 A 
HETATM   15  C   UNL     1      44.281 -19.126   4.799  1.00  0.00     0.038 A 
HETATM   16  C   UNL     1      43.576 -18.160   5.522  1.00  0.00     0.020 A 
BRANCH  14  17
HETATM   17  O   UNL     1      44.726 -20.371   2.883  1.00  0.00    -0.356 OA
HETATM   18  C   UNL     1      44.065 -21.298   2.030  1.00  0.00     0.210 C 
ENDBRANCH  14  17
ENDBRANCH   8  11
ENDBRANCH   1   7
BRANCH   3  19
HETATM   19  C   UNL     1      40.598 -10.776   6.764  1.00  0.00     0.087 C 
BRANCH  19  20
HETATM   20  C   UNL     1      41.695 -10.481   7.791  1.00  0.00     0.048 C 
BRANCH  20  21
HETATM   21  C   UNL     1      41.219 -10.678   9.197  1.00  0.00    -0.030 A 
HETATM   22  C   UNL     1      42.024 -10.589  10.378  1.00  0.00    -0.002 A 
HETATM   23  C   UNL     1      41.195 -10.844  11.471  1.00  0.00     0.042 A 
HETATM   24  C   UNL     1      43.387 -10.317  10.615  1.00  0.00     0.014 A 
HETATM   25  C   UNL     1      41.662 -10.843  12.791  1.00  0.00     0.030 A 
HETATM   26  N   UNL     1      39.933 -11.070  10.973  1.00  0.00    -0.365 N 
HETATM   27  C   UNL     1      43.018 -10.573  12.999  1.00  0.00     0.002 A 
HETATM   28  C   UNL     1      43.871 -10.313  11.929  1.00  0.00     0.001 A 
HETATM   29  H   UNL     1      39.124 -11.277  11.542  1.00  0.00     0.165 HD
HETATM   30  C   UNL     1      39.935 -10.976   9.607  1.00  0.00     0.096 A 
ENDBRANCH  20  21
ENDBRANCH  19  20
ENDBRANCH   3  19
TORSDOF 6
ENDMDL
MODEL 10
REMARK VINA RESULT:      -8.2      3.075      9.703
REMARK  6 active torsions:
REMARK  status: ('A' for Active; 'I' for Inactive)
REMARK    1  A    between atoms: O_2  and  C_3 
REMARK    2  A    between atoms: C_6  and  C_7 
REMARK       I    between atoms: C_7  and  N_8 
REMARK    3  A    between atoms: N_8  and  C_9 
REMARK    4  A    between atoms: C_11  and  C_12 
REMARK    5  A    between atoms: C_12  and  C_13 
REMARK    6  A    between atoms: C_13  and  C_14 
ROOT
HETATM    1  C   UNL     1      41.032 -14.842   5.410  1.00  0.00     0.725 A 
HETATM    2  N   UNL     1      41.479 -13.709   5.888  1.00  0.00    -0.046 NA
HETATM    3  C   UNL     1      40.351 -12.973   6.126  1.00  0.00     0.166 A 
HETATM    4  N   UNL     1      39.205 -13.601   5.828  1.00  0.00    -0.144 NA
HETATM    5  N   UNL     1      39.665 -14.783   5.381  1.00  0.00    -0.106 N 
HETATM    6  H   UNL     1      39.003 -15.484   5.075  1.00  0.00     0.208 HD
ENDROOT
BRANCH   1   7
HETATM    7  N   UNL     1      41.736 -15.955   5.014  1.00  0.00    -0.152 N 
HETATM    8  C   UNL     1      41.528 -16.525   3.772  1.00  0.00     0.270 C 
HETATM    9  O   UNL     1      40.665 -16.237   2.952  1.00  0.00    -0.267 OA
HETATM   10  H   UNL     1      42.370 -16.395   5.662  1.00  0.00     0.187 HD
BRANCH   8  11
HETATM   11  C   UNL     1      42.440 -17.654   3.448  1.00  0.00     0.033 A 
HETATM   12  C   UNL     1      43.164 -18.249   4.488  1.00  0.00     0.020 A 
HETATM   13  C   UNL     1      44.013 -19.329   4.231  1.00  0.00     0.038 A 
HETATM   14  C   UNL     1      44.133 -19.830   2.934  1.00  0.00     0.068 A 
HETATM   15  C   UNL     1      43.403 -19.238   1.899  1.00  0.00     0.038 A 
HETATM   16  C   UNL     1      42.554 -18.158   2.149  1.00  0.00     0.020 A 
BRANCH  14  17
HETATM   17  O   UNL     1      44.916 -20.883   2.550  1.00  0.00    -0.356 OA
HETATM   18  C   UNL     1      44.478 -22.181   2.934  1.00  0.00     0.210 C 
ENDBRANCH  14  17
ENDBRANCH   8  11
ENDBRANCH   1   7
BRANCH   3  19
HETATM   19  C   UNL     1      40.416 -11.619   6.728  1.00  0.00     0.087 C 
BRANCH  19  20
HETATM   20  C   UNL     1      41.854 -11.104   6.836  1.00  0.00     0.048 C 
BRANCH  20  21
HETATM   21  C   UNL     1      42.187 -10.649   8.223  1.00  0.00    -0.030 A 
HETATM   22  C   UNL     1      43.322 -11.060   8.994  1.00  0.00    -0.002 A 
HETATM   23  C   UNL     1      43.253 -10.406  10.224  1.00  0.00     0.042 A 
HETATM   24  C   UNL     1      44.403 -11.934   8.754  1.00  0.00     0.014 A 
HETATM   25  C   UNL     1      44.210 -10.585  11.230  1.00  0.00     0.030 A 
HETATM   26  N   UNL     1      42.124  -9.621  10.199  1.00  0.00    -0.365 N 
HETATM   27  C   UNL     1      45.270 -11.459  10.969  1.00  0.00     0.002 A 
HETATM   28  C   UNL     1      45.369 -12.125   9.750  1.00  0.00     0.001 A 
HETATM   29  H   UNL     1      41.824  -9.029  10.960  1.00  0.00     0.165 HD
HETATM   30  C   UNL     1      41.473  -9.760   9.001  1.00  0.00     0.096 A 
ENDBRANCH  20  21
ENDBRANCH  19  20
ENDBRANCH   3  19
TORSDOF 6
ENDMDL
