MODEL 1
REMARK VINA RESULT:      -9.3      0.000      0.000
REMARK  6 active torsions:
REMARK  status: ('A' for Active; 'I' for Inactive)
REMARK    1  A    between atoms: C_5  and  C_6 
REMARK    2  A    between atoms: C_6  and  S_7 
REMARK    3  A    between atoms: S_7  and  C_8 
REMARK    4  A    between atoms: C_10  and  N_11 
REMARK       I    between atoms: N_11  and  C_12 
REMARK    5  A    between atoms: C_12  and  C_13 
REMARK    6  A    between atoms: C_14  and  C_15 
ROOT
HETATM    1  C   UNL     1      43.583 -14.895   5.497  1.00  0.00     0.160 A 
HETATM    2  S   UNL     1      42.901 -13.377   5.889  1.00  0.00    -0.022 SA
HETATM    3  C   UNL     1      43.772 -13.438   7.351  1.00  0.00     0.197 A 
HETATM    4  N   UNL     1      44.486 -14.532   7.510  1.00  0.00    -0.122 NA
HETATM    5  N   UNL     1      44.373 -15.387   6.428  1.00  0.00    -0.133 NA
ENDROOT
BRANCH   3   6
HETATM    6  N   UNL     1      43.766 -12.427   8.282  1.00  0.00    -0.301 N 
HETATM    7  C   UNL     1      44.775 -12.129   9.163  1.00  0.00     0.247 C 
HETATM    8  O   UNL     1      45.879 -12.654   9.231  1.00  0.00    -0.268 OA
HETATM    9  H   UNL     1      42.905 -11.899   8.291  1.00  0.00     0.171 HD
BRANCH   7  10
HETATM   10  C   UNL     1      44.391 -11.043  10.111  1.00  0.00     0.075 C 
HETATM   11  C   UNL     1      43.569 -11.331  11.133  1.00  0.00     0.017 C 
BRANCH  11  12
HETATM   12  C   UNL     1      43.075 -10.366  12.127  1.00  0.00    -0.033 A 
HETATM   13  C   UNL     1      42.783 -10.728  13.450  1.00  0.00     0.051 A 
HETATM   14  C   UNL     1      42.389  -9.736  14.326  1.00  0.00     0.105 A 
HETATM   15  C   UNL     1      42.284  -8.422  13.939  1.00  0.00     0.105 A 
HETATM   16  O   UNL     1      42.081  -9.916  15.639  1.00  0.00    -0.323 OA
HETATM   17  O   UNL     1      41.896  -7.610  14.956  1.00  0.00    -0.323 OA
HETATM   18  C   UNL     1      42.567  -8.024  12.652  1.00  0.00     0.040 A 
HETATM   19  C   UNL     1      41.784  -8.560  16.035  1.00  0.00     0.352 A 
HETATM   20  C   UNL     1      42.970  -9.008  11.743  1.00  0.00     0.014 A 
ENDBRANCH  11  12
ENDBRANCH   7  10
ENDBRANCH   3   6
BRANCH   1  21
HETATM   21  S   UNL     1      43.264 -15.698   3.981  1.00  0.00    -0.096 SA
BRANCH  21  22
HETATM   22  C   UNL     1      42.586 -17.281   4.565  1.00  0.00     0.123 C 
BRANCH  22  23
HETATM   23  C   UNL     1      43.272 -18.445   3.884  1.00  0.00    -0.005 A 
HETATM   24  C   UNL     1      42.919 -18.839   2.577  1.00  0.00     0.042 A 
HETATM   25  C   UNL     1      43.531 -19.936   1.959  1.00  0.00     0.024 A 
HETATM   26 CL   UNL     1      41.709 -18.008   1.659  1.00  0.00    -0.084 Cl
HETATM   27  C   UNL     1      44.501 -20.670   2.633  1.00  0.00     0.003 A 
HETATM   28  C   UNL     1      44.859 -20.308   3.928  1.00  0.00     0.024 A 
HETATM   29  C   UNL     1      44.251 -19.210   4.549  1.00  0.00     0.042 A 
HETATM   30 CL   UNL     1      44.757 -18.854   6.166  1.00  0.00    -0.084 Cl
ENDBRANCH  22  23
ENDBRANCH  21  22
ENDBRANCH   1  21
TORSDOF 6
ENDMDL
MODEL 2
REMARK VINA RESULT:      -9.2      0.888      2.149
REMARK  6 active torsions:
REMARK  status: ('A' for Active; 'I' for Inactive)
REMARK    1  A    between atoms: C_5  and  C_6 
REMARK    2  A    between atoms: C_6  and  S_7 
REMARK    3  A    between atoms: S_7  and  C_8 
REMARK    4  A    between atoms: C_10  and  N_11 
REMARK       I    between atoms: N_11  and  C_12 
REMARK    5  A    between atoms: C_12  and  C_13 
REMARK    6  A    between atoms: C_14  and  C_15 
ROOT
HETATM    1  C   UNL     1      43.606 -15.058   5.407  1.00  0.00     0.160 A 
HETATM    2  S   UNL     1      42.970 -13.547   5.894  1.00  0.00    -0.022 SA
HETATM    3  C   UNL     1      43.901 -13.688   7.313  1.00  0.00     0.197 A 
HETATM    4  N   UNL     1      44.600 -14.800   7.393  1.00  0.00    -0.122 NA
HETATM    5  N   UNL     1      44.425 -15.604   6.281  1.00  0.00    -0.133 NA
ENDROOT
BRANCH   3   6
HETATM    6  N   UNL     1      43.954 -12.719   8.287  1.00  0.00    -0.301 N 
HETATM    7  C   UNL     1      45.089 -12.123   8.776  1.00  0.00     0.247 C 
HETATM    8  O   UNL     1      46.239 -12.288   8.391  1.00  0.00    -0.268 OA
HETATM    9  H   UNL     1      43.046 -12.477   8.657  1.00  0.00     0.171 HD
BRANCH   7  10
HETATM   10  C   UNL     1      44.792 -11.196   9.908  1.00  0.00     0.075 C 
HETATM   11  C   UNL     1      43.519 -11.042  10.306  1.00  0.00     0.017 C 
BRANCH  11  12
HETATM   12  C   UNL     1      43.065 -10.145  11.379  1.00  0.00    -0.033 A 
HETATM   13  C   UNL     1      41.924  -9.338  11.256  1.00  0.00     0.051 A 
HETATM   14  C   UNL     1      41.540  -8.581  12.344  1.00  0.00     0.105 A 
HETATM   15  C   UNL     1      42.235  -8.604  13.530  1.00  0.00     0.105 A 
HETATM   16  O   UNL     1      40.458  -7.757  12.394  1.00  0.00    -0.323 OA
HETATM   17  O   UNL     1      41.681  -7.798  14.473  1.00  0.00    -0.323 OA
HETATM   18  C   UNL     1      43.355  -9.386  13.694  1.00  0.00     0.040 A 
HETATM   19  C   UNL     1      40.546  -7.276  13.752  1.00  0.00     0.352 A 
HETATM   20  C   UNL     1      43.767 -10.165  12.607  1.00  0.00     0.014 A 
ENDBRANCH  11  12
ENDBRANCH   7  10
ENDBRANCH   3   6
BRANCH   1  21
HETATM   21  S   UNL     1      43.207 -15.787   3.872  1.00  0.00    -0.096 SA
BRANCH  21  22
HETATM   22  C   UNL     1      42.437 -17.341   4.419  1.00  0.00     0.123 C 
BRANCH  22  23
HETATM   23  C   UNL     1      43.092 -18.530   3.751  1.00  0.00    -0.005 A 
HETATM   24  C   UNL     1      44.049 -19.313   4.427  1.00  0.00     0.042 A 
HETATM   25  C   UNL     1      44.680 -20.394   3.799  1.00  0.00     0.024 A 
HETATM   26 CL   UNL     1      44.517 -18.988   6.063  1.00  0.00    -0.084 Cl
HETATM   27  C   UNL     1      44.376 -20.713   2.479  1.00  0.00     0.003 A 
HETATM   28  C   UNL     1      43.442 -19.950   1.787  1.00  0.00     0.024 A 
HETATM   29  C   UNL     1      42.807 -18.869   2.413  1.00  0.00     0.042 A 
HETATM   30 CL   UNL     1      41.674 -17.974   1.458  1.00  0.00    -0.084 Cl
ENDBRANCH  22  23
ENDBRANCH  21  22
ENDBRANCH   1  21
TORSDOF 6
ENDMDL
MODEL 3
REMARK VINA RESULT:      -9.0      1.697      2.240
REMARK  6 active torsions:
REMARK  status: ('A' for Active; 'I' for Inactive)
REMARK    1  A    between atoms: C_5  and  C_6 
REMARK    2  A    between atoms: C_6  and  S_7 
REMARK    3  A    between atoms: S_7  and  C_8 
REMARK    4  A    between atoms: C_10  and  N_11 
REMARK       I    between atoms: N_11  and  C_12 
REMARK    5  A    between atoms: C_12  and  C_13 
REMARK    6  A    between atoms: C_14  and  C_15 
ROOT
HETATM    1  C   UNL     1      43.106 -16.230   5.216  1.00  0.00     0.160 A 
HETATM    2  S   UNL     1      43.236 -15.969   6.901  1.00  0.00    -0.022 SA
HETATM    3  C   UNL     1      43.553 -14.332   6.555  1.00  0.00     0.197 A 
HETATM    4  N   UNL     1      43.576 -14.045   5.271  1.00  0.00    -0.122 NA
HETATM    5  N   UNL     1      43.318 -15.155   4.487  1.00  0.00    -0.133 NA
ENDROOT
BRANCH   3   6
HETATM    6  N   UNL     1      43.740 -13.373   7.522  1.00  0.00    -0.301 N 
HETATM    7  C   UNL     1      44.946 -12.880   7.953  1.00  0.00     0.247 C 
HETATM    8  O   UNL     1      46.056 -13.145   7.511  1.00  0.00    -0.268 OA
HETATM    9  H   UNL     1      42.876 -13.053   7.937  1.00  0.00     0.171 HD
BRANCH   7  10
HETATM   10  C   UNL     1      44.789 -11.933   9.096  1.00  0.00     0.075 C 
HETATM   11  C   UNL     1      43.568 -11.453   9.380  1.00  0.00     0.017 C 
BRANCH  11  12
HETATM   12  C   UNL     1      43.257 -10.490  10.448  1.00  0.00    -0.033 A 
HETATM   13  C   UNL     1      42.224  -9.549  10.339  1.00  0.00     0.051 A 
HETATM   14  C   UNL     1      41.967  -8.734  11.423  1.00  0.00     0.105 A 
HETATM   15  C   UNL     1      42.685  -8.828  12.592  1.00  0.00     0.105 A 
HETATM   16  O   UNL     1      40.998  -7.781  11.486  1.00  0.00    -0.323 OA
HETATM   17  O   UNL     1      42.261  -7.945  13.534  1.00  0.00    -0.323 OA
HETATM   18  C   UNL     1      43.702  -9.741  12.742  1.00  0.00     0.040 A 
HETATM   19  C   UNL     1      41.181  -7.296  12.833  1.00  0.00     0.352 A 
HETATM   20  C   UNL     1      43.985 -10.581  11.658  1.00  0.00     0.014 A 
ENDBRANCH  11  12
ENDBRANCH   7  10
ENDBRANCH   3   6
BRANCH   1  21
HETATM   21  S   UNL     1      42.706 -17.789   4.541  1.00  0.00    -0.096 SA
BRANCH  21  22
HETATM   22  C   UNL     1      44.315 -18.629   4.634  1.00  0.00     0.123 C 
BRANCH  22  23
HETATM   23  C   UNL     1      44.344 -19.840   3.729  1.00  0.00    -0.005 A 
HETATM   24  C   UNL     1      44.226 -19.711   2.330  1.00  0.00     0.042 A 
HETATM   25  C   UNL     1      44.219 -20.834   1.495  1.00  0.00     0.024 A 
HETATM   26 CL   UNL     1      44.070 -18.170   1.557  1.00  0.00    -0.084 Cl
HETATM   27  C   UNL     1      44.321 -22.112   2.035  1.00  0.00     0.003 A 
HETATM   28  C   UNL     1      44.429 -22.267   3.413  1.00  0.00     0.024 A 
HETATM   29  C   UNL     1      44.438 -21.146   4.253  1.00  0.00     0.042 A 
HETATM   30 CL   UNL     1      44.558 -21.449   5.953  1.00  0.00    -0.084 Cl
ENDBRANCH  22  23
ENDBRANCH  21  22
ENDBRANCH   1  21
TORSDOF 6
ENDMDL
MODEL 4
REMARK VINA RESULT:      -8.7      1.342      1.610
REMARK  6 active torsions:
REMARK  status: ('A' for Active; 'I' for Inactive)
REMARK    1  A    between atoms: C_5  and  C_6 
REMARK    2  A    between atoms: C_6  and  S_7 
REMARK    3  A    between atoms: S_7  and  C_8 
REMARK    4  A    between atoms: C_10  and  N_11 
REMARK       I    between atoms: N_11  and  C_12 
REMARK    5  A    between atoms: C_12  and  C_13 
REMARK    6  A    between atoms: C_14  and  C_15 
ROOT
HETATM    1  C   UNL     1      43.205 -14.459   4.549  1.00  0.00     0.160 A 
HETATM    2  S   UNL     1      43.920 -14.582   6.098  1.00  0.00    -0.022 SA
HETATM    3  C   UNL     1      43.208 -13.081   6.472  1.00  0.00     0.197 A 
HETATM    4  N   UNL     1      42.518 -12.549   5.485  1.00  0.00    -0.122 NA
HETATM    5  N   UNL     1      42.519 -13.352   4.359  1.00  0.00    -0.133 NA
ENDROOT
BRANCH   3   6
HETATM    6  N   UNL     1      43.308 -12.478   7.703  1.00  0.00    -0.301 N 
HETATM    7  C   UNL     1      44.442 -12.385   8.471  1.00  0.00     0.247 C 
HETATM    8  O   UNL     1      45.571 -12.752   8.173  1.00  0.00    -0.268 OA
HETATM    9  H   UNL     1      42.431 -12.104   8.035  1.00  0.00     0.171 HD
BRANCH   7  10
HETATM   10  C   UNL     1      44.169 -11.767   9.801  1.00  0.00     0.075 C 
HETATM   11  C   UNL     1      43.214 -10.829   9.899  1.00  0.00     0.017 C 
BRANCH  11  12
HETATM   12  C   UNL     1      42.853 -10.106  11.129  1.00  0.00    -0.033 A 
HETATM   13  C   UNL     1      41.616  -9.465  11.291  1.00  0.00     0.051 A 
HETATM   14  C   UNL     1      41.344  -8.872  12.508  1.00  0.00     0.105 A 
HETATM   15  C   UNL     1      42.241  -8.899  13.549  1.00  0.00     0.105 A 
HETATM   16  O   UNL     1      40.194  -8.222  12.832  1.00  0.00    -0.323 OA
HETATM   17  O   UNL     1      41.771  -8.270  14.657  1.00  0.00    -0.323 OA
HETATM   18  C   UNL     1      43.462  -9.521  13.432  1.00  0.00     0.040 A 
HETATM   19  C   UNL     1      40.466  -7.856  14.202  1.00  0.00     0.352 A 
HETATM   20  C   UNL     1      43.765 -10.133  12.210  1.00  0.00     0.014 A 
ENDBRANCH  11  12
ENDBRANCH   7  10
ENDBRANCH   3   6
BRANCH   1  21
HETATM   21  S   UNL     1      43.366 -15.712   3.345  1.00  0.00    -0.096 SA
BRANCH  21  22
HETATM   22  C   UNL     1      42.796 -17.164   4.280  1.00  0.00     0.123 C 
BRANCH  22  23
HETATM   23  C   UNL     1      43.384 -18.436   3.711  1.00  0.00    -0.005 A 
HETATM   24  C   UNL     1      42.943 -18.959   2.479  1.00  0.00     0.042 A 
HETATM   25  C   UNL     1      43.464 -20.153   1.968  1.00  0.00     0.024 A 
HETATM   26 CL   UNL     1      41.728 -18.174   1.527  1.00  0.00    -0.084 Cl
HETATM   27  C   UNL     1      44.431 -20.858   2.678  1.00  0.00     0.003 A 
HETATM   28  C   UNL     1      44.876 -20.368   3.902  1.00  0.00     0.024 A 
HETATM   29  C   UNL     1      44.358 -19.172   4.416  1.00  0.00     0.042 A 
HETATM   30 CL   UNL     1      44.967 -18.659   5.953  1.00  0.00    -0.084 Cl
ENDBRANCH  22  23
ENDBRANCH  21  22
ENDBRANCH   1  21
TORSDOF 6
ENDMDL
MODEL 5
REMARK VINA RESULT:      -8.6      7.993     10.018
REMARK  6 active torsions:
REMARK  status: ('A' for Active; 'I' for Inactive)
REMARK    1  A    between atoms: C_5  and  C_6 
REMARK    2  A    between atoms: C_6  and  S_7 
REMARK    3  A    between atoms: S_7  and  C_8 
REMARK    4  A    between atoms: C_10  and  N_11 
REMARK       I    between atoms: N_11  and  C_12 
REMARK    5  A    between atoms: C_12  and  C_13 
REMARK    6  A    between atoms: C_14  and  C_15 
ROOT
HETATM    1  C   UNL     1      42.780 -17.675   5.585  1.00  0.00     0.160 A 
HETATM    2  S   UNL     1      41.283 -17.928   4.797  1.00  0.00    -0.022 SA
HETATM    3  C   UNL     1      41.266 -16.262   4.441  1.00  0.00     0.197 A 
HETATM    4  N   UNL     1      42.301 -15.598   4.910  1.00  0.00    -0.122 NA
HETATM    5  N   UNL     1      43.185 -16.423   5.582  1.00  0.00    -0.133 NA
ENDROOT
BRANCH   3   6
HETATM    6  N   UNL     1      40.280 -15.653   3.702  1.00  0.00    -0.301 N 
HETATM    7  C   UNL     1      40.048 -15.827   2.360  1.00  0.00     0.247 C 
HETATM    8  O   UNL     1      40.620 -16.599   1.602  1.00  0.00    -0.268 OA
HETATM    9  H   UNL     1      39.717 -15.012   4.242  1.00  0.00     0.171 HD
BRANCH   7  10
HETATM   10  C   UNL     1      38.971 -14.925   1.856  1.00  0.00     0.075 C 
HETATM   11  C   UNL     1      39.168 -14.253   0.711  1.00  0.00     0.017 C 
BRANCH  11  12
HETATM   12  C   UNL     1      38.220 -13.305   0.105  1.00  0.00    -0.033 A 
HETATM   13  C   UNL     1      37.210 -12.672   0.844  1.00  0.00     0.051 A 
HETATM   14  C   UNL     1      36.413 -11.748   0.199  1.00  0.00     0.105 A 
HETATM   15  C   UNL     1      36.588 -11.432  -1.127  1.00  0.00     0.105 A 
HETATM   16  O   UNL     1      35.400 -11.041   0.770  1.00  0.00    -0.323 OA
HETATM   17  O   UNL     1      35.709 -10.491  -1.559  1.00  0.00    -0.323 OA
HETATM   18  C   UNL     1      37.571 -12.025  -1.885  1.00  0.00     0.040 A 
HETATM   19  C   UNL     1      34.968 -10.235  -0.347  1.00  0.00     0.352 A 
HETATM   20  C   UNL     1      38.395 -12.967  -1.257  1.00  0.00     0.014 A 
ENDBRANCH  11  12
ENDBRANCH   7  10
ENDBRANCH   3   6
BRANCH   1  21
HETATM   21  S   UNL     1      43.688 -18.981   6.305  1.00  0.00    -0.096 SA
BRANCH  21  22
HETATM   22  C   UNL     1      45.033 -19.172   5.097  1.00  0.00     0.123 C 
BRANCH  22  23
HETATM   23  C   UNL     1      44.609 -20.069   3.956  1.00  0.00    -0.005 A 
HETATM   24  C   UNL     1      44.669 -21.473   4.067  1.00  0.00     0.042 A 
HETATM   25  C   UNL     1      44.307 -22.303   2.999  1.00  0.00     0.024 A 
HETATM   26 CL   UNL     1      45.201 -22.261   5.514  1.00  0.00    -0.084 Cl
HETATM   27  C   UNL     1      43.885 -21.752   1.793  1.00  0.00     0.003 A 
HETATM   28  C   UNL     1      43.827 -20.369   1.655  1.00  0.00     0.024 A 
HETATM   29  C   UNL     1      44.186 -19.535   2.721  1.00  0.00     0.042 A 
HETATM   30 CL   UNL     1      44.094 -17.830   2.439  1.00  0.00    -0.084 Cl
ENDBRANCH  22  23
ENDBRANCH  21  22
ENDBRANCH   1  21
TORSDOF 6
ENDMDL
MODEL 6
REMARK VINA RESULT:      -8.6      8.366     11.570
REMARK  6 active torsions:
REMARK  status: ('A' for Active; 'I' for Inactive)
REMARK    1  A    between atoms: C_5  and  C_6 
REMARK    2  A    between atoms: C_6  and  S_7 
REMARK    3  A    between atoms: S_7  and  C_8 
REMARK    4  A    between atoms: C_10  and  N_11 
REMARK       I    between atoms: N_11  and  C_12 
REMARK    5  A    between atoms: C_12  and  C_13 
REMARK    6  A    between atoms: C_14  and  C_15 
ROOT
HETATM    1  C   UNL     1      40.439 -12.420  -0.362  1.00  0.00     0.160 A 
HETATM    2  S   UNL     1      40.005 -13.928   0.316  1.00  0.00    -0.022 SA
HETATM    3  C   UNL     1      41.623 -14.089   0.825  1.00  0.00     0.197 A 
HETATM    4  N   UNL     1      42.401 -13.086   0.477  1.00  0.00    -0.122 NA
HETATM    5  N   UNL     1      41.711 -12.111  -0.220  1.00  0.00    -0.133 NA
ENDROOT
BRANCH   3   6
HETATM    6  N   UNL     1      42.086 -15.152   1.563  1.00  0.00    -0.301 N 
HETATM    7  C   UNL     1      42.573 -15.098   2.845  1.00  0.00     0.247 C 
HETATM    8  O   UNL     1      42.617 -14.121   3.582  1.00  0.00    -0.268 OA
HETATM    9  H   UNL     1      42.062 -16.027   1.059  1.00  0.00     0.171 HD
BRANCH   7  10
HETATM   10  C   UNL     1      43.096 -16.419   3.302  1.00  0.00     0.075 C 
HETATM   11  C   UNL     1      43.182 -17.426   2.418  1.00  0.00     0.017 C 
BRANCH  11  12
HETATM   12  C   UNL     1      43.644 -18.789   2.721  1.00  0.00    -0.033 A 
HETATM   13  C   UNL     1      44.159 -19.150   3.975  1.00  0.00     0.051 A 
HETATM   14  C   UNL     1      44.502 -20.471   4.183  1.00  0.00     0.105 A 
HETATM   15  C   UNL     1      44.346 -21.427   3.208  1.00  0.00     0.105 A 
HETATM   16  O   UNL     1      45.003 -20.986   5.338  1.00  0.00    -0.323 OA
HETATM   17  O   UNL     1      44.731 -22.661   3.624  1.00  0.00    -0.323 OA
HETATM   18  C   UNL     1      43.839 -21.116   1.968  1.00  0.00     0.040 A 
HETATM   19  C   UNL     1      45.132 -22.378   4.981  1.00  0.00     0.352 A 
HETATM   20  C   UNL     1      43.482 -19.784   1.728  1.00  0.00     0.014 A 
ENDBRANCH  11  12
ENDBRANCH   7  10
ENDBRANCH   3   6
BRANCH   1  21
HETATM   21  S   UNL     1      39.277 -11.383  -1.151  1.00  0.00    -0.096 SA
BRANCH  21  22
HETATM   22  C   UNL     1      39.608 -11.762  -2.898  1.00  0.00     0.123 C 
BRANCH  22  23
HETATM   23  C   UNL     1      39.133 -13.155  -3.246  1.00  0.00    -0.005 A 
HETATM   24  C   UNL     1      40.045 -14.218  -3.412  1.00  0.00     0.042 A 
HETATM   25  C   UNL     1      39.609 -15.500  -3.766  1.00  0.00     0.024 A 
HETATM   26 CL   UNL     1      41.751 -14.009  -3.203  1.00  0.00    -0.084 Cl
HETATM   27  C   UNL     1      38.256 -15.751  -3.970  1.00  0.00     0.003 A 
HETATM   28  C   UNL     1      37.338 -14.716  -3.823  1.00  0.00     0.024 A 
HETATM   29  C   UNL     1      37.769 -13.432  -3.467  1.00  0.00     0.042 A 
HETATM   30 CL   UNL     1      36.548 -12.214  -3.325  1.00  0.00    -0.084 Cl
ENDBRANCH  22  23
ENDBRANCH  21  22
ENDBRANCH   1  21
TORSDOF 6
ENDMDL
MODEL 7
REMARK VINA RESULT:      -8.5      2.131      3.018
REMARK  6 active torsions:
REMARK  status: ('A' for Active; 'I' for Inactive)
REMARK    1  A    between atoms: C_5  and  C_6 
REMARK    2  A    between atoms: C_6  and  S_7 
REMARK    3  A    between atoms: S_7  and  C_8 
REMARK    4  A    between atoms: C_10  and  N_11 
REMARK       I    between atoms: N_11  and  C_12 
REMARK    5  A    between atoms: C_12  and  C_13 
REMARK    6  A    between atoms: C_14  and  C_15 
ROOT
HETATM    1  C   UNL     1      43.776 -16.109   5.631  1.00  0.00     0.160 A 
HETATM    2  S   UNL     1      43.928 -15.849   7.315  1.00  0.00    -0.022 SA
HETATM    3  C   UNL     1      43.962 -14.178   6.986  1.00  0.00     0.197 A 
HETATM    4  N   UNL     1      43.887 -13.877   5.707  1.00  0.00    -0.122 NA
HETATM    5  N   UNL     1      43.782 -15.005   4.914  1.00  0.00    -0.133 NA
ENDROOT
BRANCH   3   6
HETATM    6  N   UNL     1      44.029 -13.213   7.962  1.00  0.00    -0.301 N 
HETATM    7  C   UNL     1      45.165 -12.579   8.399  1.00  0.00     0.247 C 
HETATM    8  O   UNL     1      46.300 -12.701   7.956  1.00  0.00    -0.268 OA
HETATM    9  H   UNL     1      43.132 -13.005   8.379  1.00  0.00     0.171 HD
BRANCH   7  10
HETATM   10  C   UNL     1      44.892 -11.670   9.551  1.00  0.00     0.075 C 
HETATM   11  C   UNL     1      43.635 -11.251   9.766  1.00  0.00     0.017 C 
BRANCH  11  12
HETATM   12  C   UNL     1      43.214 -10.331  10.833  1.00  0.00    -0.033 A 
HETATM   13  C   UNL     1      42.159  -9.421  10.672  1.00  0.00     0.051 A 
HETATM   14  C   UNL     1      41.795  -8.646  11.756  1.00  0.00     0.105 A 
HETATM   15  C   UNL     1      42.427  -8.751  12.972  1.00  0.00     0.105 A 
HETATM   16  O   UNL     1      40.792  -7.727  11.771  1.00  0.00    -0.323 OA
HETATM   17  O   UNL     1      41.905  -7.911  13.903  1.00  0.00    -0.323 OA
HETATM   18  C   UNL     1      43.461  -9.636  13.173  1.00  0.00     0.040 A 
HETATM   19  C   UNL     1      40.858  -7.276  13.140  1.00  0.00     0.352 A 
HETATM   20  C   UNL     1      43.852 -10.434  12.092  1.00  0.00     0.014 A 
ENDBRANCH  11  12
ENDBRANCH   7  10
ENDBRANCH   3   6
BRANCH   1  21
HETATM   21  S   UNL     1      43.607 -17.704   4.944  1.00  0.00    -0.096 SA
BRANCH  21  22
HETATM   22  C   UNL     1      41.816 -17.759   4.637  1.00  0.00     0.123 C 
BRANCH  22  23
HETATM   23  C   UNL     1      41.475 -17.103   3.318  1.00  0.00    -0.005 A 
HETATM   24  C   UNL     1      41.862 -17.681   2.092  1.00  0.00     0.042 A 
HETATM   25  C   UNL     1      41.576 -17.057   0.871  1.00  0.00     0.024 A 
HETATM   26 CL   UNL     1      42.722 -19.182   2.011  1.00  0.00    -0.084 Cl
HETATM   27  C   UNL     1      40.905 -15.839   0.846  1.00  0.00     0.003 A 
HETATM   28  C   UNL     1      40.521 -15.243   2.043  1.00  0.00     0.024 A 
HETATM   29  C   UNL     1      40.804 -15.864   3.266  1.00  0.00     0.042 A 
HETATM   30 CL   UNL     1      40.298 -15.032   4.696  1.00  0.00    -0.084 Cl
ENDBRANCH  22  23
ENDBRANCH  21  22
ENDBRANCH   1  21
TORSDOF 6
ENDMDL
MODEL 8
REMARK VINA RESULT:      -8.5      2.547      3.239
REMARK  6 active torsions:
REMARK  status: ('A' for Active; 'I' for Inactive)
REMARK    1  A    between atoms: C_5  and  C_6 
REMARK    2  A    between atoms: C_6  and  S_7 
REMARK    3  A    between atoms: S_7  and  C_8 
REMARK    4  A    between atoms: C_10  and  N_11 
REMARK       I    between atoms: N_11  and  C_12 
REMARK    5  A    between atoms: C_12  and  C_13 
REMARK    6  A    between atoms: C_14  and  C_15 
ROOT
HETATM    1  C   UNL     1      41.044 -14.861   4.287  1.00  0.00     0.160 A 
HETATM    2  S   UNL     1      42.202 -14.146   5.322  1.00  0.00    -0.022 SA
HETATM    3  C   UNL     1      40.973 -13.097   5.860  1.00  0.00     0.197 A 
HETATM    4  N   UNL     1      39.809 -13.281   5.274  1.00  0.00    -0.122 NA
HETATM    5  N   UNL     1      39.851 -14.310   4.351  1.00  0.00    -0.133 NA
ENDROOT
BRANCH   3   6
HETATM    6  N   UNL     1      41.156 -12.154   6.845  1.00  0.00    -0.301 N 
HETATM    7  C   UNL     1      41.359 -10.811   6.653  1.00  0.00     0.247 C 
HETATM    8  O   UNL     1      41.343 -10.202   5.592  1.00  0.00    -0.268 OA
HETATM    9  H   UNL     1      41.152 -12.546   7.776  1.00  0.00     0.171 HD
BRANCH   7  10
HETATM   10  C   UNL     1      41.635 -10.097   7.935  1.00  0.00     0.075 C 
HETATM   11  C   UNL     1      42.209 -10.771   8.944  1.00  0.00     0.017 C 
BRANCH  11  12
HETATM   12  C   UNL     1      42.513 -10.219  10.274  1.00  0.00    -0.033 A 
HETATM   13  C   UNL     1      41.674  -9.296  10.917  1.00  0.00     0.051 A 
HETATM   14  C   UNL     1      42.011  -8.889  12.192  1.00  0.00     0.105 A 
HETATM   15  C   UNL     1      43.126  -9.364  12.839  1.00  0.00     0.105 A 
HETATM   16  O   UNL     1      41.304  -8.012  12.955  1.00  0.00    -0.323 OA
HETATM   17  O   UNL     1      43.264  -8.846  14.087  1.00  0.00    -0.323 OA
HETATM   18  C   UNL     1      43.971 -10.274  12.246  1.00  0.00     0.040 A 
HETATM   19  C   UNL     1      42.097  -8.002  14.161  1.00  0.00     0.352 A 
HETATM   20  C   UNL     1      43.654 -10.706  10.953  1.00  0.00     0.014 A 
ENDBRANCH  11  12
ENDBRANCH   7  10
ENDBRANCH   3   6
BRANCH   1  21
HETATM   21  S   UNL     1      41.425 -16.219   3.258  1.00  0.00    -0.096 SA
BRANCH  21  22
HETATM   22  C   UNL     1      43.230 -16.311   3.461  1.00  0.00     0.123 C 
BRANCH  22  23
HETATM   23  C   UNL     1      43.688 -17.749   3.556  1.00  0.00    -0.005 A 
HETATM   24  C   UNL     1      43.981 -18.343   4.801  1.00  0.00     0.042 A 
HETATM   25  C   UNL     1      44.437 -19.663   4.887  1.00  0.00     0.024 A 
HETATM   26 CL   UNL     1      43.809 -17.484   6.295  1.00  0.00    -0.084 Cl
HETATM   27  C   UNL     1      44.620 -20.419   3.733  1.00  0.00     0.003 A 
HETATM   28  C   UNL     1      44.348 -19.853   2.492  1.00  0.00     0.024 A 
HETATM   29  C   UNL     1      43.890 -18.532   2.402  1.00  0.00     0.042 A 
HETATM   30 CL   UNL     1      43.598 -17.918   0.810  1.00  0.00    -0.084 Cl
ENDBRANCH  22  23
ENDBRANCH  21  22
ENDBRANCH   1  21
TORSDOF 6
ENDMDL
MODEL 9
REMARK VINA RESULT:      -8.4      2.582      2.908
REMARK  6 active torsions:
REMARK  status: ('A' for Active; 'I' for Inactive)
REMARK    1  A    between atoms: C_5  and  C_6 
REMARK    2  A    between atoms: C_6  and  S_7 
REMARK    3  A    between atoms: S_7  and  C_8 
REMARK    4  A    between atoms: C_10  and  N_11 
REMARK       I    between atoms: N_11  and  C_12 
REMARK    5  A    between atoms: C_12  and  C_13 
REMARK    6  A    between atoms: C_14  and  C_15 
ROOT
HETATM    1  C   UNL     1      41.053 -14.872   4.299  1.00  0.00     0.160 A 
HETATM    2  S   UNL     1      42.165 -14.188   5.403  1.00  0.00    -0.022 SA
HETATM    3  C   UNL     1      40.972 -13.033   5.786  1.00  0.00     0.197 A 
HETATM    4  N   UNL     1      39.853 -13.166   5.105  1.00  0.00    -0.122 NA
HETATM    5  N   UNL     1      39.901 -14.238   4.233  1.00  0.00    -0.133 NA
ENDROOT
BRANCH   3   6
HETATM    6  N   UNL     1      41.136 -12.060   6.743  1.00  0.00    -0.301 N 
HETATM    7  C   UNL     1      41.411 -10.735   6.513  1.00  0.00     0.247 C 
HETATM    8  O   UNL     1      41.487 -10.170   5.430  1.00  0.00    -0.268 OA
HETATM    9  H   UNL     1      41.058 -12.413   7.686  1.00  0.00     0.171 HD
BRANCH   7  10
HETATM   10  C   UNL     1      41.638  -9.982   7.782  1.00  0.00     0.075 C 
HETATM   11  C   UNL     1      42.168 -10.626   8.834  1.00  0.00     0.017 C 
BRANCH  11  12
HETATM   12  C   UNL     1      42.421 -10.033  10.157  1.00  0.00    -0.033 A 
HETATM   13  C   UNL     1      41.601  -9.036  10.706  1.00  0.00     0.051 A 
HETATM   14  C   UNL     1      41.881  -8.591  11.982  1.00  0.00     0.105 A 
HETATM   15  C   UNL     1      42.924  -9.099  12.718  1.00  0.00     0.105 A 
HETATM   16  O   UNL     1      41.182  -7.642  12.661  1.00  0.00    -0.323 OA
HETATM   17  O   UNL     1      43.015  -8.535  13.951  1.00  0.00    -0.323 OA
HETATM   18  C   UNL     1      43.748 -10.081  12.219  1.00  0.00     0.040 A 
HETATM   19  C   UNL     1      41.898  -7.623  13.915  1.00  0.00     0.352 A 
HETATM   20  C   UNL     1      43.487 -10.552  10.927  1.00  0.00     0.014 A 
ENDBRANCH  11  12
ENDBRANCH   7  10
ENDBRANCH   3   6
BRANCH   1  21
HETATM   21  S   UNL     1      41.423 -16.299   3.365  1.00  0.00    -0.096 SA
BRANCH  21  22
HETATM   22  C   UNL     1      43.239 -16.317   3.468  1.00  0.00     0.123 C 
BRANCH  22  23
HETATM   23  C   UNL     1      43.759 -17.734   3.556  1.00  0.00    -0.005 A 
HETATM   24  C   UNL     1      43.953 -18.516   2.399  1.00  0.00     0.042 A 
HETATM   25  C   UNL     1      44.403 -19.839   2.482  1.00  0.00     0.024 A 
HETATM   26 CL   UNL     1      43.639 -17.903   0.810  1.00  0.00    -0.084 Cl
HETATM   27  C   UNL     1      44.662 -20.416   3.721  1.00  0.00     0.003 A 
HETATM   28  C   UNL     1      44.468 -19.669   4.879  1.00  0.00     0.024 A 
HETATM   29  C   UNL     1      44.020 -18.344   4.800  1.00  0.00     0.042 A 
HETATM   30 CL   UNL     1      43.796 -17.509   6.299  1.00  0.00    -0.084 Cl
ENDBRANCH  22  23
ENDBRANCH  21  22
ENDBRANCH   1  21
TORSDOF 6
ENDMDL
MODEL 10
REMARK VINA RESULT:      -8.4      8.647     11.827
REMARK  6 active torsions:
REMARK  status: ('A' for Active; 'I' for Inactive)
REMARK    1  A    between atoms: C_5  and  C_6 
REMARK    2  A    between atoms: C_6  and  S_7 
REMARK    3  A    between atoms: S_7  and  C_8 
REMARK    4  A    between atoms: C_10  and  N_11 
REMARK       I    between atoms: N_11  and  C_12 
REMARK    5  A    between atoms: C_12  and  C_13 
REMARK    6  A    between atoms: C_14  and  C_15 
ROOT
HETATM    1  C   UNL     1      40.294 -12.895  -0.416  1.00  0.00     0.160 A 
HETATM    2  S   UNL     1      41.678 -13.798   0.027  1.00  0.00    -0.022 SA
HETATM    3  C   UNL     1      40.646 -14.805   0.934  1.00  0.00     0.197 A 
HETATM    4  N   UNL     1      39.379 -14.450   0.904  1.00  0.00    -0.122 NA
HETATM    5  N   UNL     1      39.173 -13.331   0.118  1.00  0.00    -0.133 NA
ENDROOT
BRANCH   3   6
HETATM    6  N   UNL     1      41.079 -15.916   1.619  1.00  0.00    -0.301 N 
HETATM    7  C   UNL     1      41.331 -15.991   2.966  1.00  0.00     0.247 C 
HETATM    8  O   UNL     1      41.150 -15.118   3.805  1.00  0.00    -0.268 OA
HETATM    9  H   UNL     1      41.230 -16.717   1.023  1.00  0.00     0.171 HD
BRANCH   7  10
HETATM   10  C   UNL     1      41.897 -17.315   3.358  1.00  0.00     0.075 C 
HETATM   11  C   UNL     1      42.750 -17.931   2.523  1.00  0.00     0.017 C 
BRANCH  11  12
HETATM   12  C   UNL     1      43.363 -19.249   2.751  1.00  0.00    -0.033 A 
HETATM   13  C   UNL     1      43.961 -19.602   3.969  1.00  0.00     0.051 A 
HETATM   14  C   UNL     1      44.449 -20.886   4.108  1.00  0.00     0.105 A 
HETATM   15  C   UNL     1      44.357 -21.813   3.097  1.00  0.00     0.105 A 
HETATM   16  O   UNL     1      45.044 -21.391   5.222  1.00  0.00    -0.323 OA
HETATM   17  O   UNL     1      44.885 -23.016   3.446  1.00  0.00    -0.323 OA
HETATM   18  C   UNL     1      43.774 -21.509   1.889  1.00  0.00     0.040 A 
HETATM   19  C   UNL     1      45.305 -22.746   4.800  1.00  0.00     0.352 A 
HETATM   20  C   UNL     1      43.269 -20.214   1.721  1.00  0.00     0.014 A 
ENDBRANCH  11  12
ENDBRANCH   7  10
ENDBRANCH   3   6
BRANCH   1  21
HETATM   21  S   UNL     1      40.379 -11.529  -1.500  1.00  0.00    -0.096 SA
BRANCH  21  22
HETATM   22  C   UNL     1      40.593 -12.371  -3.098  1.00  0.00     0.123 C 
BRANCH  22  23
HETATM   23  C   UNL     1      39.406 -13.257  -3.402  1.00  0.00    -0.005 A 
HETATM   24  C   UNL     1      38.122 -12.714  -3.614  1.00  0.00     0.042 A 
HETATM   25  C   UNL     1      37.017 -13.536  -3.863  1.00  0.00     0.024 A 
HETATM   26 CL   UNL     1      37.824 -11.009  -3.567  1.00  0.00    -0.084 Cl
HETATM   27  C   UNL     1      37.165 -14.919  -3.899  1.00  0.00     0.003 A 
HETATM   28  C   UNL     1      38.419 -15.480  -3.684  1.00  0.00     0.024 A 
HETATM   29  C   UNL     1      39.528 -14.661  -3.436  1.00  0.00     0.042 A 
HETATM   30 CL   UNL     1      41.039 -15.460  -3.165  1.00  0.00    -0.084 Cl
ENDBRANCH  22  23
ENDBRANCH  21  22
ENDBRANCH   1  21
TORSDOF 6
ENDMDL
