MODEL 1
REMARK VINA RESULT:      -8.0      0.000      0.000
REMARK  5 active torsions:
REMARK  status: ('A' for Active; 'I' for Inactive)
REMARK    1  A    between atoms: C_2  and  C_3 
REMARK    2  A    between atoms: C_6  and  C_7 
REMARK    3  A    between atoms: C_9  and  C_10 
REMARK    4  A    between atoms: C_10  and  N_11 
REMARK       I    between atoms: N_11  and  C_12 
REMARK       I    between atoms: C_12  and  N_13 
REMARK    5  A    between atoms: N_13  and  C_14 
ROOT
HETATM    1  N   UNL     1      41.826 -16.779   5.152  1.00  0.00    -0.338 N 
HETATM    2  C   UNL     1      43.115 -16.581   5.525  1.00  0.00     0.321 C 
HETATM    3  N   UNL     1      44.046 -17.451   5.040  1.00  0.00    -0.308 N 
HETATM    4  O   UNL     1      43.457 -15.707   6.320  1.00  0.00    -0.247 OA
HETATM    5  H   UNL     1      41.599 -17.656   4.706  1.00  0.00     0.164 HD
HETATM    6  H   UNL     1      44.871 -17.462   5.629  1.00  0.00     0.170 HD
ENDROOT
BRANCH   1   7
HETATM    7  C   UNL     1      40.748 -15.918   5.566  1.00  0.00     0.167 C 
BRANCH   7   8
HETATM    8  C   UNL     1      40.532 -14.882   4.530  1.00  0.00     0.018 A 
HETATM    9  C   UNL     1      40.493 -13.467   4.681  1.00  0.00     0.072 A 
HETATM   10  N   UNL     1      40.250 -12.857   3.515  1.00  0.00    -0.132 NA
HETATM   11  O   UNL     1      40.129 -13.864   2.580  1.00  0.00    -0.217 OA
HETATM   12  C   UNL     1      40.299 -15.070   3.184  1.00  0.00     0.088 A 
BRANCH   9  13
HETATM   13  C   UNL     1      40.682 -12.650   5.914  1.00  0.00     0.058 C 
HETATM   14  C   UNL     1      39.404 -12.526   6.730  1.00  0.00     0.011 C 
ENDBRANCH   9  13
BRANCH  12  15
HETATM   15  C   UNL     1      40.195 -16.262   2.308  1.00  0.00     0.063 C 
HETATM   16  C   UNL     1      40.950 -16.064   1.004  1.00  0.00     0.012 C 
ENDBRANCH  12  15
ENDBRANCH   7   8
ENDBRANCH   1   7
BRANCH   3  17
HETATM   17  C   UNL     1      43.978 -18.422   4.017  1.00  0.00     0.047 A 
HETATM   18  C   UNL     1      44.228 -19.817   4.189  1.00  0.00     0.001 A 
HETATM   19  C   UNL     1      44.229 -20.646   3.036  1.00  0.00    -0.024 A 
HETATM   20  C   UNL     1      44.407 -20.466   5.437  1.00  0.00     0.014 A 
HETATM   21  C   UNL     1      44.512 -22.017   3.147  1.00  0.00     0.012 A 
HETATM   22  C   UNL     1      43.914 -20.104   1.782  1.00  0.00     0.012 A 
HETATM   23  C   UNL     1      44.752 -22.605   4.386  1.00  0.00     0.001 A 
HETATM   24  C   UNL     1      44.682 -21.833   5.535  1.00  0.00     0.001 A 
HETATM   25  C   UNL     1      43.575 -18.762   1.647  1.00  0.00     0.003 A 
HETATM   26  C   UNL     1      43.599 -17.930   2.761  1.00  0.00     0.030 A 
ENDBRANCH   3  17
TORSDOF 5
ENDMDL
MODEL 2
REMARK VINA RESULT:      -8.0      0.402      2.598
REMARK  5 active torsions:
REMARK  status: ('A' for Active; 'I' for Inactive)
REMARK    1  A    between atoms: C_2  and  C_3 
REMARK    2  A    between atoms: C_6  and  C_7 
REMARK    3  A    between atoms: C_9  and  C_10 
REMARK    4  A    between atoms: C_10  and  N_11 
REMARK       I    between atoms: N_11  and  C_12 
REMARK       I    between atoms: C_12  and  N_13 
REMARK    5  A    between atoms: N_13  and  C_14 
ROOT
HETATM    1  N   UNL     1      41.817 -16.775   5.174  1.00  0.00    -0.338 N 
HETATM    2  C   UNL     1      43.104 -16.582   5.558  1.00  0.00     0.321 C 
HETATM    3  N   UNL     1      44.038 -17.448   5.070  1.00  0.00    -0.308 N 
HETATM    4  O   UNL     1      43.441 -15.716   6.363  1.00  0.00    -0.247 OA
HETATM    5  H   UNL     1      41.592 -17.648   4.719  1.00  0.00     0.164 HD
HETATM    6  H   UNL     1      44.858 -17.466   5.665  1.00  0.00     0.170 HD
ENDROOT
BRANCH   1   7
HETATM    7  C   UNL     1      40.737 -15.917   5.589  1.00  0.00     0.167 C 
BRANCH   7   8
HETATM    8  C   UNL     1      40.543 -14.859   4.572  1.00  0.00     0.018 A 
HETATM    9  C   UNL     1      40.325 -14.999   3.172  1.00  0.00     0.072 A 
HETATM   10  N   UNL     1      40.218 -13.808   2.572  1.00  0.00    -0.132 NA
HETATM   11  O   UNL     1      40.360 -12.867   3.571  1.00  0.00    -0.217 OA
HETATM   12  C   UNL     1      40.552 -13.493   4.761  1.00  0.00     0.088 A 
BRANCH   9  13
HETATM   13  C   UNL     1      40.211 -16.245   2.360  1.00  0.00     0.058 C 
HETATM   14  C   UNL     1      40.907 -16.125   1.012  1.00  0.00     0.011 C 
ENDBRANCH   9  13
BRANCH  12  15
HETATM   15  C   UNL     1      40.726 -12.614   5.943  1.00  0.00     0.063 C 
HETATM   16  C   UNL     1      39.453 -12.533   6.770  1.00  0.00     0.012 C 
ENDBRANCH  12  15
ENDBRANCH   7   8
ENDBRANCH   1   7
BRANCH   3  17
HETATM   17  C   UNL     1      43.975 -18.410   4.039  1.00  0.00     0.047 A 
HETATM   18  C   UNL     1      44.225 -19.807   4.199  1.00  0.00     0.001 A 
HETATM   19  C   UNL     1      44.233 -20.624   3.038  1.00  0.00    -0.024 A 
HETATM   20  C   UNL     1      44.400 -20.467   5.441  1.00  0.00     0.014 A 
HETATM   21  C   UNL     1      44.517 -21.997   3.137  1.00  0.00     0.012 A 
HETATM   22  C   UNL     1      43.923 -20.071   1.787  1.00  0.00     0.012 A 
HETATM   23  C   UNL     1      44.751 -22.596   4.372  1.00  0.00     0.001 A 
HETATM   24  C   UNL     1      44.675 -21.835   5.528  1.00  0.00     0.001 A 
HETATM   25  C   UNL     1      43.583 -18.729   1.663  1.00  0.00     0.003 A 
HETATM   26  C   UNL     1      43.601 -17.907   2.785  1.00  0.00     0.030 A 
ENDBRANCH   3  17
TORSDOF 5
ENDMDL
MODEL 3
REMARK VINA RESULT:      -8.0      1.861      3.404
REMARK  5 active torsions:
REMARK  status: ('A' for Active; 'I' for Inactive)
REMARK    1  A    between atoms: C_2  and  C_3 
REMARK    2  A    between atoms: C_6  and  C_7 
REMARK    3  A    between atoms: C_9  and  C_10 
REMARK    4  A    between atoms: C_10  and  N_11 
REMARK       I    between atoms: N_11  and  C_12 
REMARK       I    between atoms: C_12  and  N_13 
REMARK    5  A    between atoms: N_13  and  C_14 
ROOT
HETATM    1  N   UNL     1      41.110 -16.980   2.442  1.00  0.00    -0.338 N 
HETATM    2  C   UNL     1      41.936 -17.172   1.382  1.00  0.00     0.321 C 
HETATM    3  N   UNL     1      43.156 -17.726   1.634  1.00  0.00    -0.308 N 
HETATM    4  O   UNL     1      41.656 -16.812   0.240  1.00  0.00    -0.247 OA
HETATM    5  H   UNL     1      41.508 -17.070   3.365  1.00  0.00     0.164 HD
HETATM    6  H   UNL     1      43.814 -17.501   0.897  1.00  0.00     0.170 HD
ENDROOT
BRANCH   1   7
HETATM    7  C   UNL     1      39.783 -16.434   2.314  1.00  0.00     0.167 C 
BRANCH   7   8
HETATM    8  C   UNL     1      39.778 -15.051   2.842  1.00  0.00     0.018 A 
HETATM    9  C   UNL     1      39.421 -13.845   2.175  1.00  0.00     0.072 A 
HETATM   10  N   UNL     1      39.566 -12.782   2.976  1.00  0.00    -0.132 NA
HETATM   11  O   UNL     1      40.017 -13.277   4.183  1.00  0.00    -0.217 OA
HETATM   12  C   UNL     1      40.141 -14.627   4.104  1.00  0.00     0.088 A 
BRANCH   9  13
HETATM   13  C   UNL     1      38.938 -13.652   0.778  1.00  0.00     0.058 C 
HETATM   14  C   UNL     1      37.469 -14.016   0.616  1.00  0.00     0.011 C 
ENDBRANCH   9  13
BRANCH  12  15
HETATM   15  C   UNL     1      40.621 -15.314   5.327  1.00  0.00     0.063 C 
HETATM   16  C   UNL     1      42.039 -14.898   5.682  1.00  0.00     0.012 C 
ENDBRANCH  12  15
ENDBRANCH   7   8
ENDBRANCH   1   7
BRANCH   3  17
HETATM   17  C   UNL     1      43.676 -18.365   2.780  1.00  0.00     0.047 A 
HETATM   18  C   UNL     1      43.989 -19.754   2.878  1.00  0.00     0.001 A 
HETATM   19  C   UNL     1      44.398 -20.263   4.140  1.00  0.00    -0.024 A 
HETATM   20  C   UNL     1      43.994 -20.668   1.794  1.00  0.00     0.014 A 
HETATM   21  C   UNL     1      44.675 -21.631   4.298  1.00  0.00     0.012 A 
HETATM   22  C   UNL     1      44.560 -19.394   5.228  1.00  0.00     0.012 A 
HETATM   23  C   UNL     1      44.602 -22.510   3.221  1.00  0.00     0.001 A 
HETATM   24  C   UNL     1      44.279 -22.026   1.963  1.00  0.00     0.001 A 
HETATM   25  C   UNL     1      44.347 -18.027   5.090  1.00  0.00     0.003 A 
HETATM   26  C   UNL     1      43.917 -17.516   3.870  1.00  0.00     0.030 A 
ENDBRANCH   3  17
TORSDOF 5
ENDMDL
MODEL 4
REMARK VINA RESULT:      -8.0      1.970      2.980
REMARK  5 active torsions:
REMARK  status: ('A' for Active; 'I' for Inactive)
REMARK    1  A    between atoms: C_2  and  C_3 
REMARK    2  A    between atoms: C_6  and  C_7 
REMARK    3  A    between atoms: C_9  and  C_10 
REMARK    4  A    between atoms: C_10  and  N_11 
REMARK       I    between atoms: N_11  and  C_12 
REMARK       I    between atoms: C_12  and  N_13 
REMARK    5  A    between atoms: N_13  and  C_14 
ROOT
HETATM    1  N   UNL     1      41.120 -16.992   2.440  1.00  0.00    -0.338 N 
HETATM    2  C   UNL     1      41.946 -17.196   1.382  1.00  0.00     0.321 C 
HETATM    3  N   UNL     1      43.164 -17.754   1.639  1.00  0.00    -0.308 N 
HETATM    4  O   UNL     1      41.669 -16.843   0.237  1.00  0.00    -0.247 OA
HETATM    5  H   UNL     1      41.518 -17.077   3.364  1.00  0.00     0.164 HD
HETATM    6  H   UNL     1      43.823 -17.537   0.900  1.00  0.00     0.170 HD
ENDROOT
BRANCH   1   7
HETATM    7  C   UNL     1      39.796 -16.441   2.307  1.00  0.00     0.167 C 
BRANCH   7   8
HETATM    8  C   UNL     1      39.797 -15.054   2.824  1.00  0.00     0.018 A 
HETATM    9  C   UNL     1      40.158 -14.587   4.120  1.00  0.00     0.072 A 
HETATM   10  N   UNL     1      40.007 -13.261   4.222  1.00  0.00    -0.132 NA
HETATM   11  O   UNL     1      39.547 -12.837   2.992  1.00  0.00    -0.217 OA
HETATM   12  C   UNL     1      39.424 -13.904   2.160  1.00  0.00     0.088 A 
BRANCH   9  13
HETATM   13  C   UNL     1      40.653 -15.363   5.293  1.00  0.00     0.058 C 
HETATM   14  C   UNL     1      42.051 -14.942   5.721  1.00  0.00     0.011 C 
ENDBRANCH   9  13
BRANCH  12  15
HETATM   15  C   UNL     1      38.934 -13.614   0.790  1.00  0.00     0.063 C 
HETATM   16  C   UNL     1      37.486 -14.038   0.613  1.00  0.00     0.012 C 
ENDBRANCH  12  15
ENDBRANCH   7   8
ENDBRANCH   1   7
BRANCH   3  17
HETATM   17  C   UNL     1      43.680 -18.386   2.790  1.00  0.00     0.047 A 
HETATM   18  C   UNL     1      43.997 -19.774   2.896  1.00  0.00     0.001 A 
HETATM   19  C   UNL     1      44.402 -20.276   4.161  1.00  0.00    -0.024 A 
HETATM   20  C   UNL     1      44.011 -20.692   1.815  1.00  0.00     0.014 A 
HETATM   21  C   UNL     1      44.683 -21.643   4.326  1.00  0.00     0.012 A 
HETATM   22  C   UNL     1      44.555 -19.402   5.246  1.00  0.00     0.012 A 
HETATM   23  C   UNL     1      44.618 -22.526   3.252  1.00  0.00     0.001 A 
HETATM   24  C   UNL     1      44.299 -22.048   1.991  1.00  0.00     0.001 A 
HETATM   25  C   UNL     1      44.339 -18.037   5.102  1.00  0.00     0.003 A 
HETATM   26  C   UNL     1      43.913 -17.532   3.878  1.00  0.00     0.030 A 
ENDBRANCH   3  17
TORSDOF 5
ENDMDL
MODEL 5
REMARK VINA RESULT:      -8.0      1.813      3.845
REMARK  5 active torsions:
REMARK  status: ('A' for Active; 'I' for Inactive)
REMARK    1  A    between atoms: C_2  and  C_3 
REMARK    2  A    between atoms: C_6  and  C_7 
REMARK    3  A    between atoms: C_9  and  C_10 
REMARK    4  A    between atoms: C_10  and  N_11 
REMARK       I    between atoms: N_11  and  C_12 
REMARK       I    between atoms: C_12  and  N_13 
REMARK    5  A    between atoms: N_13  and  C_14 
ROOT
HETATM    1  N   UNL     1      42.678 -17.998   6.263  1.00  0.00    -0.338 N 
HETATM    2  C   UNL     1      43.674 -18.477   7.050  1.00  0.00     0.321 C 
HETATM    3  N   UNL     1      44.352 -19.572   6.602  1.00  0.00    -0.308 N 
HETATM    4  O   UNL     1      43.937 -18.012   8.157  1.00  0.00    -0.247 OA
HETATM    5  H   UNL     1      42.365 -18.580   5.500  1.00  0.00     0.164 HD
HETATM    6  H   UNL     1      44.794 -20.063   7.371  1.00  0.00     0.170 HD
ENDROOT
BRANCH   1   7
HETATM    7  C   UNL     1      41.904 -16.831   6.600  1.00  0.00     0.167 C 
BRANCH   7   8
HETATM    8  C   UNL     1      42.361 -15.692   5.771  1.00  0.00     0.018 A 
HETATM    9  C   UNL     1      41.758 -15.142   4.605  1.00  0.00     0.072 A 
HETATM   10  N   UNL     1      42.479 -14.126   4.115  1.00  0.00    -0.132 NA
HETATM   11  O   UNL     1      43.565 -13.993   4.955  1.00  0.00    -0.217 OA
HETATM   12  C   UNL     1      43.494 -14.924   5.942  1.00  0.00     0.088 A 
BRANCH   9  13
HETATM   13  C   UNL     1      40.498 -15.548   3.919  1.00  0.00     0.058 C 
HETATM   14  C   UNL     1      40.706 -16.716   2.966  1.00  0.00     0.011 C 
ENDBRANCH   9  13
BRANCH  12  15
HETATM   15  C   UNL     1      44.596 -14.913   6.934  1.00  0.00     0.063 C 
HETATM   16  C   UNL     1      44.706 -13.568   7.633  1.00  0.00     0.012 C 
ENDBRANCH  12  15
ENDBRANCH   7   8
ENDBRANCH   1   7
BRANCH   3  17
HETATM   17  C   UNL     1      44.378 -20.207   5.341  1.00  0.00     0.047 A 
HETATM   18  C   UNL     1      44.204 -19.550   4.085  1.00  0.00     0.001 A 
HETATM   19  C   UNL     1      44.144 -20.349   2.913  1.00  0.00    -0.024 A 
HETATM   20  C   UNL     1      44.156 -18.145   3.899  1.00  0.00     0.014 A 
HETATM   21  C   UNL     1      43.931 -19.754   1.658  1.00  0.00     0.012 A 
HETATM   22  C   UNL     1      44.331 -21.736   2.998  1.00  0.00     0.012 A 
HETATM   23  C   UNL     1      43.820 -18.373   1.525  1.00  0.00     0.001 A 
HETATM   24  C   UNL     1      43.951 -17.565   2.644  1.00  0.00     0.001 A 
HETATM   25  C   UNL     1      44.599 -22.348   4.217  1.00  0.00     0.003 A 
HETATM   26  C   UNL     1      44.631 -21.585   5.379  1.00  0.00     0.030 A 
ENDBRANCH   3  17
TORSDOF 5
ENDMDL
MODEL 6
REMARK VINA RESULT:      -7.9      1.820      3.268
REMARK  5 active torsions:
REMARK  status: ('A' for Active; 'I' for Inactive)
REMARK    1  A    between atoms: C_2  and  C_3 
REMARK    2  A    between atoms: C_6  and  C_7 
REMARK    3  A    between atoms: C_9  and  C_10 
REMARK    4  A    between atoms: C_10  and  N_11 
REMARK       I    between atoms: N_11  and  C_12 
REMARK       I    between atoms: C_12  and  N_13 
REMARK    5  A    between atoms: N_13  and  C_14 
ROOT
HETATM    1  N   UNL     1      42.673 -18.051   6.301  1.00  0.00    -0.338 N 
HETATM    2  C   UNL     1      43.690 -18.532   7.060  1.00  0.00     0.321 C 
HETATM    3  N   UNL     1      44.377 -19.605   6.575  1.00  0.00    -0.308 N 
HETATM    4  O   UNL     1      43.966 -18.088   8.173  1.00  0.00    -0.247 OA
HETATM    5  H   UNL     1      42.356 -18.621   5.532  1.00  0.00     0.164 HD
HETATM    6  H   UNL     1      44.841 -20.106   7.324  1.00  0.00     0.170 HD
ENDROOT
BRANCH   1   7
HETATM    7  C   UNL     1      41.886 -16.905   6.679  1.00  0.00     0.167 C 
BRANCH   7   8
HETATM    8  C   UNL     1      42.291 -15.747   5.850  1.00  0.00     0.018 A 
HETATM    9  C   UNL     1      43.435 -14.910   5.988  1.00  0.00     0.072 A 
HETATM   10  N   UNL     1      43.449 -13.946   5.059  1.00  0.00    -0.132 NA
HETATM   11  O   UNL     1      42.316 -14.139   4.295  1.00  0.00    -0.217 OA
HETATM   12  C   UNL     1      41.628 -15.212   4.765  1.00  0.00     0.088 A 
BRANCH   9  13
HETATM   13  C   UNL     1      44.539 -14.987   6.985  1.00  0.00     0.058 C 
HETATM   14  C   UNL     1      44.990 -13.614   7.461  1.00  0.00     0.011 C 
ENDBRANCH   9  13
BRANCH  12  15
HETATM   15  C   UNL     1      40.375 -15.552   4.048  1.00  0.00     0.063 C 
HETATM   16  C   UNL     1      40.660 -16.186   2.696  1.00  0.00     0.012 C 
ENDBRANCH  12  15
ENDBRANCH   7   8
ENDBRANCH   1   7
BRANCH   3  17
HETATM   17  C   UNL     1      44.391 -20.210   5.299  1.00  0.00     0.047 A 
HETATM   18  C   UNL     1      44.194 -19.527   4.061  1.00  0.00     0.001 A 
HETATM   19  C   UNL     1      44.124 -20.299   2.872  1.00  0.00    -0.024 A 
HETATM   20  C   UNL     1      44.133 -18.118   3.908  1.00  0.00     0.014 A 
HETATM   21  C   UNL     1      43.889 -19.677   1.634  1.00  0.00     0.012 A 
HETATM   22  C   UNL     1      44.323 -21.686   2.922  1.00  0.00     0.012 A 
HETATM   23  C   UNL     1      43.766 -18.294   1.535  1.00  0.00     0.001 A 
HETATM   24  C   UNL     1      43.906 -17.511   2.670  1.00  0.00     0.001 A 
HETATM   25  C   UNL     1      44.612 -22.324   4.123  1.00  0.00     0.003 A 
HETATM   26  C   UNL     1      44.655 -21.588   5.302  1.00  0.00     0.030 A 
ENDBRANCH   3  17
TORSDOF 5
ENDMDL
MODEL 7
REMARK VINA RESULT:      -7.8      1.874      3.545
REMARK  5 active torsions:
REMARK  status: ('A' for Active; 'I' for Inactive)
REMARK    1  A    between atoms: C_2  and  C_3 
REMARK    2  A    between atoms: C_6  and  C_7 
REMARK    3  A    between atoms: C_9  and  C_10 
REMARK    4  A    between atoms: C_10  and  N_11 
REMARK       I    between atoms: N_11  and  C_12 
REMARK       I    between atoms: C_12  and  N_13 
REMARK    5  A    between atoms: N_13  and  C_14 
ROOT
HETATM    1  N   UNL     1      41.150 -17.286   2.118  1.00  0.00    -0.338 N 
HETATM    2  C   UNL     1      42.134 -17.032   1.218  1.00  0.00     0.321 C 
HETATM    3  N   UNL     1      43.308 -17.708   1.369  1.00  0.00    -0.308 N 
HETATM    4  O   UNL     1      42.031 -16.186   0.332  1.00  0.00    -0.247 OA
HETATM    5  H   UNL     1      41.401 -17.800   2.950  1.00  0.00     0.164 HD
HETATM    6  H   UNL     1      44.069 -17.216   0.917  1.00  0.00     0.170 HD
ENDROOT
BRANCH   1   7
HETATM    7  C   UNL     1      39.852 -16.666   2.057  1.00  0.00     0.167 C 
BRANCH   7   8
HETATM    8  C   UNL     1      39.945 -15.295   2.609  1.00  0.00     0.018 A 
HETATM    9  C   UNL     1      39.624 -14.059   1.980  1.00  0.00     0.072 A 
HETATM   10  N   UNL     1      39.863 -13.021   2.791  1.00  0.00    -0.132 NA
HETATM   11  O   UNL     1      40.341 -13.562   3.967  1.00  0.00    -0.217 OA
HETATM   12  C   UNL     1      40.389 -14.916   3.859  1.00  0.00     0.088 A 
BRANCH   9  13
HETATM   13  C   UNL     1      39.088 -13.814   0.611  1.00  0.00     0.058 C 
HETATM   14  C   UNL     1      37.589 -14.059   0.521  1.00  0.00     0.011 C 
ENDBRANCH   9  13
BRANCH  12  15
HETATM   15  C   UNL     1      40.886 -15.651   5.046  1.00  0.00     0.063 C 
HETATM   16  C   UNL     1      41.869 -14.815   5.850  1.00  0.00     0.012 C 
ENDBRANCH  12  15
ENDBRANCH   7   8
ENDBRANCH   1   7
BRANCH   3  17
HETATM   17  C   UNL     1      43.653 -18.820   2.169  1.00  0.00     0.047 A 
HETATM   18  C   UNL     1      43.982 -18.765   3.557  1.00  0.00     0.001 A 
HETATM   19  C   UNL     1      44.418 -19.958   4.191  1.00  0.00    -0.024 A 
HETATM   20  C   UNL     1      43.840 -17.622   4.384  1.00  0.00     0.014 A 
HETATM   21  C   UNL     1      44.794 -19.947   5.545  1.00  0.00     0.012 A 
HETATM   22  C   UNL     1      44.444 -21.164   3.476  1.00  0.00     0.012 A 
HETATM   23  C   UNL     1      44.705 -18.785   6.307  1.00  0.00     0.001 A 
HETATM   24  C   UNL     1      44.211 -17.625   5.732  1.00  0.00     0.001 A 
HETATM   25  C   UNL     1      44.026 -21.220   2.152  1.00  0.00     0.003 A 
HETATM   26  C   UNL     1      43.624 -20.055   1.506  1.00  0.00     0.030 A 
ENDBRANCH   3  17
TORSDOF 5
ENDMDL
MODEL 8
REMARK VINA RESULT:      -7.8      2.144      3.755
REMARK  5 active torsions:
REMARK  status: ('A' for Active; 'I' for Inactive)
REMARK    1  A    between atoms: C_2  and  C_3 
REMARK    2  A    between atoms: C_6  and  C_7 
REMARK    3  A    between atoms: C_9  and  C_10 
REMARK    4  A    between atoms: C_10  and  N_11 
REMARK       I    between atoms: N_11  and  C_12 
REMARK       I    between atoms: C_12  and  N_13 
REMARK    5  A    between atoms: N_13  and  C_14 
ROOT
HETATM    1  N   UNL     1      43.064 -15.400   2.896  1.00  0.00    -0.338 N 
HETATM    2  C   UNL     1      41.909 -16.025   2.553  1.00  0.00     0.321 C 
HETATM    3  N   UNL     1      41.881 -17.384   2.656  1.00  0.00    -0.308 N 
HETATM    4  O   UNL     1      40.934 -15.429   2.099  1.00  0.00    -0.247 OA
HETATM    5  H   UNL     1      43.886 -15.973   3.016  1.00  0.00     0.164 HD
HETATM    6  H   UNL     1      41.161 -17.776   2.061  1.00  0.00     0.170 HD
ENDROOT
BRANCH   1   7
HETATM    7  C   UNL     1      43.221 -13.968   2.864  1.00  0.00     0.167 C 
BRANCH   7   8
HETATM    8  C   UNL     1      42.724 -13.399   4.137  1.00  0.00     0.018 A 
HETATM    9  C   UNL     1      41.681 -12.453   4.342  1.00  0.00     0.072 A 
HETATM   10  N   UNL     1      41.534 -12.159   5.640  1.00  0.00    -0.132 NA
HETATM   11  O   UNL     1      42.479 -12.913   6.307  1.00  0.00    -0.217 OA
HETATM   12  C   UNL     1      43.186 -13.652   5.413  1.00  0.00     0.088 A 
BRANCH   9  13
HETATM   13  C   UNL     1      40.796 -11.799   3.336  1.00  0.00     0.058 C 
HETATM   14  C   UNL     1      39.420 -12.447   3.265  1.00  0.00     0.011 C 
ENDBRANCH   9  13
BRANCH  12  15
HETATM   15  C   UNL     1      44.248 -14.521   5.975  1.00  0.00     0.063 C 
HETATM   16  C   UNL     1      44.721 -14.019   7.329  1.00  0.00     0.012 C 
ENDBRANCH  12  15
ENDBRANCH   7   8
ENDBRANCH   1   7
BRANCH   3  17
HETATM   17  C   UNL     1      42.764 -18.295   3.274  1.00  0.00     0.047 A 
HETATM   18  C   UNL     1      43.022 -18.370   4.676  1.00  0.00     0.001 A 
HETATM   19  C   UNL     1      44.025 -19.268   5.127  1.00  0.00    -0.024 A 
HETATM   20  C   UNL     1      42.304 -17.667   5.677  1.00  0.00     0.014 A 
HETATM   21  C   UNL     1      44.346 -19.348   6.493  1.00  0.00     0.012 A 
HETATM   22  C   UNL     1      44.679 -20.107   4.214  1.00  0.00     0.012 A 
HETATM   23  C   UNL     1      43.662 -18.588   7.439  1.00  0.00     0.001 A 
HETATM   24  C   UNL     1      42.628 -17.760   7.033  1.00  0.00     0.001 A 
HETATM   25  C   UNL     1      44.346 -20.092   2.864  1.00  0.00     0.003 A 
HETATM   26  C   UNL     1      43.387 -19.198   2.400  1.00  0.00     0.030 A 
ENDBRANCH   3  17
TORSDOF 5
ENDMDL
MODEL 9
REMARK VINA RESULT:      -7.8      2.088      3.338
REMARK  5 active torsions:
REMARK  status: ('A' for Active; 'I' for Inactive)
REMARK    1  A    between atoms: C_2  and  C_3 
REMARK    2  A    between atoms: C_6  and  C_7 
REMARK    3  A    between atoms: C_9  and  C_10 
REMARK    4  A    between atoms: C_10  and  N_11 
REMARK       I    between atoms: N_11  and  C_12 
REMARK       I    between atoms: C_12  and  N_13 
REMARK    5  A    between atoms: N_13  and  C_14 
ROOT
HETATM    1  N   UNL     1      42.499 -18.381   2.191  1.00  0.00    -0.338 N 
HETATM    2  C   UNL     1      43.794 -18.255   1.805  1.00  0.00     0.321 C 
HETATM    3  N   UNL     1      44.711 -19.049   2.428  1.00  0.00    -0.308 N 
HETATM    4  O   UNL     1      44.170 -17.423   0.982  1.00  0.00    -0.247 OA
HETATM    5  H   UNL     1      42.313 -18.900   3.037  1.00  0.00     0.164 HD
HETATM    6  H   UNL     1      45.640 -18.651   2.357  1.00  0.00     0.170 HD
ENDROOT
BRANCH   1   7
HETATM    7  C   UNL     1      41.426 -17.627   1.595  1.00  0.00     0.167 C 
BRANCH   7   8
HETATM    8  C   UNL     1      41.288 -16.338   2.309  1.00  0.00     0.018 A 
HETATM    9  C   UNL     1      41.042 -16.108   3.693  1.00  0.00     0.072 A 
HETATM   10  N   UNL     1      40.957 -14.800   3.964  1.00  0.00    -0.132 NA
HETATM   11  O   UNL     1      41.149 -14.151   2.761  1.00  0.00    -0.217 OA
HETATM   12  C   UNL     1      41.347 -15.066   1.777  1.00  0.00     0.088 A 
BRANCH   9  13
HETATM   13  C   UNL     1      40.882 -17.099   4.794  1.00  0.00     0.058 C 
HETATM   14  C   UNL     1      40.859 -16.444   6.168  1.00  0.00     0.011 C 
ENDBRANCH   9  13
BRANCH  12  15
HETATM   15  C   UNL     1      41.568 -14.526   0.414  1.00  0.00     0.063 C 
HETATM   16  C   UNL     1      40.281 -14.507  -0.395  1.00  0.00     0.012 C 
ENDBRANCH  12  15
ENDBRANCH   7   8
ENDBRANCH   1   7
BRANCH   3  17
HETATM   17  C   UNL     1      44.560 -20.172   3.270  1.00  0.00     0.047 A 
HETATM   18  C   UNL     1      44.292 -20.120   4.671  1.00  0.00     0.001 A 
HETATM   19  C   UNL     1      44.281 -21.340   5.398  1.00  0.00    -0.024 A 
HETATM   20  C   UNL     1      43.961 -18.947   5.396  1.00  0.00     0.014 A 
HETATM   21  C   UNL     1      44.065 -21.338   6.787  1.00  0.00     0.012 A 
HETATM   22  C   UNL     1      44.453 -22.559   4.727  1.00  0.00     0.012 A 
HETATM   23  C   UNL     1      43.811 -20.154   7.474  1.00  0.00     0.001 A 
HETATM   24  C   UNL     1      43.741 -18.959   6.776  1.00  0.00     0.001 A 
HETATM   25  C   UNL     1      44.614 -22.599   3.347  1.00  0.00     0.003 A 
HETATM   26  C   UNL     1      44.657 -21.412   2.623  1.00  0.00     0.030 A 
ENDBRANCH   3  17
TORSDOF 5
ENDMDL
MODEL 10
REMARK VINA RESULT:      -7.7      1.997      3.468
REMARK  5 active torsions:
REMARK  status: ('A' for Active; 'I' for Inactive)
REMARK    1  A    between atoms: C_2  and  C_3 
REMARK    2  A    between atoms: C_6  and  C_7 
REMARK    3  A    between atoms: C_9  and  C_10 
REMARK    4  A    between atoms: C_10  and  N_11 
REMARK       I    between atoms: N_11  and  C_12 
REMARK       I    between atoms: C_12  and  N_13 
REMARK    5  A    between atoms: N_13  and  C_14 
ROOT
HETATM    1  N   UNL     1      43.203 -15.402   3.050  1.00  0.00    -0.338 N 
HETATM    2  C   UNL     1      42.185 -16.163   2.574  1.00  0.00     0.321 C 
HETATM    3  N   UNL     1      42.297 -17.514   2.713  1.00  0.00    -0.308 N 
HETATM    4  O   UNL     1      41.219 -15.692   1.977  1.00  0.00    -0.247 OA
HETATM    5  H   UNL     1      44.061 -15.874   3.296  1.00  0.00     0.164 HD
HETATM    6  H   UNL     1      41.715 -17.996   2.039  1.00  0.00     0.170 HD
ENDROOT
BRANCH   1   7
HETATM    7  C   UNL     1      43.199 -13.963   2.997  1.00  0.00     0.167 C 
BRANCH   7   8
HETATM    8  C   UNL     1      42.592 -13.435   4.239  1.00  0.00     0.018 A 
HETATM    9  C   UNL     1      41.325 -12.811   4.416  1.00  0.00     0.072 A 
HETATM   10  N   UNL     1      41.134 -12.443   5.688  1.00  0.00    -0.132 NA
HETATM   11  O   UNL     1      42.273 -12.824   6.368  1.00  0.00    -0.217 OA
HETATM   12  C   UNL     1      43.140 -13.416   5.505  1.00  0.00     0.088 A 
BRANCH   9  13
HETATM   13  C   UNL     1      40.263 -12.542   3.405  1.00  0.00     0.058 C 
HETATM   14  C   UNL     1      39.158 -11.647   3.947  1.00  0.00     0.011 C 
ENDBRANCH   9  13
BRANCH  12  15
HETATM   15  C   UNL     1      44.423 -13.885   6.084  1.00  0.00     0.063 C 
HETATM   16  C   UNL     1      44.202 -14.968   7.127  1.00  0.00     0.012 C 
ENDBRANCH  12  15
ENDBRANCH   7   8
ENDBRANCH   1   7
BRANCH   3  17
HETATM   17  C   UNL     1      43.186 -18.308   3.471  1.00  0.00     0.047 A 
HETATM   18  C   UNL     1      43.619 -19.622   3.122  1.00  0.00     0.001 A 
HETATM   19  C   UNL     1      44.427 -20.332   4.050  1.00  0.00    -0.024 A 
HETATM   20  C   UNL     1      43.367 -20.262   1.881  1.00  0.00     0.014 A 
HETATM   21  C   UNL     1      44.842 -21.645   3.771  1.00  0.00     0.012 A 
HETATM   22  C   UNL     1      44.842 -19.712   5.236  1.00  0.00     0.012 A 
HETATM   23  C   UNL     1      44.515 -22.264   2.567  1.00  0.00     0.001 A 
HETATM   24  C   UNL     1      43.792 -21.566   1.614  1.00  0.00     0.001 A 
HETATM   25  C   UNL     1      44.495 -18.395   5.516  1.00  0.00     0.003 A 
HETATM   26  C   UNL     1      43.679 -17.695   4.633  1.00  0.00     0.030 A 
ENDBRANCH   3  17
TORSDOF 5
ENDMDL
