MODEL 1
REMARK VINA RESULT:      -9.0      0.000      0.000
REMARK  7 active torsions:
REMARK  status: ('A' for Active; 'I' for Inactive)
REMARK    1  A    between atoms: CG_4  and  CB_5 
REMARK    2  A    between atoms: CB_5  and  CA_6 
REMARK    3  A    between atoms: CA_6  and  N_7 
REMARK    4  A    between atoms: CA_6  and  C_8 
REMARK       I    between atoms: N_7  and  C_14 
REMARK    5  A    between atoms: C_8  and  O_9 
REMARK       I    between atoms: C_14  and  N_15 
REMARK    6  A    between atoms: N_15  and  C_16 
REMARK    7  A    between atoms: C_22  and  C_23 
ROOT
ATOM      1  N   PHE A   1      44.502 -13.503   8.474  1.00  0.00    -0.336 N 
ATOM      2  H   PHE A   1      44.189 -14.000   9.293  1.00  0.00     0.164 HD
HETATM    3  C   UNK A   0      44.523 -14.172   7.272  1.00  0.00     0.321 C 
HETATM    4  N   UNK A   0      43.745 -15.303   7.312  1.00  0.00    -0.309 N 
HETATM    5  O   UNK A   0      45.179 -13.753   6.327  1.00  0.00    -0.247 OA
HETATM    6  H   UNK A   0      43.249 -15.466   8.174  1.00  0.00     0.170 HD
ENDROOT
BRANCH   1   7
ATOM      7  CA  PHE A   1      45.186 -12.217   8.673  1.00  0.00     0.113 C 
BRANCH   7   8
ATOM      8  CB  PHE A   1      45.176 -11.823  10.166  1.00  0.00     0.065 C 
BRANCH   8   9
ATOM      9  CG  PHE A   1      44.067 -10.864  10.542  1.00  0.00    -0.056 A 
ATOM     10  CD1 PHE A   1      43.041 -10.573   9.633  1.00  0.00     0.007 A 
ATOM     11  CE1 PHE A   1      42.018  -9.688   9.979  1.00  0.00     0.001 A 
ATOM     12  CZ  PHE A   1      42.008  -9.089  11.237  1.00  0.00     0.000 A 
ATOM     13  CE2 PHE A   1      43.016  -9.379  12.153  1.00  0.00     0.001 A 
ATOM     14  CD2 PHE A   1      44.039 -10.266  11.809  1.00  0.00     0.007 A 
ENDBRANCH   8   9
ENDBRANCH   7   8
BRANCH   7  15
ATOM     15  C   PHE A   1      46.640 -12.270   8.155  1.00  0.00     0.189 C 
BRANCH  15  16
ATOM     16  O   PHE A   1      47.192 -10.975   7.939  1.00  0.00    -0.399 OA
ATOM     17  H   PHE A   1      46.455 -10.325   7.926  1.00  0.00     0.209 HD
ENDBRANCH  15  16
ENDBRANCH   7  15
ENDBRANCH   1   7
BRANCH   4  18
HETATM   18  C   UNK A   0      43.485 -16.210   6.262  1.00  0.00     0.038 A 
HETATM   19  C   UNK A   0      44.279 -17.332   5.992  1.00  0.00     0.063 A 
HETATM   20  C   UNK A   0      43.952 -18.152   4.899  1.00  0.00     0.087 A 
HETATM   21  C   UNK A   0      42.843 -17.845   4.120  1.00  0.00     0.063 A 
HETATM   22  N   UNK A   0      44.583 -19.278   4.425  1.00  0.00    -0.228 NA
HETATM   23  N   UNK A   0      42.820 -18.823   3.160  1.00  0.00    -0.338 N 
HETATM   24  C   UNK A   0      42.020 -16.748   4.365  1.00  0.00     0.034 A 
HETATM   25  H   UNK A   0      42.144 -18.913   2.414  1.00  0.00     0.167 HD
HETATM   26  C   UNK A   0      43.887 -19.661   3.369  1.00  0.00     0.170 A 
HETATM   27  C   UNK A   0      42.370 -15.936   5.452  1.00  0.00     0.032 A 
BRANCH  26  28
HETATM   28  C   UNK A   0      44.142 -20.813   2.468  1.00  0.00     0.422 C 
HETATM   29  F   UNK A   0      44.341 -21.951   3.190  1.00  0.00    -0.206 F 
HETATM   30  F   UNK A   0      43.052 -21.063   1.689  1.00  0.00    -0.206 F 
ENDBRANCH  26  28
ENDBRANCH   4  18
TORSDOF 7
ENDMDL
MODEL 2
REMARK VINA RESULT:      -8.8      6.132      8.953
REMARK  7 active torsions:
REMARK  status: ('A' for Active; 'I' for Inactive)
REMARK    1  A    between atoms: CG_4  and  CB_5 
REMARK    2  A    between atoms: CB_5  and  CA_6 
REMARK    3  A    between atoms: CA_6  and  N_7 
REMARK    4  A    between atoms: CA_6  and  C_8 
REMARK       I    between atoms: N_7  and  C_14 
REMARK    5  A    between atoms: C_8  and  O_9 
REMARK       I    between atoms: C_14  and  N_15 
REMARK    6  A    between atoms: N_15  and  C_16 
REMARK    7  A    between atoms: C_22  and  C_23 
ROOT
ATOM      1  N   PHE A   1      43.179 -17.099   5.221  1.00  0.00    -0.336 N 
ATOM      2  H   PHE A   1      43.450 -16.213   5.617  1.00  0.00     0.164 HD
HETATM    3  C   UNK A   0      42.292 -17.100   4.169  1.00  0.00     0.321 C 
HETATM    4  N   UNK A   0      42.216 -15.864   3.574  1.00  0.00    -0.309 N 
HETATM    5  O   UNK A   0      41.681 -18.114   3.859  1.00  0.00    -0.247 OA
HETATM    6  H   UNK A   0      42.826 -15.156   3.950  1.00  0.00     0.170 HD
ENDROOT
BRANCH   1   7
ATOM      7  CA  PHE A   1      43.508 -18.316   5.977  1.00  0.00     0.113 C 
BRANCH   7   8
ATOM      8  CB  PHE A   1      44.862 -18.893   5.512  1.00  0.00     0.065 C 
BRANCH   8   9
ATOM      9  CG  PHE A   1      44.739 -20.128   4.645  1.00  0.00    -0.056 A 
ATOM     10  CD1 PHE A   1      44.784 -21.406   5.218  1.00  0.00     0.007 A 
ATOM     11  CE1 PHE A   1      44.670 -22.546   4.418  1.00  0.00     0.001 A 
ATOM     12  CZ  PHE A   1      44.507 -22.419   3.041  1.00  0.00     0.000 A 
ATOM     13  CE2 PHE A   1      44.450 -21.154   2.461  1.00  0.00     0.001 A 
ATOM     14  CD2 PHE A   1      44.561 -20.014   3.259  1.00  0.00     0.007 A 
ENDBRANCH   8   9
ENDBRANCH   7   8
BRANCH   7  15
ATOM     15  C   PHE A   1      43.551 -18.038   7.495  1.00  0.00     0.189 C 
BRANCH  15  16
ATOM     16  O   PHE A   1      43.754 -19.221   8.263  1.00  0.00    -0.399 OA
ATOM     17  H   PHE A   1      44.051 -18.957   9.161  1.00  0.00     0.209 HD
ENDBRANCH  15  16
ENDBRANCH   7  15
ENDBRANCH   1   7
BRANCH   4  18
HETATM   18  C   UNK A   0      41.454 -15.495   2.444  1.00  0.00     0.038 A 
HETATM   19  C   UNK A   0      41.905 -15.633   1.125  1.00  0.00     0.063 A 
HETATM   20  C   UNK A   0      41.081 -15.201   0.073  1.00  0.00     0.087 A 
HETATM   21  C   UNK A   0      39.832 -14.662   0.359  1.00  0.00     0.063 A 
HETATM   22  N   UNK A   0      41.308 -15.210  -1.283  1.00  0.00    -0.228 NA
HETATM   23  N   UNK A   0      39.308 -14.346  -0.868  1.00  0.00    -0.338 N 
HETATM   24  C   UNK A   0      39.341 -14.522   1.655  1.00  0.00     0.034 A 
HETATM   25  H   UNK A   0      38.405 -13.928  -1.044  1.00  0.00     0.167 HD
HETATM   26  C   UNK A   0      40.228 -14.681  -1.831  1.00  0.00     0.170 A 
HETATM   27  C   UNK A   0      40.184 -14.947   2.690  1.00  0.00     0.032 A 
BRANCH  26  28
HETATM   28  C   UNK A   0      39.954 -14.434  -3.269  1.00  0.00     0.422 C 
HETATM   29  F   UNK A   0      41.025 -13.842  -3.866  1.00  0.00    -0.206 F 
HETATM   30  F   UNK A   0      39.774 -15.612  -3.931  1.00  0.00    -0.206 F 
ENDBRANCH  26  28
ENDBRANCH   4  18
TORSDOF 7
ENDMDL
MODEL 3
REMARK VINA RESULT:      -8.5      7.158     10.579
REMARK  7 active torsions:
REMARK  status: ('A' for Active; 'I' for Inactive)
REMARK    1  A    between atoms: CG_4  and  CB_5 
REMARK    2  A    between atoms: CB_5  and  CA_6 
REMARK    3  A    between atoms: CA_6  and  N_7 
REMARK    4  A    between atoms: CA_6  and  C_8 
REMARK       I    between atoms: N_7  and  C_14 
REMARK    5  A    between atoms: C_8  and  O_9 
REMARK       I    between atoms: C_14  and  N_15 
REMARK    6  A    between atoms: N_15  and  C_16 
REMARK    7  A    between atoms: C_22  and  C_23 
ROOT
ATOM      1  N   PHE A   1      42.457 -16.455   2.154  1.00  0.00    -0.336 N 
ATOM      2  H   PHE A   1      43.147 -15.720   2.160  1.00  0.00     0.164 HD
HETATM    3  C   UNK A   0      41.402 -16.351   1.278  1.00  0.00     0.321 C 
HETATM    4  N   UNK A   0      41.665 -15.448   0.277  1.00  0.00    -0.309 N 
HETATM    5  O   UNK A   0      40.383 -17.013   1.434  1.00  0.00    -0.247 OA
HETATM    6  H   UNK A   0      42.579 -15.025   0.295  1.00  0.00     0.170 HD
ENDROOT
BRANCH   1   7
ATOM      7  CA  PHE A   1      42.466 -17.412   3.269  1.00  0.00     0.113 C 
BRANCH   7   8
ATOM      8  CB  PHE A   1      43.893 -17.949   3.512  1.00  0.00     0.065 C 
BRANCH   8   9
ATOM      9  CG  PHE A   1      44.048 -19.429   3.237  1.00  0.00    -0.056 A 
ATOM     10  CD1 PHE A   1      43.617 -19.975   2.021  1.00  0.00     0.007 A 
ATOM     11  CE1 PHE A   1      43.759 -21.341   1.767  1.00  0.00     0.001 A 
ATOM     12  CZ  PHE A   1      44.338 -22.172   2.724  1.00  0.00     0.000 A 
ATOM     13  CE2 PHE A   1      44.781 -21.640   3.932  1.00  0.00     0.001 A 
ATOM     14  CD2 PHE A   1      44.641 -20.274   4.187  1.00  0.00     0.007 A 
ENDBRANCH   8   9
ENDBRANCH   7   8
BRANCH   7  15
ATOM     15  C   PHE A   1      41.921 -16.769   4.563  1.00  0.00     0.189 C 
BRANCH  15  16
ATOM     16  O   PHE A   1      40.502 -16.640   4.555  1.00  0.00    -0.399 OA
ATOM     17  H   PHE A   1      40.279 -15.690   4.664  1.00  0.00     0.209 HD
ENDBRANCH  15  16
ENDBRANCH   7  15
ENDBRANCH   1   7
BRANCH   4  18
HETATM   18  C   UNK A   0      40.845 -15.113  -0.823  1.00  0.00     0.038 A 
HETATM   19  C   UNK A   0      39.806 -14.177  -0.759  1.00  0.00     0.063 A 
HETATM   20  C   UNK A   0      39.026 -13.944  -1.905  1.00  0.00     0.087 A 
HETATM   21  C   UNK A   0      39.309 -14.633  -3.077  1.00  0.00     0.063 A 
HETATM   22  N   UNK A   0      37.952 -13.104  -2.081  1.00  0.00    -0.228 NA
HETATM   23  N   UNK A   0      38.375 -14.181  -3.972  1.00  0.00    -0.338 N 
HETATM   24  C   UNK A   0      40.343 -15.560  -3.186  1.00  0.00     0.034 A 
HETATM   25  H   UNK A   0      38.279 -14.471  -4.936  1.00  0.00     0.167 HD
HETATM   26  C   UNK A   0      37.569 -13.270  -3.335  1.00  0.00     0.170 A 
HETATM   27  C   UNK A   0      41.101 -15.788  -2.029  1.00  0.00     0.032 A 
BRANCH  26  28
HETATM   28  C   UNK A   0      36.440 -12.618  -4.046  1.00  0.00     0.422 C 
HETATM   29  F   UNK A   0      35.595 -13.554  -4.560  1.00  0.00    -0.206 F 
HETATM   30  F   UNK A   0      35.687 -11.885  -3.178  1.00  0.00    -0.206 F 
ENDBRANCH  26  28
ENDBRANCH   4  18
TORSDOF 7
ENDMDL
MODEL 4
REMARK VINA RESULT:      -8.3      1.645      2.260
REMARK  7 active torsions:
REMARK  status: ('A' for Active; 'I' for Inactive)
REMARK    1  A    between atoms: CG_4  and  CB_5 
REMARK    2  A    between atoms: CB_5  and  CA_6 
REMARK    3  A    between atoms: CA_6  and  N_7 
REMARK    4  A    between atoms: CA_6  and  C_8 
REMARK       I    between atoms: N_7  and  C_14 
REMARK    5  A    between atoms: C_8  and  O_9 
REMARK       I    between atoms: C_14  and  N_15 
REMARK    6  A    between atoms: N_15  and  C_16 
REMARK    7  A    between atoms: C_22  and  C_23 
ROOT
ATOM      1  N   PHE A   1      44.530 -12.866   8.892  1.00  0.00    -0.336 N 
ATOM      2  H   PHE A   1      44.021 -13.283   9.655  1.00  0.00     0.164 HD
HETATM    3  C   UNK A   0      44.796 -13.638   7.785  1.00  0.00     0.321 C 
HETATM    4  N   UNK A   0      43.986 -14.746   7.737  1.00  0.00    -0.309 N 
HETATM    5  O   UNK A   0      45.665 -13.316   6.984  1.00  0.00    -0.247 OA
HETATM    6  H   UNK A   0      43.302 -14.823   8.473  1.00  0.00     0.170 HD
ENDROOT
BRANCH   1   7
ATOM      7  CA  PHE A   1      45.201 -11.581   9.138  1.00  0.00     0.113 C 
BRANCH   7   8
ATOM      8  CB  PHE A   1      44.891 -11.072  10.562  1.00  0.00     0.065 C 
BRANCH   8   9
ATOM      9  CG  PHE A   1      43.414 -11.003  10.883  1.00  0.00    -0.056 A 
ATOM     10  CD1 PHE A   1      42.937 -11.427  12.130  1.00  0.00     0.007 A 
ATOM     11  CE1 PHE A   1      41.574 -11.364  12.427  1.00  0.00     0.001 A 
ATOM     12  CZ  PHE A   1      40.675 -10.873  11.482  1.00  0.00     0.000 A 
ATOM     13  CE2 PHE A   1      41.138 -10.439  10.243  1.00  0.00     0.001 A 
ATOM     14  CD2 PHE A   1      42.501 -10.499   9.945  1.00  0.00     0.007 A 
ENDBRANCH   8   9
ENDBRANCH   7   8
BRANCH   7  15
ATOM     15  C   PHE A   1      46.728 -11.701   8.944  1.00  0.00     0.189 C 
BRANCH  15  16
ATOM     16  O   PHE A   1      47.200 -10.949   7.830  1.00  0.00    -0.399 OA
ATOM     17  H   PHE A   1      46.653 -10.136   7.754  1.00  0.00     0.209 HD
ENDBRANCH  15  16
ENDBRANCH   7  15
ENDBRANCH   1   7
BRANCH   4  18
HETATM   18  C   UNK A   0      43.936 -15.737   6.733  1.00  0.00     0.038 A 
HETATM   19  C   UNK A   0      43.392 -15.525   5.460  1.00  0.00     0.063 A 
HETATM   20  C   UNK A   0      43.359 -16.592   4.545  1.00  0.00     0.087 A 
HETATM   21  C   UNK A   0      43.879 -17.826   4.914  1.00  0.00     0.063 A 
HETATM   22  N   UNK A   0      42.861 -16.636   3.265  1.00  0.00    -0.228 NA
HETATM   23  N   UNK A   0      43.684 -18.621   3.815  1.00  0.00    -0.338 N 
HETATM   24  C   UNK A   0      44.443 -18.073   6.164  1.00  0.00     0.034 A 
HETATM   25  H   UNK A   0      43.941 -19.594   3.726  1.00  0.00     0.167 HD
HETATM   26  C   UNK A   0      43.061 -17.874   2.846  1.00  0.00     0.170 A 
HETATM   27  C   UNK A   0      44.454 -17.000   7.066  1.00  0.00     0.032 A 
BRANCH  26  28
HETATM   28  C   UNK A   0      42.694 -18.472   1.537  1.00  0.00     0.422 C 
HETATM   29  F   UNK A   0      41.491 -17.995   1.113  1.00  0.00    -0.206 F 
HETATM   30  F   UNK A   0      43.590 -18.106   0.576  1.00  0.00    -0.206 F 
ENDBRANCH  26  28
ENDBRANCH   4  18
TORSDOF 7
ENDMDL
MODEL 5
REMARK VINA RESULT:      -8.0      7.458     10.605
REMARK  7 active torsions:
REMARK  status: ('A' for Active; 'I' for Inactive)
REMARK    1  A    between atoms: CG_4  and  CB_5 
REMARK    2  A    between atoms: CB_5  and  CA_6 
REMARK    3  A    between atoms: CA_6  and  N_7 
REMARK    4  A    between atoms: CA_6  and  C_8 
REMARK       I    between atoms: N_7  and  C_14 
REMARK    5  A    between atoms: C_8  and  O_9 
REMARK       I    between atoms: C_14  and  N_15 
REMARK    6  A    between atoms: N_15  and  C_16 
REMARK    7  A    between atoms: C_22  and  C_23 
ROOT
ATOM      1  N   PHE A   1      41.221 -17.446   1.833  1.00  0.00    -0.336 N 
ATOM      2  H   PHE A   1      40.487 -18.026   1.458  1.00  0.00     0.164 HD
HETATM    3  C   UNK A   0      41.783 -16.494   1.014  1.00  0.00     0.321 C 
HETATM    4  N   UNK A   0      40.984 -16.228  -0.071  1.00  0.00    -0.309 N 
HETATM    5  O   UNK A   0      42.866 -15.991   1.282  1.00  0.00    -0.247 OA
HETATM    6  H   UNK A   0      40.105 -16.720  -0.102  1.00  0.00     0.170 HD
ENDROOT
BRANCH   1   7
ATOM      7  CA  PHE A   1      41.834 -17.854   3.105  1.00  0.00     0.113 C 
BRANCH   7   8
ATOM      8  CB  PHE A   1      43.349 -18.086   2.927  1.00  0.00     0.065 C 
BRANCH   8   9
ATOM      9  CG  PHE A   1      43.751 -19.545   2.915  1.00  0.00    -0.056 A 
ATOM     10  CD1 PHE A   1      43.416 -20.365   1.829  1.00  0.00     0.007 A 
ATOM     11  CE1 PHE A   1      43.786 -21.712   1.818  1.00  0.00     0.001 A 
ATOM     12  CZ  PHE A   1      44.497 -22.250   2.889  1.00  0.00     0.000 A 
ATOM     13  CE2 PHE A   1      44.844 -21.443   3.969  1.00  0.00     0.001 A 
ATOM     14  CD2 PHE A   1      44.477 -20.095   3.981  1.00  0.00     0.007 A 
ENDBRANCH   8   9
ENDBRANCH   7   8
BRANCH   7  15
ATOM     15  C   PHE A   1      41.591 -16.799   4.207  1.00  0.00     0.189 C 
BRANCH  15  16
ATOM     16  O   PHE A   1      40.630 -17.224   5.170  1.00  0.00    -0.399 OA
ATOM     17  H   PHE A   1      40.952 -18.058   5.577  1.00  0.00     0.209 HD
ENDBRANCH  15  16
ENDBRANCH   7  15
ENDBRANCH   1   7
BRANCH   4  18
HETATM   18  C   UNK A   0      41.205 -15.282  -1.095  1.00  0.00     0.038 A 
HETATM   19  C   UNK A   0      41.650 -13.975  -0.862  1.00  0.00     0.063 A 
HETATM   20  C   UNK A   0      41.804 -13.101  -1.952  1.00  0.00     0.087 A 
HETATM   21  C   UNK A   0      41.527 -13.554  -3.236  1.00  0.00     0.063 A 
HETATM   22  N   UNK A   0      42.198 -11.785  -1.974  1.00  0.00    -0.228 NA
HETATM   23  N   UNK A   0      41.770 -12.470  -4.039  1.00  0.00    -0.338 N 
HETATM   24  C   UNK A   0      41.098 -14.850  -3.512  1.00  0.00     0.034 A 
HETATM   25  H   UNK A   0      41.669 -12.434  -5.044  1.00  0.00     0.167 HD
HETATM   26  C   UNK A   0      42.162 -11.421  -3.244  1.00  0.00     0.170 A 
HETATM   27  C   UNK A   0      40.938 -15.701  -2.410  1.00  0.00     0.032 A 
BRANCH  26  28
HETATM   28  C   UNK A   0      42.475 -10.093  -3.830  1.00  0.00     0.422 C 
HETATM   29  F   UNK A   0      43.013 -10.233  -5.073  1.00  0.00    -0.206 F 
HETATM   30  F   UNK A   0      41.335  -9.367  -4.006  1.00  0.00    -0.206 F 
ENDBRANCH  26  28
ENDBRANCH   4  18
TORSDOF 7
ENDMDL
MODEL 6
REMARK VINA RESULT:      -7.8      3.487      5.780
REMARK  7 active torsions:
REMARK  status: ('A' for Active; 'I' for Inactive)
REMARK    1  A    between atoms: CG_4  and  CB_5 
REMARK    2  A    between atoms: CB_5  and  CA_6 
REMARK    3  A    between atoms: CA_6  and  N_7 
REMARK    4  A    between atoms: CA_6  and  C_8 
REMARK       I    between atoms: N_7  and  C_14 
REMARK    5  A    between atoms: C_8  and  O_9 
REMARK       I    between atoms: C_14  and  N_15 
REMARK    6  A    between atoms: N_15  and  C_16 
REMARK    7  A    between atoms: C_22  and  C_23 
ROOT
ATOM      1  N   PHE A   1      41.411 -13.933   5.979  1.00  0.00    -0.336 N 
ATOM      2  H   PHE A   1      41.133 -14.196   6.911  1.00  0.00     0.164 HD
HETATM    3  C   UNK A   0      42.285 -14.751   5.302  1.00  0.00     0.321 C 
HETATM    4  N   UNK A   0      42.339 -16.004   5.864  1.00  0.00    -0.309 N 
HETATM    5  O   UNK A   0      42.906 -14.345   4.328  1.00  0.00    -0.247 OA
HETATM    6  H   UNK A   0      41.724 -16.162   6.646  1.00  0.00     0.170 HD
ENDROOT
BRANCH   1   7
ATOM      7  CA  PHE A   1      41.106 -12.565   5.535  1.00  0.00     0.113 C 
BRANCH   7   8
ATOM      8  CB  PHE A   1      39.755 -12.525   4.791  1.00  0.00     0.065 C 
BRANCH   8   9
ATOM      9  CG  PHE A   1      39.836 -12.959   3.343  1.00  0.00    -0.056 A 
ATOM     10  CD1 PHE A   1      39.410 -14.238   2.960  1.00  0.00     0.007 A 
ATOM     11  CE1 PHE A   1      39.486 -14.639   1.624  1.00  0.00     0.001 A 
ATOM     12  CZ  PHE A   1      39.984 -13.765   0.659  1.00  0.00     0.000 A 
ATOM     13  CE2 PHE A   1      40.400 -12.488   1.026  1.00  0.00     0.001 A 
ATOM     14  CD2 PHE A   1      40.323 -12.084   2.361  1.00  0.00     0.007 A 
ENDBRANCH   8   9
ENDBRANCH   7   8
BRANCH   7  15
ATOM     15  C   PHE A   1      41.078 -11.582   6.726  1.00  0.00     0.189 C 
BRANCH  15  16
ATOM     16  O   PHE A   1      42.249 -11.667   7.533  1.00  0.00    -0.399 OA
ATOM     17  H   PHE A   1      41.992 -11.493   8.466  1.00  0.00     0.209 HD
ENDBRANCH  15  16
ENDBRANCH   7  15
ENDBRANCH   1   7
BRANCH   4  18
HETATM   18  C   UNK A   0      43.082 -17.119   5.419  1.00  0.00     0.038 A 
HETATM   19  C   UNK A   0      42.778 -17.842   4.259  1.00  0.00     0.063 A 
HETATM   20  C   UNK A   0      43.562 -18.959   3.926  1.00  0.00     0.087 A 
HETATM   21  C   UNK A   0      44.630 -19.314   4.741  1.00  0.00     0.063 A 
HETATM   22  N   UNK A   0      43.448 -19.828   2.867  1.00  0.00    -0.228 NA
HETATM   23  N   UNK A   0      45.162 -20.426   4.141  1.00  0.00    -0.338 N 
HETATM   24  C   UNK A   0      44.975 -18.612   5.894  1.00  0.00     0.034 A 
HETATM   25  H   UNK A   0      45.957 -20.958   4.465  1.00  0.00     0.167 HD
HETATM   26  C   UNK A   0      44.419 -20.711   3.022  1.00  0.00     0.170 A 
HETATM   27  C   UNK A   0      44.172 -17.509   6.216  1.00  0.00     0.032 A 
BRANCH  26  28
HETATM   28  C   UNK A   0      44.741 -21.883   2.170  1.00  0.00     0.422 C 
HETATM   29  F   UNK A   0      44.815 -23.017   2.922  1.00  0.00    -0.206 F 
HETATM   30  F   UNK A   0      43.743 -22.109   1.268  1.00  0.00    -0.206 F 
ENDBRANCH  26  28
ENDBRANCH   4  18
TORSDOF 7
ENDMDL
MODEL 7
REMARK VINA RESULT:      -7.7      6.204      9.502
REMARK  7 active torsions:
REMARK  status: ('A' for Active; 'I' for Inactive)
REMARK    1  A    between atoms: CG_4  and  CB_5 
REMARK    2  A    between atoms: CB_5  and  CA_6 
REMARK    3  A    between atoms: CA_6  and  N_7 
REMARK    4  A    between atoms: CA_6  and  C_8 
REMARK       I    between atoms: N_7  and  C_14 
REMARK    5  A    between atoms: C_8  and  O_9 
REMARK       I    between atoms: C_14  and  N_15 
REMARK    6  A    between atoms: N_15  and  C_16 
REMARK    7  A    between atoms: C_22  and  C_23 
ROOT
ATOM      1  N   PHE A   1      41.716 -18.063   4.699  1.00  0.00    -0.336 N 
ATOM      2  H   PHE A   1      41.082 -18.823   4.511  1.00  0.00     0.164 HD
HETATM    3  C   UNK A   0      41.745 -17.005   3.819  1.00  0.00     0.321 C 
HETATM    4  N   UNK A   0      40.622 -16.977   3.029  1.00  0.00    -0.309 N 
HETATM    5  O   UNK A   0      42.689 -16.226   3.799  1.00  0.00    -0.247 OA
HETATM    6  H   UNK A   0      39.933 -17.687   3.218  1.00  0.00     0.170 HD
ENDROOT
BRANCH   1   7
ATOM      7  CA  PHE A   1      42.760 -18.275   5.712  1.00  0.00     0.113 C 
BRANCH   7   8
ATOM      8  CB  PHE A   1      44.133 -18.484   5.040  1.00  0.00     0.065 C 
BRANCH   8   9
ATOM      9  CG  PHE A   1      44.301 -19.843   4.394  1.00  0.00    -0.056 A 
ATOM     10  CD1 PHE A   1      44.631 -20.963   5.169  1.00  0.00     0.007 A 
ATOM     11  CE1 PHE A   1      44.786 -22.216   4.573  1.00  0.00     0.001 A 
ATOM     12  CZ  PHE A   1      44.609 -22.363   3.199  1.00  0.00     0.000 A 
ATOM     13  CE2 PHE A   1      44.271 -21.260   2.420  1.00  0.00     0.001 A 
ATOM     14  CD2 PHE A   1      44.113 -20.006   3.014  1.00  0.00     0.007 A 
ENDBRANCH   8   9
ENDBRANCH   7   8
BRANCH   7  15
ATOM     15  C   PHE A   1      42.834 -17.088   6.697  1.00  0.00     0.189 C 
BRANCH  15  16
ATOM     16  O   PHE A   1      44.037 -16.337   6.561  1.00  0.00    -0.399 OA
ATOM     17  H   PHE A   1      44.625 -16.811   5.931  1.00  0.00     0.209 HD
ENDBRANCH  15  16
ENDBRANCH   7  15
ENDBRANCH   1   7
BRANCH   4  18
HETATM   18  C   UNK A   0      40.278 -16.019   2.050  1.00  0.00     0.038 A 
HETATM   19  C   UNK A   0      39.247 -15.085   2.207  1.00  0.00     0.063 A 
HETATM   20  C   UNK A   0      38.964 -14.198   1.155  1.00  0.00     0.087 A 
HETATM   21  C   UNK A   0      39.719 -14.254  -0.010  1.00  0.00     0.063 A 
HETATM   22  N   UNK A   0      38.000 -13.223   1.063  1.00  0.00    -0.228 NA
HETATM   23  N   UNK A   0      39.184 -13.279  -0.811  1.00  0.00    -0.338 N 
HETATM   24  C   UNK A   0      40.763 -15.158  -0.199  1.00  0.00     0.034 A 
HETATM   25  H   UNK A   0      39.487 -13.037  -1.744  1.00  0.00     0.167 HD
HETATM   26  C   UNK A   0      38.146 -12.686  -0.136  1.00  0.00     0.170 A 
HETATM   27  C   UNK A   0      41.021 -16.042   0.857  1.00  0.00     0.032 A 
BRANCH  26  28
HETATM   28  C   UNK A   0      37.350 -11.600  -0.761  1.00  0.00     0.422 C 
HETATM   29  F   UNK A   0      37.369 -11.711  -2.118  1.00  0.00    -0.206 F 
HETATM   30  F   UNK A   0      36.037 -11.703  -0.406  1.00  0.00    -0.206 F 
ENDBRANCH  26  28
ENDBRANCH   4  18
TORSDOF 7
ENDMDL
MODEL 8
REMARK VINA RESULT:      -7.7      1.803      2.324
REMARK  7 active torsions:
REMARK  status: ('A' for Active; 'I' for Inactive)
REMARK    1  A    between atoms: CG_4  and  CB_5 
REMARK    2  A    between atoms: CB_5  and  CA_6 
REMARK    3  A    between atoms: CA_6  and  N_7 
REMARK    4  A    between atoms: CA_6  and  C_8 
REMARK       I    between atoms: N_7  and  C_14 
REMARK    5  A    between atoms: C_8  and  O_9 
REMARK       I    between atoms: C_14  and  N_15 
REMARK    6  A    between atoms: N_15  and  C_16 
REMARK    7  A    between atoms: C_22  and  C_23 
ROOT
ATOM      1  N   PHE A   1      44.537 -12.832   9.415  1.00  0.00    -0.336 N 
ATOM      2  H   PHE A   1      45.266 -13.462   9.711  1.00  0.00     0.164 HD
HETATM    3  C   UNK A   0      44.034 -12.969   8.142  1.00  0.00     0.321 C 
HETATM    4  N   UNK A   0      44.341 -14.197   7.609  1.00  0.00    -0.309 N 
HETATM    5  O   UNK A   0      43.402 -12.064   7.611  1.00  0.00    -0.247 OA
HETATM    6  H   UNK A   0      44.843 -14.827   8.214  1.00  0.00     0.170 HD
ENDROOT
BRANCH   1   7
ATOM      7  CA  PHE A   1      44.280 -11.644  10.241  1.00  0.00     0.113 C 
BRANCH   7   8
ATOM      8  CB  PHE A   1      43.889 -12.055  11.676  1.00  0.00     0.065 C 
BRANCH   8   9
ATOM      9  CG  PHE A   1      43.028 -11.038  12.395  1.00  0.00    -0.056 A 
ATOM     10  CD1 PHE A   1      41.649 -11.243  12.531  1.00  0.00     0.007 A 
ATOM     11  CE1 PHE A   1      40.855 -10.304  13.194  1.00  0.00     0.001 A 
ATOM     12  CZ  PHE A   1      41.432  -9.156  13.730  1.00  0.00     0.000 A 
ATOM     13  CE2 PHE A   1      42.803  -8.946  13.611  1.00  0.00     0.001 A 
ATOM     14  CD2 PHE A   1      43.599  -9.884  12.951  1.00  0.00     0.007 A 
ENDBRANCH   8   9
ENDBRANCH   7   8
BRANCH   7  15
ATOM     15  C   PHE A   1      45.511 -10.712  10.280  1.00  0.00     0.189 C 
BRANCH  15  16
ATOM     16  O   PHE A   1      46.205 -10.669   9.037  1.00  0.00    -0.399 OA
ATOM     17  H   PHE A   1      45.874  -9.898   8.527  1.00  0.00     0.209 HD
ENDBRANCH  15  16
ENDBRANCH   7  15
ENDBRANCH   1   7
BRANCH   4  18
HETATM   18  C   UNK A   0      43.958 -14.713   6.352  1.00  0.00     0.038 A 
HETATM   19  C   UNK A   0      43.813 -16.080   6.086  1.00  0.00     0.063 A 
HETATM   20  C   UNK A   0      43.462 -16.490   4.788  1.00  0.00     0.087 A 
HETATM   21  C   UNK A   0      43.251 -15.534   3.802  1.00  0.00     0.063 A 
HETATM   22  N   UNK A   0      43.286 -17.757   4.284  1.00  0.00    -0.228 NA
HETATM   23  N   UNK A   0      42.938 -16.262   2.684  1.00  0.00    -0.338 N 
HETATM   24  C   UNK A   0      43.369 -14.165   4.030  1.00  0.00     0.034 A 
HETATM   25  H   UNK A   0      42.723 -15.891   1.768  1.00  0.00     0.167 HD
HETATM   26  C   UNK A   0      42.978 -17.595   3.009  1.00  0.00     0.170 A 
HETATM   27  C   UNK A   0      43.733 -13.778   5.327  1.00  0.00     0.032 A 
BRANCH  26  28
HETATM   28  C   UNK A   0      42.705 -18.639   1.989  1.00  0.00     0.422 C 
HETATM   29  F   UNK A   0      43.496 -18.459   0.895  1.00  0.00    -0.206 F 
HETATM   30  F   UNK A   0      43.025 -19.874   2.470  1.00  0.00    -0.206 F 
ENDBRANCH  26  28
ENDBRANCH   4  18
TORSDOF 7
ENDMDL
MODEL 9
REMARK VINA RESULT:      -7.7      6.746      9.005
REMARK  7 active torsions:
REMARK  status: ('A' for Active; 'I' for Inactive)
REMARK    1  A    between atoms: CG_4  and  CB_5 
REMARK    2  A    between atoms: CB_5  and  CA_6 
REMARK    3  A    between atoms: CA_6  and  N_7 
REMARK    4  A    between atoms: CA_6  and  C_8 
REMARK       I    between atoms: N_7  and  C_14 
REMARK    5  A    between atoms: C_8  and  O_9 
REMARK       I    between atoms: C_14  and  N_15 
REMARK    6  A    between atoms: N_15  and  C_16 
REMARK    7  A    between atoms: C_22  and  C_23 
ROOT
ATOM      1  N   PHE A   1      43.399 -20.126   2.648  1.00  0.00    -0.336 N 
ATOM      2  H   PHE A   1      42.609 -20.745   2.560  1.00  0.00     0.164 HD
HETATM    3  C   UNK A   0      43.269 -18.833   2.195  1.00  0.00     0.321 C 
HETATM    4  N   UNK A   0      41.949 -18.484   2.045  1.00  0.00    -0.309 N 
HETATM    5  O   UNK A   0      44.252 -18.140   1.972  1.00  0.00    -0.247 OA
HETATM    6  H   UNK A   0      41.275 -19.182   2.314  1.00  0.00     0.170 HD
ENDROOT
BRANCH   1   7
ATOM      7  CA  PHE A   1      44.704 -20.721   2.971  1.00  0.00     0.113 C 
BRANCH   7   8
ATOM      8  CB  PHE A   1      44.711 -21.263   4.416  1.00  0.00     0.065 C 
BRANCH   8   9
ATOM      9  CG  PHE A   1      44.564 -20.193   5.475  1.00  0.00    -0.056 A 
ATOM     10  CD1 PHE A   1      43.802 -20.432   6.627  1.00  0.00     0.007 A 
ATOM     11  CE1 PHE A   1      43.666 -19.444   7.604  1.00  0.00     0.001 A 
ATOM     12  CZ  PHE A   1      44.293 -18.210   7.443  1.00  0.00     0.000 A 
ATOM     13  CE2 PHE A   1      45.062 -17.965   6.309  1.00  0.00     0.001 A 
ATOM     14  CD2 PHE A   1      45.201 -18.952   5.331  1.00  0.00     0.007 A 
ENDBRANCH   8   9
ENDBRANCH   7   8
BRANCH   7  15
ATOM     15  C   PHE A   1      45.062 -21.853   1.984  1.00  0.00     0.189 C 
BRANCH  15  16
ATOM     16  O   PHE A   1      43.945 -22.278   1.209  1.00  0.00    -0.399 OA
ATOM     17  H   PHE A   1      43.409 -21.487   0.983  1.00  0.00     0.209 HD
ENDBRANCH  15  16
ENDBRANCH   7  15
ENDBRANCH   1   7
BRANCH   4  18
HETATM   18  C   UNK A   0      41.426 -17.234   1.648  1.00  0.00     0.038 A 
HETATM   19  C   UNK A   0      40.583 -16.455   2.449  1.00  0.00     0.063 A 
HETATM   20  C   UNK A   0      40.089 -15.241   1.943  1.00  0.00     0.087 A 
HETATM   21  C   UNK A   0      40.458 -14.830   0.668  1.00  0.00     0.063 A 
HETATM   22  N   UNK A   0      39.240 -14.328   2.521  1.00  0.00    -0.228 NA
HETATM   23  N   UNK A   0      39.808 -13.636   0.493  1.00  0.00    -0.338 N 
HETATM   24  C   UNK A   0      41.307 -15.567  -0.154  1.00  0.00     0.034 A 
HETATM   25  H   UNK A   0      39.845 -13.049  -0.330  1.00  0.00     0.167 HD
HETATM   26  C   UNK A   0      39.077 -13.371   1.624  1.00  0.00     0.170 A 
HETATM   27  C   UNK A   0      41.778 -16.781   0.364  1.00  0.00     0.032 A 
BRANCH  26  28
HETATM   28  C   UNK A   0      38.241 -12.148   1.725  1.00  0.00     0.422 C 
HETATM   29  F   UNK A   0      38.870 -11.198   2.472  1.00  0.00    -0.206 F 
HETATM   30  F   UNK A   0      38.065 -11.586   0.495  1.00  0.00    -0.206 F 
ENDBRANCH  26  28
ENDBRANCH   4  18
TORSDOF 7
ENDMDL
MODEL 10
REMARK VINA RESULT:      -7.6      2.685      3.657
REMARK  7 active torsions:
REMARK  status: ('A' for Active; 'I' for Inactive)
REMARK    1  A    between atoms: CG_4  and  CB_5 
REMARK    2  A    between atoms: CB_5  and  CA_6 
REMARK    3  A    between atoms: CA_6  and  N_7 
REMARK    4  A    between atoms: CA_6  and  C_8 
REMARK       I    between atoms: N_7  and  C_14 
REMARK    5  A    between atoms: C_8  and  O_9 
REMARK       I    between atoms: C_14  and  N_15 
REMARK    6  A    between atoms: N_15  and  C_16 
REMARK    7  A    between atoms: C_22  and  C_23 
ROOT
ATOM      1  N   PHE A   1      41.710 -12.439   5.481  1.00  0.00    -0.336 N 
ATOM      2  H   PHE A   1      42.358 -11.947   4.886  1.00  0.00     0.164 HD
HETATM    3  C   UNK A   0      41.682 -13.813   5.421  1.00  0.00     0.321 C 
HETATM    4  N   UNK A   0      42.819 -14.314   4.834  1.00  0.00    -0.309 N 
HETATM    5  O   UNK A   0      40.728 -14.446   5.855  1.00  0.00    -0.247 OA
HETATM    6  H   UNK A   0      43.514 -13.635   4.570  1.00  0.00     0.170 HD
ENDROOT
BRANCH   1   7
ATOM      7  CA  PHE A   1      40.652 -11.657   6.136  1.00  0.00     0.113 C 
BRANCH   7   8
ATOM      8  CB  PHE A   1      41.254 -10.448   6.882  1.00  0.00     0.065 C 
BRANCH   8   9
ATOM      9  CG  PHE A   1      41.372 -10.645   8.378  1.00  0.00    -0.056 A 
ATOM     10  CD1 PHE A   1      42.629 -10.646   8.998  1.00  0.00     0.007 A 
ATOM     11  CE1 PHE A   1      42.738 -10.828  10.379  1.00  0.00     0.001 A 
ATOM     12  CZ  PHE A   1      41.594 -11.006  11.152  1.00  0.00     0.000 A 
ATOM     13  CE2 PHE A   1      40.339 -10.996  10.550  1.00  0.00     0.001 A 
ATOM     14  CD2 PHE A   1      40.227 -10.812   9.170  1.00  0.00     0.007 A 
ENDBRANCH   8   9
ENDBRANCH   7   8
BRANCH   7  15
ATOM     15  C   PHE A   1      39.601 -11.171   5.114  1.00  0.00     0.189 C 
BRANCH  15  16
ATOM     16  O   PHE A   1      38.367 -11.876   5.220  1.00  0.00    -0.399 OA
ATOM     17  H   PHE A   1      38.442 -12.517   5.961  1.00  0.00     0.209 HD
ENDBRANCH  15  16
ENDBRANCH   7  15
ENDBRANCH   1   7
BRANCH   4  18
HETATM   18  C   UNK A   0      43.167 -15.669   4.643  1.00  0.00     0.038 A 
HETATM   19  C   UNK A   0      43.083 -16.325   3.409  1.00  0.00     0.063 A 
HETATM   20  C   UNK A   0      43.421 -17.687   3.335  1.00  0.00     0.087 A 
HETATM   21  C   UNK A   0      43.844 -18.350   4.480  1.00  0.00     0.063 A 
HETATM   22  N   UNK A   0      43.397 -18.542   2.259  1.00  0.00    -0.228 NA
HETATM   23  N   UNK A   0      44.079 -19.635   4.063  1.00  0.00    -0.338 N 
HETATM   24  C   UNK A   0      43.956 -17.730   5.723  1.00  0.00     0.034 A 
HETATM   25  H   UNK A   0      44.400 -20.402   4.638  1.00  0.00     0.167 HD
HETATM   26  C   UNK A   0      43.790 -19.715   2.723  1.00  0.00     0.170 A 
HETATM   27  C   UNK A   0      43.602 -16.375   5.777  1.00  0.00     0.032 A 
BRANCH  26  28
HETATM   28  C   UNK A   0      43.926 -20.997   1.987  1.00  0.00     0.422 C 
HETATM   29  F   UNK A   0      44.487 -21.949   2.783  1.00  0.00    -0.206 F 
HETATM   30  F   UNK A   0      42.700 -21.485   1.645  1.00  0.00    -0.206 F 
ENDBRANCH  26  28
ENDBRANCH   4  18
TORSDOF 7
ENDMDL
