MODEL 1
REMARK VINA RESULT:      -8.8      0.000      0.000
REMARK  9 active torsions:
REMARK  status: ('A' for Active; 'I' for Inactive)
REMARK    1  A    between atoms: O_2  and  C_3 
REMARK    2  A    between atoms: C_6  and  C_7 
REMARK    3  A    between atoms: C_13  and  C_14 
REMARK       I    between atoms: C_14  and  N_15 
REMARK    4  A    between atoms: N_15  and  N_16 
REMARK    5  A    between atoms: N_16  and  C_17 
REMARK    6  A    between atoms: C_17  and  N_18 
REMARK    7  A    between atoms: N_18  and  C_19 
REMARK    8  A    between atoms: C_19  and  C_20 
REMARK    9  A    between atoms: C_27  and  C_28 
ROOT
HETATM    1  C   UNL     1      42.289 -16.991   2.518  1.00  0.00     0.118 C 
HETATM    2  N   UNL     1      41.953 -16.024   3.552  1.00  0.00    -0.365 N 
HETATM    3  C   UNL     1      41.620 -14.745   3.250  1.00  0.00     0.138 A 
HETATM    4  N   UNL     1      41.789 -14.262   1.980  1.00  0.00    -0.240 N 
HETATM    5  N   UNL     1      41.529 -12.950   1.859  1.00  0.00    -0.181 NA
HETATM    6  C   UNL     1      41.137 -12.610   3.093  1.00  0.00     0.160 A 
HETATM    7  C   UNL     1      41.111 -13.702   3.999  1.00  0.00     0.098 A 
HETATM    8  C   UNL     1      42.258 -15.059   0.860  1.00  0.00     0.221 C 
HETATM    9  C   UNL     1      43.048 -16.277   1.379  1.00  0.00     0.066 C 
HETATM   10  H   UNL     1      41.797 -16.389   4.495  1.00  0.00     0.161 HD
ENDROOT
BRANCH   7  11
HETATM   11  C   UNL     1      40.724 -13.768   5.398  1.00  0.00     0.275 C 
HETATM   12  N   UNL     1      41.709 -13.763   6.367  1.00  0.00    -0.263 N 
HETATM   13  H   UNL     1      41.377 -13.765   7.330  1.00  0.00     0.190 HD
HETATM   14  O   UNL     1      39.545 -13.803   5.750  1.00  0.00    -0.266 OA
BRANCH  12  15
HETATM   15  N   UNL     1      43.032 -13.319   6.173  1.00  0.00    -0.274 N 
HETATM   16  H   UNL     1      43.170 -12.313   6.198  1.00  0.00     0.189 HD
BRANCH  15  17
HETATM   17  C   UNL     1      44.074 -14.071   6.670  1.00  0.00     0.186 C 
HETATM   18  S   UNL     1      43.990 -15.683   7.101  1.00  0.00    -0.040 SA
BRANCH  17  19
HETATM   19  N   UNL     1      45.273 -13.429   6.776  1.00  0.00    -0.364 N 
HETATM   20  H   UNL     1      45.461 -12.818   5.982  1.00  0.00     0.162 HD
BRANCH  19  21
HETATM   21  C   UNL     1      45.917 -13.001   8.014  1.00  0.00     0.154 C 
BRANCH  21  22
HETATM   22  C   UNL     1      44.940 -12.221   8.896  1.00  0.00     0.139 C 
HETATM   23  O   UNL     1      44.420 -13.086   9.930  1.00  0.00    -0.384 OA
HETATM   24  C   UNL     1      44.421 -12.367  11.171  1.00  0.00     0.168 C 
HETATM   25  C   UNL     1      44.703 -10.918  10.837  1.00  0.00     0.029 C 
HETATM   26  C   UNL     1      45.578 -11.042   9.613  1.00  0.00     0.035 C 
ENDBRANCH  21  22
ENDBRANCH  19  21
ENDBRANCH  17  19
ENDBRANCH  15  17
ENDBRANCH  12  15
ENDBRANCH   7  11
BRANCH   1  27
HETATM   27  C   UNL     1      43.048 -18.151   3.133  1.00  0.00    -0.035 A 
HETATM   28  C   UNL     1      43.534 -19.175   2.302  1.00  0.00     0.012 A 
HETATM   29  C   UNL     1      44.257 -20.254   2.825  1.00  0.00     0.037 A 
HETATM   30  C   UNL     1      44.506 -20.332   4.194  1.00  0.00     0.068 A 
HETATM   31  C   UNL     1      43.992 -19.343   5.034  1.00  0.00     0.037 A 
HETATM   32  C   UNL     1      43.264 -18.268   4.513  1.00  0.00     0.012 A 
BRANCH  30  33
HETATM   33  O   UNL     1      45.214 -21.314   4.828  1.00  0.00    -0.356 OA
HETATM   34  C   UNL     1      44.797 -22.654   4.595  1.00  0.00     0.210 C 
ENDBRANCH  30  33
ENDBRANCH   1  27
BRANCH   8  35
HETATM   35  C   UNL     1      41.086 -15.459  -0.006  1.00  0.00     0.409 C 
HETATM   36  F   UNL     1      41.242 -16.666  -0.592  1.00  0.00    -0.169 F 
HETATM   37  F   UNL     1      39.917 -15.485   0.673  1.00  0.00    -0.169 F 
HETATM   38  F   UNL     1      40.925 -14.559  -1.012  1.00  0.00    -0.169 F 
ENDBRANCH   8  35
TORSDOF 9
ENDMDL
MODEL 2
REMARK VINA RESULT:      -8.7      2.059      2.701
REMARK  9 active torsions:
REMARK  status: ('A' for Active; 'I' for Inactive)
REMARK    1  A    between atoms: O_2  and  C_3 
REMARK    2  A    between atoms: C_6  and  C_7 
REMARK    3  A    between atoms: C_13  and  C_14 
REMARK       I    between atoms: C_14  and  N_15 
REMARK    4  A    between atoms: N_15  and  N_16 
REMARK    5  A    between atoms: N_16  and  C_17 
REMARK    6  A    between atoms: C_17  and  N_18 
REMARK    7  A    between atoms: N_18  and  C_19 
REMARK    8  A    between atoms: C_19  and  C_20 
REMARK    9  A    between atoms: C_27  and  C_28 
ROOT
HETATM    1  C   UNL     1      41.992 -16.989   2.986  1.00  0.00     0.118 C 
HETATM    2  N   UNL     1      42.576 -15.996   3.874  1.00  0.00    -0.365 N 
HETATM    3  C   UNL     1      42.278 -14.679   3.763  1.00  0.00     0.138 A 
HETATM    4  N   UNL     1      41.581 -14.210   2.681  1.00  0.00    -0.240 N 
HETATM    5  N   UNL     1      41.464 -12.873   2.649  1.00  0.00    -0.181 NA
HETATM    6  C   UNL     1      42.072 -12.493   3.779  1.00  0.00     0.160 A 
HETATM    7  C   UNL     1      42.551 -13.580   4.556  1.00  0.00     0.098 A 
HETATM    8  C   UNL     1      41.053 -15.054   1.625  1.00  0.00     0.221 C 
HETATM    9  C   UNL     1      41.834 -16.382   1.576  1.00  0.00     0.066 C 
HETATM   10  H   UNL     1      43.072 -16.345   4.699  1.00  0.00     0.161 HD
ENDROOT
BRANCH   7  11
HETATM   11  C   UNL     1      43.229 -13.605   5.840  1.00  0.00     0.275 C 
HETATM   12  N   UNL     1      42.765 -12.796   6.860  1.00  0.00    -0.263 N 
HETATM   13  H   UNL     1      43.251 -12.889   7.750  1.00  0.00     0.190 HD
HETATM   14  O   UNL     1      44.191 -14.343   6.060  1.00  0.00    -0.266 OA
BRANCH  12  15
HETATM   15  N   UNL     1      41.476 -12.229   6.918  1.00  0.00    -0.274 N 
HETATM   16  H   UNL     1      40.720 -12.868   7.143  1.00  0.00     0.189 HD
BRANCH  15  17
HETATM   17  C   UNL     1      41.327 -10.946   7.398  1.00  0.00     0.186 C 
HETATM   18  S   UNL     1      41.159  -9.571   6.464  1.00  0.00    -0.040 SA
BRANCH  17  19
HETATM   19  N   UNL     1      41.280 -10.822   8.756  1.00  0.00    -0.364 N 
HETATM   20  H   UNL     1      40.822 -11.613   9.206  1.00  0.00     0.162 HD
BRANCH  19  21
HETATM   21  C   UNL     1      42.272 -10.159   9.598  1.00  0.00     0.154 C 
BRANCH  21  22
HETATM   22  C   UNL     1      43.404 -11.121   9.967  1.00  0.00     0.139 C 
HETATM   23  O   UNL     1      44.316 -11.249   8.855  1.00  0.00    -0.384 OA
HETATM   24  C   UNL     1      45.659 -11.198   9.357  1.00  0.00     0.168 C 
HETATM   25  C   UNL     1      45.567 -11.310  10.864  1.00  0.00     0.029 C 
HETATM   26  C   UNL     1      44.238 -10.652  11.147  1.00  0.00     0.035 C 
ENDBRANCH  21  22
ENDBRANCH  19  21
ENDBRANCH  17  19
ENDBRANCH  15  17
ENDBRANCH  12  15
ENDBRANCH   7  11
BRANCH   1  27
HETATM   27  C   UNL     1      42.825 -18.257   3.022  1.00  0.00    -0.035 A 
HETATM   28  C   UNL     1      43.609 -18.535   4.154  1.00  0.00     0.012 A 
HETATM   29  C   UNL     1      44.377 -19.702   4.238  1.00  0.00     0.037 A 
HETATM   30  C   UNL     1      44.379 -20.616   3.185  1.00  0.00     0.068 A 
HETATM   31  C   UNL     1      43.638 -20.329   2.038  1.00  0.00     0.037 A 
HETATM   32  C   UNL     1      42.875 -19.160   1.951  1.00  0.00     0.012 A 
BRANCH  30  33
HETATM   33  O   UNL     1      45.062 -21.799   3.148  1.00  0.00    -0.356 OA
HETATM   34  C   UNL     1      44.676 -22.789   4.095  1.00  0.00     0.210 C 
ENDBRANCH  30  33
ENDBRANCH   1  27
BRANCH   8  35
HETATM   35  C   UNL     1      39.571 -15.265   1.833  1.00  0.00     0.409 C 
HETATM   36  F   UNL     1      38.810 -14.685   0.880  1.00  0.00    -0.169 F 
HETATM   37  F   UNL     1      39.230 -16.571   1.887  1.00  0.00    -0.169 F 
HETATM   38  F   UNL     1      39.188 -14.720   3.017  1.00  0.00    -0.169 F 
ENDBRANCH   8  35
TORSDOF 9
ENDMDL
MODEL 3
REMARK VINA RESULT:      -8.6      3.865      7.260
REMARK  9 active torsions:
REMARK  status: ('A' for Active; 'I' for Inactive)
REMARK    1  A    between atoms: O_2  and  C_3 
REMARK    2  A    between atoms: C_6  and  C_7 
REMARK    3  A    between atoms: C_13  and  C_14 
REMARK       I    between atoms: C_14  and  N_15 
REMARK    4  A    between atoms: N_15  and  N_16 
REMARK    5  A    between atoms: N_16  and  C_17 
REMARK    6  A    between atoms: C_17  and  N_18 
REMARK    7  A    between atoms: N_18  and  C_19 
REMARK    8  A    between atoms: C_19  and  C_20 
REMARK    9  A    between atoms: C_27  and  C_28 
ROOT
HETATM    1  C   UNL     1      43.234 -16.655   4.172  1.00  0.00     0.118 C 
HETATM    2  N   UNL     1      42.031 -16.206   3.488  1.00  0.00    -0.365 N 
HETATM    3  C   UNL     1      41.290 -15.172   3.954  1.00  0.00     0.138 A 
HETATM    4  N   UNL     1      41.529 -14.648   5.197  1.00  0.00    -0.240 N 
HETATM    5  N   UNL     1      40.642 -13.711   5.570  1.00  0.00    -0.181 NA
HETATM    6  C   UNL     1      39.844 -13.613   4.500  1.00  0.00     0.160 A 
HETATM    7  C   UNL     1      40.232 -14.457   3.427  1.00  0.00     0.098 A 
HETATM    8  C   UNL     1      42.601 -15.084   6.073  1.00  0.00     0.221 C 
HETATM    9  C   UNL     1      43.035 -16.514   5.697  1.00  0.00     0.066 C 
HETATM   10  H   UNL     1      41.867 -16.575   2.547  1.00  0.00     0.161 HD
ENDROOT
BRANCH   7  11
HETATM   11  C   UNL     1      39.665 -14.630   2.101  1.00  0.00     0.275 C 
HETATM   12  N   UNL     1      40.193 -13.908   1.047  1.00  0.00    -0.263 N 
HETATM   13  H   UNL     1      39.786 -14.104   0.133  1.00  0.00     0.190 HD
HETATM   14  O   UNL     1      38.745 -15.418   1.878  1.00  0.00    -0.266 OA
BRANCH  12  15
HETATM   15  N   UNL     1      41.466 -13.305   1.037  1.00  0.00    -0.274 N 
HETATM   16  H   UNL     1      42.170 -13.747   1.622  1.00  0.00     0.189 HD
BRANCH  15  17
HETATM   17  C   UNL     1      41.936 -12.743  -0.129  1.00  0.00     0.186 C 
HETATM   18  S   UNL     1      42.322 -11.132  -0.346  1.00  0.00    -0.040 SA
BRANCH  17  19
HETATM   19  N   UNL     1      42.125 -13.604  -1.170  1.00  0.00    -0.364 N 
HETATM   20  H   UNL     1      41.628 -14.485  -1.044  1.00  0.00     0.162 HD
BRANCH  19  21
HETATM   21  C   UNL     1      42.330 -13.238  -2.569  1.00  0.00     0.154 C 
BRANCH  21  22
HETATM   22  C   UNL     1      41.285 -13.905  -3.465  1.00  0.00     0.139 C 
HETATM   23  O   UNL     1      41.457 -15.339  -3.428  1.00  0.00    -0.384 OA
HETATM   24  C   UNL     1      40.165 -15.952  -3.313  1.00  0.00     0.168 C 
HETATM   25  C   UNL     1      39.142 -14.863  -3.556  1.00  0.00     0.029 C 
HETATM   26  C   UNL     1      39.853 -13.640  -3.031  1.00  0.00     0.035 C 
ENDBRANCH  21  22
ENDBRANCH  19  21
ENDBRANCH  17  19
ENDBRANCH  15  17
ENDBRANCH  12  15
ENDBRANCH   7  11
BRANCH   1  27
HETATM   27  C   UNL     1      43.581 -18.062   3.723  1.00  0.00    -0.035 A 
HETATM   28  C   UNL     1      43.192 -18.492   2.443  1.00  0.00     0.012 A 
HETATM   29  C   UNL     1      43.509 -19.775   1.980  1.00  0.00     0.037 A 
HETATM   30  C   UNL     1      44.220 -20.656   2.792  1.00  0.00     0.068 A 
HETATM   31  C   UNL     1      44.573 -20.255   4.081  1.00  0.00     0.037 A 
HETATM   32  C   UNL     1      44.252 -18.976   4.547  1.00  0.00     0.012 A 
BRANCH  30  33
HETATM   33  O   UNL     1      44.612 -21.922   2.456  1.00  0.00    -0.356 OA
HETATM   34  C   UNL     1      44.750 -22.853   3.524  1.00  0.00     0.210 C 
ENDBRANCH  30  33
ENDBRANCH   1  27
BRANCH   8  35
HETATM   35  C   UNL     1      43.746 -14.098   6.007  1.00  0.00     0.409 C 
HETATM   36  F   UNL     1      43.940 -13.589   4.772  1.00  0.00    -0.169 F 
HETATM   37  F   UNL     1      43.590 -13.059   6.856  1.00  0.00    -0.169 F 
HETATM   38  F   UNL     1      44.905 -14.711   6.360  1.00  0.00    -0.169 F 
ENDBRANCH   8  35
TORSDOF 9
ENDMDL
MODEL 4
REMARK VINA RESULT:      -8.5      2.870      6.344
REMARK  9 active torsions:
REMARK  status: ('A' for Active; 'I' for Inactive)
REMARK    1  A    between atoms: O_2  and  C_3 
REMARK    2  A    between atoms: C_6  and  C_7 
REMARK    3  A    between atoms: C_13  and  C_14 
REMARK       I    between atoms: C_14  and  N_15 
REMARK    4  A    between atoms: N_15  and  N_16 
REMARK    5  A    between atoms: N_16  and  C_17 
REMARK    6  A    between atoms: C_17  and  N_18 
REMARK    7  A    between atoms: N_18  and  C_19 
REMARK    8  A    between atoms: C_19  and  C_20 
REMARK    9  A    between atoms: C_27  and  C_28 
ROOT
HETATM    1  C   UNL     1      41.620 -15.710   0.976  1.00  0.00     0.118 C 
HETATM    2  N   UNL     1      41.167 -15.291   2.293  1.00  0.00    -0.365 N 
HETATM    3  C   UNL     1      41.296 -16.092   3.379  1.00  0.00     0.138 A 
HETATM    4  N   UNL     1      41.665 -17.403   3.237  1.00  0.00    -0.240 N 
HETATM    5  N   UNL     1      41.636 -18.101   4.384  1.00  0.00    -0.181 NA
HETATM    6  C   UNL     1      41.278 -17.179   5.286  1.00  0.00     0.160 A 
HETATM    7  C   UNL     1      41.110 -15.883   4.731  1.00  0.00     0.098 A 
HETATM    8  C   UNL     1      42.008 -18.021   1.970  1.00  0.00     0.221 C 
HETATM    9  C   UNL     1      41.376 -17.226   0.811  1.00  0.00     0.066 C 
HETATM   10  H   UNL     1      40.920 -14.304   2.406  1.00  0.00     0.161 HD
ENDROOT
BRANCH   7  11
HETATM   11  C   UNL     1      40.763 -14.619   5.357  1.00  0.00     0.275 C 
HETATM   12  N   UNL     1      41.768 -13.843   5.904  1.00  0.00    -0.263 N 
HETATM   13  H   UNL     1      41.471 -12.947   6.288  1.00  0.00     0.190 HD
HETATM   14  O   UNL     1      39.605 -14.203   5.396  1.00  0.00    -0.266 OA
BRANCH  12  15
HETATM   15  N   UNL     1      43.137 -13.955   5.590  1.00  0.00    -0.274 N 
HETATM   16  H   UNL     1      43.505 -13.252   4.956  1.00  0.00     0.189 HD
BRANCH  15  17
HETATM   17  C   UNL     1      44.015 -14.396   6.555  1.00  0.00     0.186 C 
HETATM   18  S   UNL     1      44.663 -13.462   7.779  1.00  0.00    -0.040 SA
BRANCH  17  19
HETATM   19  N   UNL     1      44.338 -15.720   6.505  1.00  0.00    -0.364 N 
HETATM   20  H   UNL     1      45.243 -15.886   6.067  1.00  0.00     0.162 HD
BRANCH  19  21
HETATM   21  C   UNL     1      43.960 -16.740   7.480  1.00  0.00     0.154 C 
BRANCH  21  22
HETATM   22  C   UNL     1      44.603 -18.085   7.138  1.00  0.00     0.139 C 
HETATM   23  O   UNL     1      43.732 -19.160   7.553  1.00  0.00    -0.384 OA
HETATM   24  C   UNL     1      43.691 -20.145   6.511  1.00  0.00     0.168 C 
HETATM   25  C   UNL     1      44.787 -19.788   5.530  1.00  0.00     0.029 C 
HETATM   26  C   UNL     1      44.840 -18.285   5.650  1.00  0.00     0.035 C 
ENDBRANCH  21  22
ENDBRANCH  19  21
ENDBRANCH  17  19
ENDBRANCH  15  17
ENDBRANCH  12  15
ENDBRANCH   7  11
BRANCH   1  27
HETATM   27  C   UNL     1      40.951 -14.859  -0.088  1.00  0.00    -0.035 A 
HETATM   28  C   UNL     1      40.277 -13.686   0.292  1.00  0.00     0.012 A 
HETATM   29  C   UNL     1      39.664 -12.861  -0.658  1.00  0.00     0.037 A 
HETATM   30  C   UNL     1      39.710 -13.196  -2.010  1.00  0.00     0.068 A 
HETATM   31  C   UNL     1      40.339 -14.380  -2.394  1.00  0.00     0.037 A 
HETATM   32  C   UNL     1      40.948 -15.209  -1.445  1.00  0.00     0.012 A 
BRANCH  30  33
HETATM   33  O   UNL     1      39.174 -12.469  -3.037  1.00  0.00    -0.356 OA
HETATM   34  C   UNL     1      40.074 -11.653  -3.779  1.00  0.00     0.210 C 
ENDBRANCH  30  33
ENDBRANCH   1  27
BRANCH   8  35
HETATM   35  C   UNL     1      43.511 -18.126   1.844  1.00  0.00     0.409 C 
HETATM   36  F   UNL     1      43.953 -17.976   0.577  1.00  0.00    -0.169 F 
HETATM   37  F   UNL     1      44.164 -17.224   2.611  1.00  0.00    -0.169 F 
HETATM   38  F   UNL     1      43.927 -19.351   2.256  1.00  0.00    -0.169 F 
ENDBRANCH   8  35
TORSDOF 9
ENDMDL
MODEL 5
REMARK VINA RESULT:      -8.5      4.020      7.738
REMARK  9 active torsions:
REMARK  status: ('A' for Active; 'I' for Inactive)
REMARK    1  A    between atoms: O_2  and  C_3 
REMARK    2  A    between atoms: C_6  and  C_7 
REMARK    3  A    between atoms: C_13  and  C_14 
REMARK       I    between atoms: C_14  and  N_15 
REMARK    4  A    between atoms: N_15  and  N_16 
REMARK    5  A    between atoms: N_16  and  C_17 
REMARK    6  A    between atoms: C_17  and  N_18 
REMARK    7  A    between atoms: N_18  and  C_19 
REMARK    8  A    between atoms: C_19  and  C_20 
REMARK    9  A    between atoms: C_27  and  C_28 
ROOT
HETATM    1  C   UNL     1      43.466 -16.142   3.917  1.00  0.00     0.118 C 
HETATM    2  N   UNL     1      42.874 -15.285   2.901  1.00  0.00    -0.365 N 
HETATM    3  C   UNL     1      42.297 -14.100   3.217  1.00  0.00     0.138 A 
HETATM    4  N   UNL     1      42.064 -13.766   4.525  1.00  0.00    -0.240 N 
HETATM    5  N   UNL     1      41.381 -12.620   4.678  1.00  0.00    -0.181 NA
HETATM    6  C   UNL     1      41.221 -12.198   3.418  1.00  0.00     0.160 A 
HETATM    7  C   UNL     1      41.826 -13.048   2.456  1.00  0.00     0.098 A 
HETATM    8  C   UNL     1      42.460 -14.582   5.658  1.00  0.00     0.221 C 
HETATM    9  C   UNL     1      42.632 -16.047   5.212  1.00  0.00     0.066 C 
HETATM   10  H   UNL     1      43.073 -15.518   1.924  1.00  0.00     0.161 HD
ENDROOT
BRANCH   7  11
HETATM   11  C   UNL     1      41.909 -12.940   1.010  1.00  0.00     0.275 C 
HETATM   12  N   UNL     1      41.091 -13.735   0.229  1.00  0.00    -0.263 N 
HETATM   13  H   UNL     1      41.162 -13.583  -0.776  1.00  0.00     0.190 HD
HETATM   14  O   UNL     1      42.669 -12.145   0.455  1.00  0.00    -0.266 OA
BRANCH  12  15
HETATM   15  N   UNL     1      39.914 -14.368   0.676  1.00  0.00    -0.274 N 
HETATM   16  H   UNL     1      39.983 -14.853   1.566  1.00  0.00     0.189 HD
BRANCH  15  17
HETATM   17  C   UNL     1      38.695 -13.783   0.415  1.00  0.00     0.186 C 
HETATM   18  S   UNL     1      37.961 -12.607   1.348  1.00  0.00    -0.040 SA
BRANCH  17  19
HETATM   19  N   UNL     1      38.072 -14.190  -0.727  1.00  0.00    -0.364 N 
HETATM   20  H   UNL     1      37.265 -14.785  -0.542  1.00  0.00     0.162 HD
BRANCH  19  21
HETATM   21  C   UNL     1      37.973 -13.437  -1.975  1.00  0.00     0.154 C 
BRANCH  21  22
HETATM   22  C   UNL     1      38.758 -14.128  -3.092  1.00  0.00     0.139 C 
HETATM   23  O   UNL     1      40.035 -14.573  -2.587  1.00  0.00    -0.384 OA
HETATM   24  C   UNL     1      40.284 -15.899  -3.074  1.00  0.00     0.168 C 
HETATM   25  C   UNL     1      39.241 -16.177  -4.136  1.00  0.00     0.029 C 
HETATM   26  C   UNL     1      38.068 -15.364  -3.644  1.00  0.00     0.035 C 
ENDBRANCH  21  22
ENDBRANCH  19  21
ENDBRANCH  17  19
ENDBRANCH  15  17
ENDBRANCH  12  15
ENDBRANCH   7  11
BRANCH   1  27
HETATM   27  C   UNL     1      43.605 -17.553   3.374  1.00  0.00    -0.035 A 
HETATM   28  C   UNL     1      44.077 -18.572   4.219  1.00  0.00     0.012 A 
HETATM   29  C   UNL     1      44.201 -19.891   3.765  1.00  0.00     0.037 A 
HETATM   30  C   UNL     1      43.859 -20.216   2.454  1.00  0.00     0.068 A 
HETATM   31  C   UNL     1      43.430 -19.204   1.595  1.00  0.00     0.037 A 
HETATM   32  C   UNL     1      43.311 -17.884   2.045  1.00  0.00     0.012 A 
BRANCH  30  33
HETATM   33  O   UNL     1      43.912 -21.462   1.895  1.00  0.00    -0.356 OA
HETATM   34  C   UNL     1      44.517 -22.488   2.675  1.00  0.00     0.210 C 
ENDBRANCH  30  33
ENDBRANCH   1  27
BRANCH   8  35
HETATM   35  C   UNL     1      43.716 -14.016   6.279  1.00  0.00     0.409 C 
HETATM   36  F   UNL     1      44.623 -13.604   5.368  1.00  0.00    -0.169 F 
HETATM   37  F   UNL     1      43.469 -12.977   7.106  1.00  0.00    -0.169 F 
HETATM   38  F   UNL     1      44.329 -14.967   7.032  1.00  0.00    -0.169 F 
ENDBRANCH   8  35
TORSDOF 9
ENDMDL
MODEL 6
REMARK VINA RESULT:      -8.4      3.319      5.476
REMARK  9 active torsions:
REMARK  status: ('A' for Active; 'I' for Inactive)
REMARK    1  A    between atoms: O_2  and  C_3 
REMARK    2  A    between atoms: C_6  and  C_7 
REMARK    3  A    between atoms: C_13  and  C_14 
REMARK       I    between atoms: C_14  and  N_15 
REMARK    4  A    between atoms: N_15  and  N_16 
REMARK    5  A    between atoms: N_16  and  C_17 
REMARK    6  A    between atoms: C_17  and  N_18 
REMARK    7  A    between atoms: N_18  and  C_19 
REMARK    8  A    between atoms: C_19  and  C_20 
REMARK    9  A    between atoms: C_27  and  C_28 
ROOT
HETATM    1  C   UNL     1      43.017 -16.811   3.349  1.00  0.00     0.118 C 
HETATM    2  N   UNL     1      43.267 -15.823   4.387  1.00  0.00    -0.365 N 
HETATM    3  C   UNL     1      43.413 -16.176   5.687  1.00  0.00     0.138 A 
HETATM    4  N   UNL     1      43.125 -17.450   6.100  1.00  0.00    -0.240 N 
HETATM    5  N   UNL     1      43.204 -17.620   7.429  1.00  0.00    -0.181 NA
HETATM    6  C   UNL     1      43.601 -16.417   7.861  1.00  0.00     0.160 A 
HETATM    7  C   UNL     1      43.811 -15.482   6.814  1.00  0.00     0.098 A 
HETATM    8  C   UNL     1      42.718 -18.522   5.210  1.00  0.00     0.221 C 
HETATM    9  C   UNL     1      42.121 -17.932   3.918  1.00  0.00     0.066 C 
HETATM   10  H   UNL     1      43.511 -14.878   4.079  1.00  0.00     0.161 HD
ENDROOT
BRANCH   7  11
HETATM   11  C   UNL     1      44.265 -14.103   6.847  1.00  0.00     0.275 C 
HETATM   12  N   UNL     1      43.380 -13.098   6.504  1.00  0.00    -0.263 N 
HETATM   13  H   UNL     1      43.740 -12.149   6.590  1.00  0.00     0.190 HD
HETATM   14  O   UNL     1      45.405 -13.796   7.196  1.00  0.00    -0.266 OA
BRANCH  12  15
HETATM   15  N   UNL     1      41.977 -13.226   6.490  1.00  0.00    -0.274 N 
HETATM   16  H   UNL     1      41.599 -14.017   7.003  1.00  0.00     0.189 HD
BRANCH  15  17
HETATM   17  C   UNL     1      41.198 -12.090   6.499  1.00  0.00     0.186 C 
HETATM   18  S   UNL     1      40.382 -11.460   5.183  1.00  0.00    -0.040 SA
BRANCH  17  19
HETATM   19  N   UNL     1      41.070 -11.466   7.705  1.00  0.00    -0.364 N 
HETATM   20  H   UNL     1      40.655 -12.068   8.415  1.00  0.00     0.162 HD
BRANCH  19  21
HETATM   21  C   UNL     1      41.959 -10.442   8.247  1.00  0.00     0.154 C 
BRANCH  21  22
HETATM   22  C   UNL     1      42.823 -11.012   9.373  1.00  0.00     0.139 C 
HETATM   23  O   UNL     1      44.177 -11.194   8.903  1.00  0.00    -0.384 OA
HETATM   24  C   UNL     1      45.080 -10.728   9.916  1.00  0.00     0.168 C 
HETATM   25  C   UNL     1      44.255 -10.496  11.164  1.00  0.00     0.029 C 
HETATM   26  C   UNL     1      42.917 -10.103  10.587  1.00  0.00     0.035 C 
ENDBRANCH  21  22
ENDBRANCH  19  21
ENDBRANCH  17  19
ENDBRANCH  15  17
ENDBRANCH  12  15
ENDBRANCH   7  11
BRANCH   1  27
HETATM   27  C   UNL     1      42.445 -16.127   2.121  1.00  0.00    -0.035 A 
HETATM   28  C   UNL     1      42.047 -16.906   1.021  1.00  0.00     0.012 A 
HETATM   29  C   UNL     1      41.497 -16.318  -0.124  1.00  0.00     0.037 A 
HETATM   30  C   UNL     1      41.337 -14.935  -0.193  1.00  0.00     0.068 A 
HETATM   31  C   UNL     1      41.769 -14.149   0.876  1.00  0.00     0.037 A 
HETATM   32  C   UNL     1      42.325 -14.735   2.018  1.00  0.00     0.012 A 
BRANCH  30  33
HETATM   33  O   UNL     1      40.795 -14.240  -1.238  1.00  0.00    -0.356 OA
HETATM   34  C   UNL     1      39.496 -13.695  -1.036  1.00  0.00     0.210 C 
ENDBRANCH  30  33
ENDBRANCH   1  27
BRANCH   8  35
HETATM   35  C   UNL     1      43.894 -19.433   4.938  1.00  0.00     0.409 C 
HETATM   36  F   UNL     1      45.086 -18.805   5.026  1.00  0.00    -0.169 F 
HETATM   37  F   UNL     1      43.933 -20.499   5.767  1.00  0.00    -0.169 F 
HETATM   38  F   UNL     1      43.812 -19.931   3.676  1.00  0.00    -0.169 F 
ENDBRANCH   8  35
TORSDOF 9
ENDMDL
MODEL 7
REMARK VINA RESULT:      -8.2      5.228      6.916
REMARK  9 active torsions:
REMARK  status: ('A' for Active; 'I' for Inactive)
REMARK    1  A    between atoms: O_2  and  C_3 
REMARK    2  A    between atoms: C_6  and  C_7 
REMARK    3  A    between atoms: C_13  and  C_14 
REMARK       I    between atoms: C_14  and  N_15 
REMARK    4  A    between atoms: N_15  and  N_16 
REMARK    5  A    between atoms: N_16  and  C_17 
REMARK    6  A    between atoms: C_17  and  N_18 
REMARK    7  A    between atoms: N_18  and  C_19 
REMARK    8  A    between atoms: C_19  and  C_20 
REMARK    9  A    between atoms: C_27  and  C_28 
ROOT
HETATM    1  C   UNL     1      42.499 -15.676   1.694  1.00  0.00     0.118 C 
HETATM    2  N   UNL     1      41.998 -15.715   0.328  1.00  0.00    -0.365 N 
HETATM    3  C   UNL     1      41.138 -14.780  -0.142  1.00  0.00     0.138 A 
HETATM    4  N   UNL     1      40.548 -13.884   0.711  1.00  0.00    -0.240 N 
HETATM    5  N   UNL     1      39.633 -13.098   0.122  1.00  0.00    -0.181 NA
HETATM    6  C   UNL     1      39.685 -13.485  -1.158  1.00  0.00     0.160 A 
HETATM    7  C   UNL     1      40.653 -14.494  -1.403  1.00  0.00     0.098 A 
HETATM    8  C   UNL     1      40.827 -13.808   2.133  1.00  0.00     0.221 C 
HETATM    9  C   UNL     1      41.388 -15.154   2.630  1.00  0.00     0.066 C 
HETATM   10  H   UNL     1      42.458 -16.363  -0.317  1.00  0.00     0.161 HD
ENDROOT
BRANCH   7  11
HETATM   11  C   UNL     1      41.044 -15.157  -2.635  1.00  0.00     0.275 C 
HETATM   12  N   UNL     1      42.061 -14.611  -3.396  1.00  0.00    -0.263 N 
HETATM   13  H   UNL     1      42.323 -15.144  -4.225  1.00  0.00     0.190 HD
HETATM   14  O   UNL     1      40.516 -16.203  -3.013  1.00  0.00    -0.266 OA
BRANCH  12  15
HETATM   15  N   UNL     1      43.021 -13.695  -2.925  1.00  0.00    -0.274 N 
HETATM   16  H   UNL     1      43.988 -13.908  -3.155  1.00  0.00     0.189 HD
BRANCH  15  17
HETATM   17  C   UNL     1      42.707 -12.354  -2.879  1.00  0.00     0.186 C 
HETATM   18  S   UNL     1      42.122 -11.449  -4.157  1.00  0.00    -0.040 SA
BRANCH  17  19
HETATM   19  N   UNL     1      42.862 -11.748  -1.668  1.00  0.00    -0.364 N 
HETATM   20  H   UNL     1      43.790 -11.895  -1.272  1.00  0.00     0.162 HD
BRANCH  19  21
HETATM   21  C   UNL     1      42.229 -10.505  -1.236  1.00  0.00     0.154 C 
BRANCH  21  22
HETATM   22  C   UNL     1      43.211  -9.639  -0.445  1.00  0.00     0.139 C 
HETATM   23  O   UNL     1      44.217  -9.107  -1.334  1.00  0.00    -0.384 OA
HETATM   24  C   UNL     1      44.426  -7.724  -1.014  1.00  0.00     0.168 C 
HETATM   25  C   UNL     1      43.712  -7.466   0.296  1.00  0.00     0.029 C 
HETATM   26  C   UNL     1      42.561  -8.439   0.223  1.00  0.00     0.035 C 
ENDBRANCH  21  22
ENDBRANCH  19  21
ENDBRANCH  17  19
ENDBRANCH  15  17
ENDBRANCH  12  15
ENDBRANCH   7  11
BRANCH   1  27
HETATM   27  C   UNL     1      43.039 -17.041   2.078  1.00  0.00    -0.035 A 
HETATM   28  C   UNL     1      43.094 -17.404   3.434  1.00  0.00     0.012 A 
HETATM   29  C   UNL     1      43.566 -18.661   3.831  1.00  0.00     0.037 A 
HETATM   30  C   UNL     1      43.997 -19.580   2.877  1.00  0.00     0.068 A 
HETATM   31  C   UNL     1      43.988 -19.215   1.531  1.00  0.00     0.037 A 
HETATM   32  C   UNL     1      43.522 -17.957   1.133  1.00  0.00     0.012 A 
BRANCH  30  33
HETATM   33  O   UNL     1      44.458 -20.843   3.127  1.00  0.00    -0.356 OA
HETATM   34  C   UNL     1      44.319 -21.793   2.077  1.00  0.00     0.210 C 
ENDBRANCH  30  33
ENDBRANCH   1  27
BRANCH   8  35
HETATM   35  C   UNL     1      41.768 -12.656   2.406  1.00  0.00     0.409 C 
HETATM   36  F   UNL     1      42.621 -12.411   1.388  1.00  0.00    -0.169 F 
HETATM   37  F   UNL     1      41.118 -11.503   2.678  1.00  0.00    -0.169 F 
HETATM   38  F   UNL     1      42.533 -12.930   3.495  1.00  0.00    -0.169 F 
ENDBRANCH   8  35
TORSDOF 9
ENDMDL
MODEL 8
REMARK VINA RESULT:      -8.1      2.562      3.350
REMARK  9 active torsions:
REMARK  status: ('A' for Active; 'I' for Inactive)
REMARK    1  A    between atoms: O_2  and  C_3 
REMARK    2  A    between atoms: C_6  and  C_7 
REMARK    3  A    between atoms: C_13  and  C_14 
REMARK       I    between atoms: C_14  and  N_15 
REMARK    4  A    between atoms: N_15  and  N_16 
REMARK    5  A    between atoms: N_16  and  C_17 
REMARK    6  A    between atoms: C_17  and  N_18 
REMARK    7  A    between atoms: N_18  and  C_19 
REMARK    8  A    between atoms: C_19  and  C_20 
REMARK    9  A    between atoms: C_27  and  C_28 
ROOT
HETATM    1  C   UNL     1      42.308 -17.037   3.593  1.00  0.00     0.118 C 
HETATM    2  N   UNL     1      43.052 -16.385   4.660  1.00  0.00    -0.365 N 
HETATM    3  C   UNL     1      42.947 -15.054   4.892  1.00  0.00     0.138 A 
HETATM    4  N   UNL     1      42.299 -14.241   4.001  1.00  0.00    -0.240 N 
HETATM    5  N   UNL     1      42.377 -12.935   4.303  1.00  0.00    -0.181 NA
HETATM    6  C   UNL     1      43.062 -12.935   5.452  1.00  0.00     0.160 A 
HETATM    7  C   UNL     1      43.397 -14.236   5.910  1.00  0.00     0.098 A 
HETATM    8  C   UNL     1      41.628 -14.714   2.804  1.00  0.00     0.221 C 
HETATM    9  C   UNL     1      42.206 -16.080   2.386  1.00  0.00     0.066 C 
HETATM   10  H   UNL     1      43.512 -16.993   5.343  1.00  0.00     0.161 HD
ENDROOT
BRANCH   7  11
HETATM   11  C   UNL     1      44.096 -14.673   7.106  1.00  0.00     0.275 C 
HETATM   12  N   UNL     1      44.390 -13.744   8.087  1.00  0.00    -0.263 N 
HETATM   13  H   UNL     1      44.840 -14.116   8.922  1.00  0.00     0.190 HD
HETATM   14  O   UNL     1      44.414 -15.848   7.288  1.00  0.00    -0.266 OA
BRANCH  12  15
HETATM   15  N   UNL     1      43.756 -12.495   8.234  1.00  0.00    -0.274 N 
HETATM   16  H   UNL     1      42.796 -12.444   7.905  1.00  0.00     0.189 HD
BRANCH  15  17
HETATM   17  C   UNL     1      44.045 -11.719   9.335  1.00  0.00     0.186 C 
HETATM   18  S   UNL     1      45.541 -11.073   9.703  1.00  0.00    -0.040 SA
BRANCH  17  19
HETATM   19  N   UNL     1      42.994 -11.440  10.158  1.00  0.00    -0.364 N 
HETATM   20  H   UNL     1      42.697 -12.250  10.702  1.00  0.00     0.162 HD
BRANCH  19  21
HETATM   21  C   UNL     1      42.722 -10.162  10.810  1.00  0.00     0.154 C 
BRANCH  21  22
HETATM   22  C   UNL     1      43.088 -10.218  12.295  1.00  0.00     0.139 C 
HETATM   23  O   UNL     1      43.225  -8.877  12.813  1.00  0.00    -0.384 OA
HETATM   24  C   UNL     1      42.576  -8.811  14.090  1.00  0.00     0.168 C 
HETATM   25  C   UNL     1      42.258 -10.236  14.492  1.00  0.00     0.029 C 
HETATM   26  C   UNL     1      42.035 -10.897  13.154  1.00  0.00     0.035 C 
ENDBRANCH  21  22
ENDBRANCH  19  21
ENDBRANCH  17  19
ENDBRANCH  15  17
ENDBRANCH  12  15
ENDBRANCH   7  11
BRANCH   1  27
HETATM   27  C   UNL     1      42.948 -18.374   3.269  1.00  0.00    -0.035 A 
HETATM   28  C   UNL     1      42.677 -18.986   2.034  1.00  0.00     0.012 A 
HETATM   29  C   UNL     1      43.261 -20.210   1.685  1.00  0.00     0.037 A 
HETATM   30  C   UNL     1      44.128 -20.848   2.570  1.00  0.00     0.068 A 
HETATM   31  C   UNL     1      44.371 -20.271   3.816  1.00  0.00     0.037 A 
HETATM   32  C   UNL     1      43.783 -19.051   4.168  1.00  0.00     0.012 A 
BRANCH  30  33
HETATM   33  O   UNL     1      44.780 -22.029   2.346  1.00  0.00    -0.356 OA
HETATM   34  C   UNL     1      44.900 -22.913   3.455  1.00  0.00     0.210 C 
ENDBRANCH  30  33
ENDBRANCH   1  27
BRANCH   8  35
HETATM   35  C   UNL     1      40.136 -14.768   3.044  1.00  0.00     0.409 C 
HETATM   36  F   UNL     1      39.522 -15.760   2.363  1.00  0.00    -0.169 F 
HETATM   37  F   UNL     1      39.821 -14.916   4.350  1.00  0.00    -0.169 F 
HETATM   38  F   UNL     1      39.559 -13.607   2.640  1.00  0.00    -0.169 F 
ENDBRANCH   8  35
TORSDOF 9
ENDMDL
MODEL 9
REMARK VINA RESULT:      -8.0      2.725      5.477
REMARK  9 active torsions:
REMARK  status: ('A' for Active; 'I' for Inactive)
REMARK    1  A    between atoms: O_2  and  C_3 
REMARK    2  A    between atoms: C_6  and  C_7 
REMARK    3  A    between atoms: C_13  and  C_14 
REMARK       I    between atoms: C_14  and  N_15 
REMARK    4  A    between atoms: N_15  and  N_16 
REMARK    5  A    between atoms: N_16  and  C_17 
REMARK    6  A    between atoms: C_17  and  N_18 
REMARK    7  A    between atoms: N_18  and  C_19 
REMARK    8  A    between atoms: C_19  and  C_20 
REMARK    9  A    between atoms: C_27  and  C_28 
ROOT
HETATM    1  C   UNL     1      41.486 -15.893   0.932  1.00  0.00     0.118 C 
HETATM    2  N   UNL     1      41.067 -15.601   2.294  1.00  0.00    -0.365 N 
HETATM    3  C   UNL     1      41.328 -16.450   3.317  1.00  0.00     0.138 A 
HETATM    4  N   UNL     1      41.812 -17.708   3.072  1.00  0.00    -0.240 N 
HETATM    5  N   UNL     1      41.910 -18.474   4.171  1.00  0.00    -0.181 NA
HETATM    6  C   UNL     1      41.516 -17.648   5.147  1.00  0.00     0.160 A 
HETATM    7  C   UNL     1      41.196 -16.343   4.688  1.00  0.00     0.098 A 
HETATM    8  C   UNL     1      42.144 -18.211   1.752  1.00  0.00     0.221 C 
HETATM    9  C   UNL     1      41.378 -17.412   0.680  1.00  0.00     0.066 C 
HETATM   10  H   UNL     1      40.733 -14.652   2.483  1.00  0.00     0.161 HD
ENDROOT
BRANCH   7  11
HETATM   11  C   UNL     1      40.765 -15.160   5.411  1.00  0.00     0.275 C 
HETATM   12  N   UNL     1      41.439 -14.794   6.561  1.00  0.00    -0.263 N 
HETATM   13  H   UNL     1      41.121 -13.931   7.000  1.00  0.00     0.190 HD
HETATM   14  O   UNL     1      39.832 -14.457   5.021  1.00  0.00    -0.266 OA
BRANCH  12  15
HETATM   15  N   UNL     1      42.737 -15.219   6.906  1.00  0.00    -0.274 N 
HETATM   16  H   UNL     1      42.883 -16.224   6.926  1.00  0.00     0.189 HD
BRANCH  15  17
HETATM   17  C   UNL     1      43.821 -14.473   6.498  1.00  0.00     0.186 C 
HETATM   18  S   UNL     1      44.037 -13.828   4.971  1.00  0.00    -0.040 SA
BRANCH  17  19
HETATM   19  N   UNL     1      44.766 -14.226   7.449  1.00  0.00    -0.364 N 
HETATM   20  H   UNL     1      45.339 -15.043   7.653  1.00  0.00     0.162 HD
BRANCH  19  21
HETATM   21  C   UNL     1      45.448 -12.956   7.680  1.00  0.00     0.154 C 
BRANCH  21  22
HETATM   22  C   UNL     1      44.771 -12.169   8.804  1.00  0.00     0.139 C 
HETATM   23  O   UNL     1      44.381 -13.071   9.862  1.00  0.00    -0.384 OA
HETATM   24  C   UNL     1      44.720 -12.474  11.122  1.00  0.00     0.168 C 
HETATM   25  C   UNL     1      45.092 -11.035  10.836  1.00  0.00     0.029 C 
HETATM   26  C   UNL     1      45.675 -11.130   9.447  1.00  0.00     0.035 C 
ENDBRANCH  21  22
ENDBRANCH  19  21
ENDBRANCH  17  19
ENDBRANCH  15  17
ENDBRANCH  12  15
ENDBRANCH   7  11
BRANCH   1  27
HETATM   27  C   UNL     1      40.684 -15.048  -0.041  1.00  0.00    -0.035 A 
HETATM   28  C   UNL     1      39.562 -14.340   0.424  1.00  0.00     0.012 A 
HETATM   29  C   UNL     1      38.806 -13.533  -0.434  1.00  0.00     0.037 A 
HETATM   30  C   UNL     1      39.155 -13.421  -1.778  1.00  0.00     0.068 A 
HETATM   31  C   UNL     1      40.241 -14.153  -2.260  1.00  0.00     0.037 A 
HETATM   32  C   UNL     1      40.994 -14.965  -1.405  1.00  0.00     0.012 A 
BRANCH  30  33
HETATM   33  O   UNL     1      38.519 -12.653  -2.713  1.00  0.00    -0.356 OA
HETATM   34  C   UNL     1      39.346 -11.951  -3.634  1.00  0.00     0.210 C 
ENDBRANCH  30  33
ENDBRANCH   1  27
BRANCH   8  35
HETATM   35  C   UNL     1      43.641 -18.160   1.549  1.00  0.00     0.409 C 
HETATM   36  F   UNL     1      44.246 -17.200   2.282  1.00  0.00    -0.169 F 
HETATM   37  F   UNL     1      44.249 -19.333   1.834  1.00  0.00    -0.169 F 
HETATM   38  F   UNL     1      43.924 -17.889   0.248  1.00  0.00    -0.169 F 
ENDBRANCH   8  35
TORSDOF 9
ENDMDL
MODEL 10
REMARK VINA RESULT:      -7.9      3.823      5.356
REMARK  9 active torsions:
REMARK  status: ('A' for Active; 'I' for Inactive)
REMARK    1  A    between atoms: O_2  and  C_3 
REMARK    2  A    between atoms: C_6  and  C_7 
REMARK    3  A    between atoms: C_13  and  C_14 
REMARK       I    between atoms: C_14  and  N_15 
REMARK    4  A    between atoms: N_15  and  N_16 
REMARK    5  A    between atoms: N_16  and  C_17 
REMARK    6  A    between atoms: C_17  and  N_18 
REMARK    7  A    between atoms: N_18  and  C_19 
REMARK    8  A    between atoms: C_19  and  C_20 
REMARK    9  A    between atoms: C_27  and  C_28 
ROOT
HETATM    1  C   UNL     1      43.263 -16.733   4.334  1.00  0.00     0.118 C 
HETATM    2  N   UNL     1      42.001 -16.319   3.741  1.00  0.00    -0.365 N 
HETATM    3  C   UNL     1      41.257 -15.321   4.275  1.00  0.00     0.138 A 
HETATM    4  N   UNL     1      41.561 -14.808   5.508  1.00  0.00    -0.240 N 
HETATM    5  N   UNL     1      40.669 -13.911   5.958  1.00  0.00    -0.181 NA
HETATM    6  C   UNL     1      39.797 -13.825   4.946  1.00  0.00     0.160 A 
HETATM    7  C   UNL     1      40.140 -14.637   3.834  1.00  0.00     0.098 A 
HETATM    8  C   UNL     1      42.706 -15.218   6.301  1.00  0.00     0.221 C 
HETATM    9  C   UNL     1      43.165 -16.624   5.870  1.00  0.00     0.066 C 
HETATM   10  H   UNL     1      41.787 -16.679   2.807  1.00  0.00     0.161 HD
ENDROOT
BRANCH   7  11
HETATM   11  C   UNL     1      39.491 -14.810   2.546  1.00  0.00     0.275 C 
HETATM   12  N   UNL     1      38.925 -13.711   1.928  1.00  0.00    -0.263 N 
HETATM   13  H   UNL     1      38.524 -13.884   1.007  1.00  0.00     0.190 HD
HETATM   14  O   UNL     1      39.448 -15.900   1.974  1.00  0.00    -0.266 OA
BRANCH  12  15
HETATM   15  N   UNL     1      39.235 -12.369   2.223  1.00  0.00    -0.274 N 
HETATM   16  H   UNL     1      40.048 -11.987   1.748  1.00  0.00     0.189 HD
BRANCH  15  17
HETATM   17  C   UNL     1      38.211 -11.475   2.450  1.00  0.00     0.186 C 
HETATM   18  S   UNL     1      37.071 -10.998   1.325  1.00  0.00    -0.040 SA
BRANCH  17  19
HETATM   19  N   UNL     1      38.123 -10.981   3.717  1.00  0.00    -0.364 N 
HETATM   20  H   UNL     1      38.510 -11.617   4.413  1.00  0.00     0.162 HD
BRANCH  19  21
HETATM   21  C   UNL     1      38.192  -9.574   4.103  1.00  0.00     0.154 C 
BRANCH  21  22
HETATM   22  C   UNL     1      39.245  -9.358   5.192  1.00  0.00     0.139 C 
HETATM   23  O   UNL     1      38.744  -9.843   6.456  1.00  0.00    -0.384 OA
HETATM   24  C   UNL     1      39.788 -10.575   7.112  1.00  0.00     0.168 C 
HETATM   25  C   UNL     1      41.062 -10.305   6.341  1.00  0.00     0.029 C 
HETATM   26  C   UNL     1      40.543 -10.105   4.938  1.00  0.00     0.035 C 
ENDBRANCH  21  22
ENDBRANCH  19  21
ENDBRANCH  17  19
ENDBRANCH  15  17
ENDBRANCH  12  15
ENDBRANCH   7  11
BRANCH   1  27
HETATM   27  C   UNL     1      43.630 -18.119   3.836  1.00  0.00    -0.035 A 
HETATM   28  C   UNL     1      43.146 -18.554   2.590  1.00  0.00     0.012 A 
HETATM   29  C   UNL     1      43.476 -19.816   2.083  1.00  0.00     0.037 A 
HETATM   30  C   UNL     1      44.295 -20.673   2.816  1.00  0.00     0.068 A 
HETATM   31  C   UNL     1      44.745 -20.269   4.073  1.00  0.00     0.037 A 
HETATM   32  C   UNL     1      44.412 -19.009   4.584  1.00  0.00     0.012 A 
BRANCH  30  33
HETATM   33  O   UNL     1      44.710 -21.917   2.429  1.00  0.00    -0.356 OA
HETATM   34  C   UNL     1      44.781 -22.911   3.445  1.00  0.00     0.210 C 
ENDBRANCH  30  33
ENDBRANCH   1  27
BRANCH   8  35
HETATM   35  C   UNL     1      43.807 -14.189   6.177  1.00  0.00     0.409 C 
HETATM   36  F   UNL     1      43.613 -13.103   6.956  1.00  0.00    -0.169 F 
HETATM   37  F   UNL     1      45.027 -14.689   6.472  1.00  0.00    -0.169 F 
HETATM   38  F   UNL     1      43.877 -13.739   4.897  1.00  0.00    -0.169 F 
ENDBRANCH   8  35
TORSDOF 9
ENDMDL
