MODEL 1
REMARK VINA RESULT:      -9.1      0.000      0.000
REMARK  7 active torsions:
REMARK  status: ('A' for Active; 'I' for Inactive)
REMARK    1  A    between atoms: O_2  and  C_3 
REMARK    2  A    between atoms: N_7  and  C_9 
REMARK    3  A    between atoms: C_9  and  C_10 
REMARK    4  A    between atoms: C_11  and  O_12 
REMARK    5  A    between atoms: C_22  and  N_23 
REMARK       I    between atoms: N_23  and  C_24 
REMARK    6  A    between atoms: C_24  and  C_25 
REMARK    7  A    between atoms: C_25  and  C_26 
ROOT
HETATM    1  C   UNL     1      42.152 -15.634   4.955  1.00  0.00     0.161 C 
HETATM    2  C   UNL     1      42.405 -16.386   3.588  1.00  0.00     0.019 C 
HETATM    3  C   UNL     1      43.286 -15.524   2.651  1.00  0.00     0.045 C 
HETATM    4  C   UNL     1      42.517 -14.365   2.021  1.00  0.00     0.236 C 
HETATM    5  N   UNL     1      41.266 -14.855   1.343  1.00  0.00    -0.067 N 
HETATM    6  H   UNL     1      40.736 -14.015   1.054  1.00  0.00     0.280 HD
HETATM    7  C   UNL     1      40.364 -15.600   2.290  1.00  0.00     0.236 C 
HETATM    8  C   UNL     1      41.103 -16.798   2.863  1.00  0.00     0.045 C 
HETATM    9  C   UNL     1      43.174 -17.611   4.034  1.00  0.00    -0.038 A 
HETATM   10  C   UNL     1      43.556 -17.526   5.373  1.00  0.00    -0.026 A 
HETATM   11  C   UNL     1      43.154 -16.225   6.002  1.00  0.00     0.148 C 
HETATM   12  C   UNL     1      43.526 -18.725   3.276  1.00  0.00     0.009 A 
HETATM   13  C   UNL     1      44.249 -19.757   3.880  1.00  0.00     0.001 A 
HETATM   14  C   UNL     1      44.616 -19.672   5.228  1.00  0.00     0.001 A 
HETATM   15  C   UNL     1      44.273 -18.551   5.982  1.00  0.00     0.010 A 
ENDROOT
BRANCH   1  16
HETATM   16  O   UNL     1      40.780 -15.822   5.353  1.00  0.00    -0.387 OA
HETATM   17  C   UNL     1      40.153 -14.620   5.798  1.00  0.00     0.202 C 
ENDBRANCH   1  16
BRANCH  11  18
HETATM   18  N   UNL     1      44.334 -15.412   6.236  1.00  0.00    -0.350 N 
HETATM   19  C   UNL     1      44.245 -14.085   6.597  1.00  0.00     0.223 C 
HETATM   20  O   UNL     1      43.201 -13.443   6.499  1.00  0.00    -0.273 OA
HETATM   21  H   UNL     1      45.201 -15.900   6.434  1.00  0.00     0.163 HD
BRANCH  19  22
HETATM   22  C   UNL     1      45.541 -13.483   7.112  1.00  0.00     0.148 C 
BRANCH  22  23
HETATM   23  C   UNL     1      45.311 -12.733   8.386  1.00  0.00    -0.009 A 
HETATM   24  S   UNL     1      46.325 -11.419   8.821  1.00  0.00    -0.106 SA
HETATM   25  C   UNL     1      45.515 -11.204  10.311  1.00  0.00     0.050 A 
HETATM   26  C   UNL     1      44.489 -12.108  10.476  1.00  0.00     0.008 A 
HETATM   27  C   UNL     1      44.369 -12.988   9.362  1.00  0.00     0.015 A 
ENDBRANCH  22  23
ENDBRANCH  19  22
ENDBRANCH  11  18
BRANCH   5  28
HETATM   28  C   UNL     1      41.487 -15.569   0.025  1.00  0.00     0.276 C 
BRANCH  28  29
HETATM   29  C   UNL     1      41.440 -14.653  -1.167  1.00  0.00     0.002 A 
HETATM   30  C   UNL     1      40.820 -15.057  -2.356  1.00  0.00     0.073 A 
HETATM   31  C   UNL     1      40.796 -14.232  -3.478  1.00  0.00     0.039 A 
HETATM   32  C   UNL     1      41.392 -12.971  -3.415  1.00  0.00     0.026 A 
HETATM   33  C   UNL     1      42.004 -12.551  -2.237  1.00  0.00     0.034 A 
HETATM   34 CL   UNL     1      42.723 -10.992  -2.153  1.00  0.00    -0.084 Cl
HETATM   35  C   UNL     1      42.036 -13.384  -1.117  1.00  0.00     0.035 A 
BRANCH  30  36
HETATM   36  O   UNL     1      40.209 -16.281  -2.377  1.00  0.00    -0.360 OA
HETATM   37  H   UNL     1      40.881 -16.950  -2.621  1.00  0.00     0.217 HD
ENDBRANCH  30  36
ENDBRANCH  28  29
ENDBRANCH   5  28
TORSDOF 7
ENDMDL
MODEL 2
REMARK VINA RESULT:      -9.0      4.136      8.387
REMARK  7 active torsions:
REMARK  status: ('A' for Active; 'I' for Inactive)
REMARK    1  A    between atoms: O_2  and  C_3 
REMARK    2  A    between atoms: N_7  and  C_9 
REMARK    3  A    between atoms: C_9  and  C_10 
REMARK    4  A    between atoms: C_11  and  O_12 
REMARK    5  A    between atoms: C_22  and  N_23 
REMARK       I    between atoms: N_23  and  C_24 
REMARK    6  A    between atoms: C_24  and  C_25 
REMARK    7  A    between atoms: C_25  and  C_26 
ROOT
HETATM    1  C   UNL     1      40.900 -14.258   2.097  1.00  0.00     0.161 C 
HETATM    2  C   UNL     1      41.737 -14.695   3.364  1.00  0.00     0.019 C 
HETATM    3  C   UNL     1      43.215 -14.945   2.977  1.00  0.00     0.045 C 
HETATM    4  C   UNL     1      43.414 -16.262   2.229  1.00  0.00     0.236 C 
HETATM    5  N   UNL     1      42.819 -17.411   2.997  1.00  0.00    -0.067 N 
HETATM    6  H   UNL     1      42.874 -18.241   2.383  1.00  0.00     0.280 HD
HETATM    7  C   UNL     1      41.354 -17.207   3.276  1.00  0.00     0.236 C 
HETATM    8  C   UNL     1      41.159 -15.935   4.084  1.00  0.00     0.045 C 
HETATM    9  C   UNL     1      41.638 -13.473   4.252  1.00  0.00    -0.038 A 
HETATM   10  C   UNL     1      41.074 -12.387   3.581  1.00  0.00    -0.026 A 
HETATM   11  C   UNL     1      40.766 -12.698   2.145  1.00  0.00     0.148 C 
HETATM   12  C   UNL     1      42.049 -13.339   5.576  1.00  0.00     0.009 A 
HETATM   13  C   UNL     1      41.871 -12.113   6.221  1.00  0.00     0.001 A 
HETATM   14  C   UNL     1      41.292 -11.032   5.547  1.00  0.00     0.001 A 
HETATM   15  C   UNL     1      40.891 -11.164   4.218  1.00  0.00     0.010 A 
ENDROOT
BRANCH   1  16
HETATM   16  O   UNL     1      39.617 -14.912   2.126  1.00  0.00    -0.387 OA
HETATM   17  C   UNL     1      38.635 -14.263   1.319  1.00  0.00     0.202 C 
ENDBRANCH   1  16
BRANCH  11  18
HETATM   18  N   UNL     1      41.690 -11.984   1.283  1.00  0.00    -0.350 N 
HETATM   19  C   UNL     1      41.257 -11.053   0.363  1.00  0.00     0.223 C 
HETATM   20  O   UNL     1      40.077 -10.951   0.034  1.00  0.00    -0.273 OA
HETATM   21  H   UNL     1      42.661 -11.946   1.575  1.00  0.00     0.163 HD
BRANCH  19  22
HETATM   22  C   UNL     1      42.357 -10.180  -0.214  1.00  0.00     0.148 C 
BRANCH  22  23
HETATM   23  C   UNL     1      42.456 -10.359  -1.697  1.00  0.00    -0.009 A 
HETATM   24  S   UNL     1      42.445  -9.000  -2.744  1.00  0.00    -0.106 SA
HETATM   25  C   UNL     1      42.496  -9.991  -4.136  1.00  0.00     0.050 A 
HETATM   26  C   UNL     1      42.527 -11.330  -3.815  1.00  0.00     0.008 A 
HETATM   27  C   UNL     1      42.508 -11.542  -2.407  1.00  0.00     0.015 A 
ENDBRANCH  22  23
ENDBRANCH  19  22
ENDBRANCH  11  18
BRANCH   5  28
HETATM   28  C   UNL     1      43.612 -17.853   4.210  1.00  0.00     0.276 C 
BRANCH  28  29
HETATM   29  C   UNL     1      43.997 -19.307   4.176  1.00  0.00     0.002 A 
HETATM   30  C   UNL     1      44.344 -19.983   5.352  1.00  0.00     0.073 A 
HETATM   31  C   UNL     1      44.733 -21.321   5.332  1.00  0.00     0.039 A 
HETATM   32  C   UNL     1      44.767 -22.006   4.117  1.00  0.00     0.026 A 
HETATM   33  C   UNL     1      44.416 -21.350   2.939  1.00  0.00     0.034 A 
HETATM   34 CL   UNL     1      44.443 -22.199   1.444  1.00  0.00    -0.084 Cl
HETATM   35  C   UNL     1      44.037 -20.007   2.960  1.00  0.00     0.035 A 
BRANCH  30  36
HETATM   36  O   UNL     1      44.263 -19.298   6.534  1.00  0.00    -0.360 OA
HETATM   37  H   UNL     1      44.946 -18.597   6.524  1.00  0.00     0.217 HD
ENDBRANCH  30  36
ENDBRANCH  28  29
ENDBRANCH   5  28
TORSDOF 7
ENDMDL
MODEL 3
REMARK VINA RESULT:      -9.0      3.971      7.071
REMARK  7 active torsions:
REMARK  status: ('A' for Active; 'I' for Inactive)
REMARK    1  A    between atoms: O_2  and  C_3 
REMARK    2  A    between atoms: N_7  and  C_9 
REMARK    3  A    between atoms: C_9  and  C_10 
REMARK    4  A    between atoms: C_11  and  O_12 
REMARK    5  A    between atoms: C_22  and  N_23 
REMARK       I    between atoms: N_23  and  C_24 
REMARK    6  A    between atoms: C_24  and  C_25 
REMARK    7  A    between atoms: C_25  and  C_26 
ROOT
HETATM    1  C   UNL     1      41.524 -12.711   2.496  1.00  0.00     0.161 C 
HETATM    2  C   UNL     1      40.852 -14.138   2.398  1.00  0.00     0.019 C 
HETATM    3  C   UNL     1      40.665 -14.745   3.810  1.00  0.00     0.045 C 
HETATM    4  C   UNL     1      41.974 -15.259   4.407  1.00  0.00     0.236 C 
HETATM    5  N   UNL     1      42.662 -16.205   3.461  1.00  0.00    -0.067 N 
HETATM    6  H   UNL     1      43.590 -16.411   3.868  1.00  0.00     0.280 HD
HETATM    7  C   UNL     1      42.936 -15.568   2.125  1.00  0.00     0.236 C 
HETATM    8  C   UNL     1      41.628 -15.122   1.493  1.00  0.00     0.045 C 
HETATM    9  C   UNL     1      39.501 -13.815   1.795  1.00  0.00    -0.038 A 
HETATM   10  C   UNL     1      39.263 -12.440   1.757  1.00  0.00    -0.026 A 
HETATM   11  C   UNL     1      40.381 -11.649   2.372  1.00  0.00     0.148 C 
HETATM   12  C   UNL     1      38.536 -14.704   1.328  1.00  0.00     0.009 A 
HETATM   13  C   UNL     1      37.342 -14.198   0.808  1.00  0.00     0.001 A 
HETATM   14  C   UNL     1      37.117 -12.818   0.759  1.00  0.00     0.001 A 
HETATM   15  C   UNL     1      38.078 -11.930   1.238  1.00  0.00     0.010 A 
ENDROOT
BRANCH   1  16
HETATM   16  O   UNL     1      42.504 -12.575   1.448  1.00  0.00    -0.387 OA
HETATM   17  C   UNL     1      42.197 -11.533   0.522  1.00  0.00     0.202 C 
ENDBRANCH   1  16
BRANCH  11  18
HETATM   18  N   UNL     1      39.939 -11.084   3.635  1.00  0.00    -0.350 N 
HETATM   19  C   UNL     1      39.850  -9.723   3.833  1.00  0.00     0.223 C 
HETATM   20  O   UNL     1      40.367  -8.910   3.069  1.00  0.00    -0.273 OA
HETATM   21  H   UNL     1      39.408 -11.689   4.252  1.00  0.00     0.163 HD
BRANCH  19  22
HETATM   22  C   UNL     1      39.075  -9.317   5.074  1.00  0.00     0.148 C 
BRANCH  22  23
HETATM   23  C   UNL     1      39.861  -9.609   6.313  1.00  0.00    -0.009 A 
HETATM   24  S   UNL     1      41.334  -8.787   6.627  1.00  0.00    -0.106 SA
HETATM   25  C   UNL     1      41.608  -9.689   8.053  1.00  0.00     0.050 A 
HETATM   26  C   UNL     1      40.598 -10.594   8.293  1.00  0.00     0.008 A 
HETATM   27  C   UNL     1      39.588 -10.545   7.291  1.00  0.00     0.015 A 
ENDBRANCH  22  23
ENDBRANCH  19  22
ENDBRANCH  11  18
BRANCH   5  28
HETATM   28  C   UNL     1      42.039 -17.582   3.361  1.00  0.00     0.276 C 
BRANCH  28  29
HETATM   29  C   UNL     1      43.036 -18.701   3.486  1.00  0.00     0.002 A 
HETATM   30  C   UNL     1      43.870 -18.795   4.607  1.00  0.00     0.073 A 
HETATM   31  C   UNL     1      44.821 -19.807   4.721  1.00  0.00     0.039 A 
HETATM   32  C   UNL     1      44.938 -20.755   3.703  1.00  0.00     0.026 A 
HETATM   33  C   UNL     1      44.109 -20.681   2.586  1.00  0.00     0.034 A 
HETATM   34 CL   UNL     1      44.242 -21.858   1.340  1.00  0.00    -0.084 Cl
HETATM   35  C   UNL     1      43.165 -19.660   2.469  1.00  0.00     0.035 A 
BRANCH  30  36
HETATM   36  O   UNL     1      43.707 -17.876   5.607  1.00  0.00    -0.360 OA
HETATM   37  H   UNL     1      42.898 -17.360   5.414  1.00  0.00     0.217 HD
ENDBRANCH  30  36
ENDBRANCH  28  29
ENDBRANCH   5  28
TORSDOF 7
ENDMDL
MODEL 4
REMARK VINA RESULT:      -8.8      3.849      8.565
REMARK  7 active torsions:
REMARK  status: ('A' for Active; 'I' for Inactive)
REMARK    1  A    between atoms: O_2  and  C_3 
REMARK    2  A    between atoms: N_7  and  C_9 
REMARK    3  A    between atoms: C_9  and  C_10 
REMARK    4  A    between atoms: C_11  and  O_12 
REMARK    5  A    between atoms: C_22  and  N_23 
REMARK       I    between atoms: N_23  and  C_24 
REMARK    6  A    between atoms: C_24  and  C_25 
REMARK    7  A    between atoms: C_25  and  C_26 
ROOT
HETATM    1  C   UNL     1      40.511 -14.472   2.698  1.00  0.00     0.161 C 
HETATM    2  C   UNL     1      41.013 -13.013   3.040  1.00  0.00     0.019 C 
HETATM    3  C   UNL     1      42.211 -13.068   4.018  1.00  0.00     0.045 C 
HETATM    4  C   UNL     1      41.790 -13.399   5.449  1.00  0.00     0.236 C 
HETATM    5  N   UNL     1      40.707 -12.467   5.919  1.00  0.00    -0.067 N 
HETATM    6  H   UNL     1      40.383 -12.824   6.835  1.00  0.00     0.280 HD
HETATM    7  C   UNL     1      39.500 -12.501   5.020  1.00  0.00     0.236 C 
HETATM    8  C   UNL     1      39.902 -12.100   3.610  1.00  0.00     0.045 C 
HETATM    9  C   UNL     1      41.474 -12.507   1.690  1.00  0.00    -0.038 A 
HETATM   10  C   UNL     1      41.501 -13.524   0.735  1.00  0.00    -0.026 A 
HETATM   11  C   UNL     1      41.121 -14.858   1.309  1.00  0.00     0.148 C 
HETATM   12  C   UNL     1      41.864 -11.215   1.346  1.00  0.00     0.009 A 
HETATM   13  C   UNL     1      42.264 -10.954   0.033  1.00  0.00     0.001 A 
HETATM   14  C   UNL     1      42.276 -11.976  -0.923  1.00  0.00     0.001 A 
HETATM   15  C   UNL     1      41.896 -13.271  -0.574  1.00  0.00     0.010 A 
ENDROOT
BRANCH   1  16
HETATM   16  O   UNL     1      39.071 -14.487   2.679  1.00  0.00    -0.387 OA
HETATM   17  C   UNL     1      38.528 -14.923   1.433  1.00  0.00     0.202 C 
ENDBRANCH   1  16
BRANCH  11  18
HETATM   18  N   UNL     1      42.295 -15.710   1.378  1.00  0.00    -0.350 N 
HETATM   19  C   UNL     1      42.213 -17.077   1.216  1.00  0.00     0.223 C 
HETATM   20  O   UNL     1      41.145 -17.684   1.257  1.00  0.00    -0.273 OA
HETATM   21  H   UNL     1      43.197 -15.269   1.237  1.00  0.00     0.163 HD
BRANCH  19  22
HETATM   22  C   UNL     1      43.549 -17.765   0.995  1.00  0.00     0.148 C 
BRANCH  22  23
HETATM   23  C   UNL     1      43.842 -18.726   2.105  1.00  0.00    -0.009 A 
HETATM   24  S   UNL     1      43.900 -18.189   3.733  1.00  0.00    -0.106 SA
HETATM   25  C   UNL     1      44.341 -19.742   4.297  1.00  0.00     0.050 A 
HETATM   26  C   UNL     1      44.437 -20.655   3.270  1.00  0.00     0.008 A 
HETATM   27  C   UNL     1      44.145 -20.070   2.006  1.00  0.00     0.015 A 
ENDBRANCH  22  23
ENDBRANCH  19  22
ENDBRANCH  11  18
BRANCH   5  28
HETATM   28  C   UNL     1      41.169 -11.066   6.263  1.00  0.00     0.276 C 
BRANCH  28  29
HETATM   29  C   UNL     1      41.318 -10.831   7.741  1.00  0.00     0.002 A 
HETATM   30  C   UNL     1      40.193 -10.645   8.554  1.00  0.00     0.073 A 
HETATM   31  C   UNL     1      40.317 -10.395   9.919  1.00  0.00     0.039 A 
HETATM   32  C   UNL     1      41.588 -10.340  10.493  1.00  0.00     0.026 A 
HETATM   33  C   UNL     1      42.717 -10.532   9.700  1.00  0.00     0.034 A 
HETATM   34 CL   UNL     1      44.282 -10.479  10.409  1.00  0.00    -0.084 Cl
HETATM   35  C   UNL     1      42.591 -10.771   8.330  1.00  0.00     0.035 A 
BRANCH  30  36
HETATM   36  O   UNL     1      38.958 -10.745   7.973  1.00  0.00    -0.360 OA
HETATM   37  H   UNL     1      38.284 -10.623   8.672  1.00  0.00     0.217 HD
ENDBRANCH  30  36
ENDBRANCH  28  29
ENDBRANCH   5  28
TORSDOF 7
ENDMDL
MODEL 5
REMARK VINA RESULT:      -8.6      4.100      9.368
REMARK  7 active torsions:
REMARK  status: ('A' for Active; 'I' for Inactive)
REMARK    1  A    between atoms: O_2  and  C_3 
REMARK    2  A    between atoms: N_7  and  C_9 
REMARK    3  A    between atoms: C_9  and  C_10 
REMARK    4  A    between atoms: C_11  and  O_12 
REMARK    5  A    between atoms: C_22  and  N_23 
REMARK       I    between atoms: N_23  and  C_24 
REMARK    6  A    between atoms: C_24  and  C_25 
REMARK    7  A    between atoms: C_25  and  C_26 
ROOT
HETATM    1  C   UNL     1      41.387 -14.751  -0.483  1.00  0.00     0.161 C 
HETATM    2  C   UNL     1      40.561 -14.858   0.860  1.00  0.00     0.019 C 
HETATM    3  C   UNL     1      41.350 -14.225   2.032  1.00  0.00     0.045 C 
HETATM    4  C   UNL     1      42.498 -15.110   2.515  1.00  0.00     0.236 C 
HETATM    5  N   UNL     1      42.010 -16.497   2.833  1.00  0.00    -0.067 N 
HETATM    6  H   UNL     1      42.848 -17.071   3.027  1.00  0.00     0.280 HD
HETATM    7  C   UNL     1      41.338 -17.146   1.652  1.00  0.00     0.236 C 
HETATM    8  C   UNL     1      40.150 -16.305   1.215  1.00  0.00     0.045 C 
HETATM    9  C   UNL     1      39.338 -14.020   0.553  1.00  0.00    -0.038 A 
HETATM   10  C   UNL     1      39.478 -13.314  -0.643  1.00  0.00    -0.026 A 
HETATM   11  C   UNL     1      40.821 -13.527  -1.280  1.00  0.00     0.148 C 
HETATM   12  C   UNL     1      38.178 -13.884   1.312  1.00  0.00     0.009 A 
HETATM   13  C   UNL     1      37.158 -13.049   0.850  1.00  0.00     0.001 A 
HETATM   14  C   UNL     1      37.299 -12.356  -0.358  1.00  0.00     0.001 A 
HETATM   15  C   UNL     1      38.465 -12.484  -1.111  1.00  0.00     0.010 A 
ENDROOT
BRANCH   1  16
HETATM   16  O   UNL     1      41.257 -15.982  -1.220  1.00  0.00    -0.387 OA
HETATM   17  C   UNL     1      40.972 -15.783  -2.604  1.00  0.00     0.202 C 
ENDBRANCH   1  16
BRANCH  11  18
HETATM   18  N   UNL     1      41.610 -12.314  -1.167  1.00  0.00    -0.350 N 
HETATM   19  C   UNL     1      42.687 -12.067  -1.992  1.00  0.00     0.223 C 
HETATM   20  O   UNL     1      43.199 -12.941  -2.688  1.00  0.00    -0.273 OA
HETATM   21  H   UNL     1      41.182 -11.524  -0.697  1.00  0.00     0.163 HD
BRANCH  19  22
HETATM   22  C   UNL     1      43.189 -10.634  -1.960  1.00  0.00     0.148 C 
BRANCH  22  23
HETATM   23  C   UNL     1      42.708  -9.874  -3.156  1.00  0.00    -0.009 A 
HETATM   24  S   UNL     1      42.350  -8.200  -3.040  1.00  0.00    -0.106 SA
HETATM   25  C   UNL     1      41.829  -8.134  -4.667  1.00  0.00     0.050 A 
HETATM   26  C   UNL     1      41.930  -9.358  -5.292  1.00  0.00     0.008 A 
HETATM   27  C   UNL     1      42.442 -10.361  -4.420  1.00  0.00     0.015 A 
ENDBRANCH  22  23
ENDBRANCH  19  22
ENDBRANCH  11  18
BRANCH   5  28
HETATM   28  C   UNL     1      41.225 -16.623   4.123  1.00  0.00     0.276 C 
BRANCH  28  29
HETATM   29  C   UNL     1      42.020 -17.222   5.251  1.00  0.00     0.002 A 
HETATM   30  C   UNL     1      42.144 -16.552   6.474  1.00  0.00     0.073 A 
HETATM   31  C   UNL     1      42.902 -17.079   7.517  1.00  0.00     0.039 A 
HETATM   32  C   UNL     1      43.544 -18.307   7.345  1.00  0.00     0.026 A 
HETATM   33  C   UNL     1      43.422 -18.990   6.138  1.00  0.00     0.034 A 
HETATM   34 CL   UNL     1      44.199 -20.510   5.931  1.00  0.00    -0.084 Cl
HETATM   35  C   UNL     1      42.670 -18.455   5.090  1.00  0.00     0.035 A 
BRANCH  30  36
HETATM   36  O   UNL     1      41.472 -15.370   6.629  1.00  0.00    -0.360 OA
HETATM   37  H   UNL     1      42.111 -14.698   6.944  1.00  0.00     0.217 HD
ENDBRANCH  30  36
ENDBRANCH  28  29
ENDBRANCH   5  28
TORSDOF 7
ENDMDL
MODEL 6
REMARK VINA RESULT:      -8.6      4.239      7.848
REMARK  7 active torsions:
REMARK  status: ('A' for Active; 'I' for Inactive)
REMARK    1  A    between atoms: O_2  and  C_3 
REMARK    2  A    between atoms: N_7  and  C_9 
REMARK    3  A    between atoms: C_9  and  C_10 
REMARK    4  A    between atoms: C_11  and  O_12 
REMARK    5  A    between atoms: C_22  and  N_23 
REMARK       I    between atoms: N_23  and  C_24 
REMARK    6  A    between atoms: C_24  and  C_25 
REMARK    7  A    between atoms: C_25  and  C_26 
ROOT
HETATM    1  C   UNL     1      41.840 -13.259   0.078  1.00  0.00     0.161 C 
HETATM    2  C   UNL     1      41.067 -14.367   0.899  1.00  0.00     0.019 C 
HETATM    3  C   UNL     1      41.495 -14.337   2.386  1.00  0.00     0.045 C 
HETATM    4  C   UNL     1      42.877 -14.946   2.614  1.00  0.00     0.236 C 
HETATM    5  N   UNL     1      42.960 -16.326   2.020  1.00  0.00    -0.067 N 
HETATM    6  H   UNL     1      43.948 -16.625   2.096  1.00  0.00     0.280 HD
HETATM    7  C   UNL     1      42.647 -16.329   0.548  1.00  0.00     0.236 C 
HETATM    8  C   UNL     1      41.243 -15.792   0.323  1.00  0.00     0.045 C 
HETATM    9  C   UNL     1      39.628 -13.918   0.768  1.00  0.00    -0.038 A 
HETATM   10  C   UNL     1      39.529 -12.645   0.202  1.00  0.00    -0.026 A 
HETATM   11  C   UNL     1      40.873 -12.038  -0.077  1.00  0.00     0.148 C 
HETATM   12  C   UNL     1      38.477 -14.601   1.154  1.00  0.00     0.009 A 
HETATM   13  C   UNL     1      37.231 -14.003   0.950  1.00  0.00     0.001 A 
HETATM   14  C   UNL     1      37.139 -12.734   0.369  1.00  0.00     0.001 A 
HETATM   15  C   UNL     1      38.292 -12.045  -0.006  1.00  0.00     0.010 A 
ENDROOT
BRANCH   1  16
HETATM   16  O   UNL     1      42.235 -13.801  -1.197  1.00  0.00    -0.387 OA
HETATM   17  C   UNL     1      42.512 -12.798  -2.174  1.00  0.00     0.202 C 
ENDBRANCH   1  16
BRANCH  11  18
HETATM   18  N   UNL     1      41.118 -10.950   0.853  1.00  0.00    -0.350 N 
HETATM   19  C   UNL     1      40.876  -9.635   0.517  1.00  0.00     0.223 C 
HETATM   20  O   UNL     1      40.688  -9.275  -0.644  1.00  0.00    -0.273 OA
HETATM   21  H   UNL     1      41.168 -11.185   1.839  1.00  0.00     0.163 HD
BRANCH  19  22
HETATM   22  C   UNL     1      40.874  -8.674   1.692  1.00  0.00     0.148 C 
BRANCH  22  23
HETATM   23  C   UNL     1      39.969  -9.164   2.779  1.00  0.00    -0.009 A 
HETATM   24  S   UNL     1      40.590  -9.529   4.336  1.00  0.00    -0.106 SA
HETATM   25  C   UNL     1      39.063 -10.057   4.892  1.00  0.00     0.050 A 
HETATM   26  C   UNL     1      38.095  -9.954   3.918  1.00  0.00     0.008 A 
HETATM   27  C   UNL     1      38.617  -9.434   2.700  1.00  0.00     0.015 A 
ENDBRANCH  22  23
ENDBRANCH  19  22
ENDBRANCH  11  18
BRANCH   5  28
HETATM   28  C   UNL     1      42.235 -17.405   2.798  1.00  0.00     0.276 C 
BRANCH  28  29
HETATM   29  C   UNL     1      43.101 -18.592   3.125  1.00  0.00     0.002 A 
HETATM   30  C   UNL     1      43.817 -18.645   4.327  1.00  0.00     0.073 A 
HETATM   31  C   UNL     1      44.647 -19.722   4.630  1.00  0.00     0.039 A 
HETATM   32  C   UNL     1      44.760 -20.777   3.722  1.00  0.00     0.026 A 
HETATM   33  C   UNL     1      44.046 -20.743   2.526  1.00  0.00     0.034 A 
HETATM   34 CL   UNL     1      44.172 -22.049   1.415  1.00  0.00    -0.084 Cl
HETATM   35  C   UNL     1      43.223 -19.657   2.221  1.00  0.00     0.035 A 
BRANCH  30  36
HETATM   36  O   UNL     1      43.656 -17.617   5.216  1.00  0.00    -0.360 OA
HETATM   37  H   UNL     1      44.476 -17.082   5.209  1.00  0.00     0.217 HD
ENDBRANCH  30  36
ENDBRANCH  28  29
ENDBRANCH   5  28
TORSDOF 7
ENDMDL
MODEL 7
REMARK VINA RESULT:      -8.5      4.708      9.895
REMARK  7 active torsions:
REMARK  status: ('A' for Active; 'I' for Inactive)
REMARK    1  A    between atoms: O_2  and  C_3 
REMARK    2  A    between atoms: N_7  and  C_9 
REMARK    3  A    between atoms: C_9  and  C_10 
REMARK    4  A    between atoms: C_11  and  O_12 
REMARK    5  A    between atoms: C_22  and  N_23 
REMARK       I    between atoms: N_23  and  C_24 
REMARK    6  A    between atoms: C_24  and  C_25 
REMARK    7  A    between atoms: C_25  and  C_26 
ROOT
HETATM    1  C   UNL     1      40.641 -12.493   0.560  1.00  0.00     0.161 C 
HETATM    2  C   UNL     1      40.744 -14.070   0.583  1.00  0.00     0.019 C 
HETATM    3  C   UNL     1      39.496 -14.685   1.262  1.00  0.00     0.045 C 
HETATM    4  C   UNL     1      39.516 -14.531   2.781  1.00  0.00     0.236 C 
HETATM    5  N   UNL     1      40.802 -15.058   3.358  1.00  0.00    -0.067 N 
HETATM    6  H   UNL     1      40.803 -14.809   4.362  1.00  0.00     0.280 HD
HETATM    7  C   UNL     1      42.008 -14.377   2.768  1.00  0.00     0.236 C 
HETATM    8  C   UNL     1      42.031 -14.591   1.264  1.00  0.00     0.045 C 
HETATM    9  C   UNL     1      40.749 -14.413  -0.892  1.00  0.00    -0.038 A 
HETATM   10  C   UNL     1      40.449 -13.304  -1.685  1.00  0.00    -0.026 A 
HETATM   11  C   UNL     1      40.148 -12.081  -0.868  1.00  0.00     0.148 C 
HETATM   12  C   UNL     1      40.989 -15.651  -1.483  1.00  0.00     0.009 A 
HETATM   13  C   UNL     1      40.941 -15.759  -2.875  1.00  0.00     0.001 A 
HETATM   14  C   UNL     1      40.653 -14.640  -3.665  1.00  0.00     0.001 A 
HETATM   15  C   UNL     1      40.402 -13.404  -3.071  1.00  0.00     0.010 A 
ENDROOT
BRANCH   1  16
HETATM   16  O   UNL     1      41.929 -11.927   0.871  1.00  0.00    -0.387 OA
HETATM   17  C   UNL     1      42.186 -10.701   0.186  1.00  0.00     0.202 C 
ENDBRANCH   1  16
BRANCH  11  18
HETATM   18  N   UNL     1      38.731 -11.776  -0.955  1.00  0.00    -0.350 N 
HETATM   19  C   UNL     1      38.229 -10.911  -1.904  1.00  0.00     0.223 C 
HETATM   20  O   UNL     1      38.949 -10.160  -2.559  1.00  0.00    -0.273 OA
HETATM   21  H   UNL     1      38.088 -12.431  -0.524  1.00  0.00     0.163 HD
BRANCH  19  22
HETATM   22  C   UNL     1      36.719 -10.957  -2.062  1.00  0.00     0.148 C 
BRANCH  22  23
HETATM   23  C   UNL     1      36.330 -11.834  -3.211  1.00  0.00    -0.009 A 
HETATM   24  S   UNL     1      34.958 -11.459  -4.169  1.00  0.00    -0.106 SA
HETATM   25  C   UNL     1      35.149 -12.874  -5.110  1.00  0.00     0.050 A 
HETATM   26  C   UNL     1      36.238 -13.616  -4.710  1.00  0.00     0.008 A 
HETATM   27  C   UNL     1      36.922 -13.013  -3.616  1.00  0.00     0.015 A 
ENDBRANCH  22  23
ENDBRANCH  19  22
ENDBRANCH  11  18
BRANCH   5  28
HETATM   28  C   UNL     1      40.917 -16.568   3.400  1.00  0.00     0.276 C 
BRANCH  28  29
HETATM   29  C   UNL     1      41.685 -17.077   4.588  1.00  0.00     0.002 A 
HETATM   30  C   UNL     1      41.264 -16.784   5.891  1.00  0.00     0.073 A 
HETATM   31  C   UNL     1      41.982 -17.221   7.002  1.00  0.00     0.039 A 
HETATM   32  C   UNL     1      43.139 -17.979   6.814  1.00  0.00     0.026 A 
HETATM   33  C   UNL     1      43.565 -18.288   5.525  1.00  0.00     0.034 A 
HETATM   34 CL   UNL     1      44.981 -19.235   5.293  1.00  0.00    -0.084 Cl
HETATM   35  C   UNL     1      42.850 -17.839   4.413  1.00  0.00     0.035 A 
BRANCH  30  36
HETATM   36  O   UNL     1      40.105 -16.073   6.047  1.00  0.00    -0.360 OA
HETATM   37  H   UNL     1      39.359 -16.708   6.048  1.00  0.00     0.217 HD
ENDBRANCH  30  36
ENDBRANCH  28  29
ENDBRANCH   5  28
TORSDOF 7
ENDMDL
MODEL 8
REMARK VINA RESULT:      -8.4      1.877      2.084
REMARK  7 active torsions:
REMARK  status: ('A' for Active; 'I' for Inactive)
REMARK    1  A    between atoms: O_2  and  C_3 
REMARK    2  A    between atoms: N_7  and  C_9 
REMARK    3  A    between atoms: C_9  and  C_10 
REMARK    4  A    between atoms: C_11  and  O_12 
REMARK    5  A    between atoms: C_22  and  N_23 
REMARK       I    between atoms: N_23  and  C_24 
REMARK    6  A    between atoms: C_24  and  C_25 
REMARK    7  A    between atoms: C_25  and  C_26 
ROOT
HETATM    1  C   UNL     1      41.905 -15.291   4.579  1.00  0.00     0.161 C 
HETATM    2  C   UNL     1      42.077 -15.819   3.099  1.00  0.00     0.019 C 
HETATM    3  C   UNL     1      43.001 -14.875   2.292  1.00  0.00     0.045 C 
HETATM    4  C   UNL     1      42.307 -13.576   1.886  1.00  0.00     0.236 C 
HETATM    5  N   UNL     1      41.011 -13.859   1.175  1.00  0.00    -0.067 N 
HETATM    6  H   UNL     1      40.538 -12.949   1.045  1.00  0.00     0.280 HD
HETATM    7  C   UNL     1      40.075 -14.688   2.013  1.00  0.00     0.236 C 
HETATM    8  C   UNL     1      40.735 -16.013   2.357  1.00  0.00     0.045 C 
HETATM    9  C   UNL     1      42.763 -17.151   3.312  1.00  0.00    -0.038 A 
HETATM   10  C   UNL     1      43.176 -17.319   4.635  1.00  0.00    -0.026 A 
HETATM   11  C   UNL     1      42.882 -16.116   5.483  1.00  0.00     0.148 C 
HETATM   12  C   UNL     1      43.020 -18.144   2.370  1.00  0.00     0.009 A 
HETATM   13  C   UNL     1      43.676 -19.309   2.772  1.00  0.00     0.001 A 
HETATM   14  C   UNL     1      44.074 -19.477   4.103  1.00  0.00     0.001 A 
HETATM   15  C   UNL     1      43.828 -18.477   5.043  1.00  0.00     0.010 A 
ENDROOT
BRANCH   1  16
HETATM   16  O   UNL     1      40.531 -15.448   4.983  1.00  0.00    -0.387 OA
HETATM   17  C   UNL     1      40.000 -14.295   5.635  1.00  0.00     0.202 C 
ENDBRANCH   1  16
BRANCH  11  18
HETATM   18  N   UNL     1      44.122 -15.437   5.811  1.00  0.00    -0.350 N 
HETATM   19  C   UNL     1      44.137 -14.187   6.394  1.00  0.00     0.223 C 
HETATM   20  O   UNL     1      43.140 -13.469   6.440  1.00  0.00    -0.273 OA
HETATM   21  H   UNL     1      44.955 -16.009   5.896  1.00  0.00     0.163 HD
BRANCH  19  22
HETATM   22  C   UNL     1      45.483 -13.772   6.960  1.00  0.00     0.148 C 
BRANCH  22  23
HETATM   23  C   UNL     1      45.309 -12.884   8.152  1.00  0.00    -0.009 A 
HETATM   24  S   UNL     1      46.450 -11.651   8.497  1.00  0.00    -0.106 SA
HETATM   25  C   UNL     1      45.636 -11.211   9.934  1.00  0.00     0.050 A 
HETATM   26  C   UNL     1      44.514 -11.980  10.148  1.00  0.00     0.008 A 
HETATM   27  C   UNL     1      44.323 -12.943   9.117  1.00  0.00     0.015 A 
ENDBRANCH  22  23
ENDBRANCH  19  22
ENDBRANCH  11  18
BRANCH   5  28
HETATM   28  C   UNL     1      41.154 -14.356  -0.249  1.00  0.00     0.276 C 
BRANCH  28  29
HETATM   29  C   UNL     1      40.143 -13.766  -1.193  1.00  0.00     0.002 A 
HETATM   30  C   UNL     1      39.973 -12.379  -1.285  1.00  0.00     0.073 A 
HETATM   31  C   UNL     1      39.018 -11.819  -2.131  1.00  0.00     0.039 A 
HETATM   32  C   UNL     1      38.221 -12.657  -2.914  1.00  0.00     0.026 A 
HETATM   33  C   UNL     1      38.385 -14.038  -2.841  1.00  0.00     0.034 A 
HETATM   34 CL   UNL     1      37.415 -15.069  -3.817  1.00  0.00    -0.084 Cl
HETATM   35  C   UNL     1      39.335 -14.597  -1.984  1.00  0.00     0.035 A 
BRANCH  30  36
HETATM   36  O   UNL     1      40.794 -11.581  -0.536  1.00  0.00    -0.360 OA
HETATM   37  H   UNL     1      41.286 -10.996  -1.148  1.00  0.00     0.217 HD
ENDBRANCH  30  36
ENDBRANCH  28  29
ENDBRANCH   5  28
TORSDOF 7
ENDMDL
MODEL 9
REMARK VINA RESULT:      -8.3      3.946      7.333
REMARK  7 active torsions:
REMARK  status: ('A' for Active; 'I' for Inactive)
REMARK    1  A    between atoms: O_2  and  C_3 
REMARK    2  A    between atoms: N_7  and  C_9 
REMARK    3  A    between atoms: C_9  and  C_10 
REMARK    4  A    between atoms: C_11  and  O_12 
REMARK    5  A    between atoms: C_22  and  N_23 
REMARK       I    between atoms: N_23  and  C_24 
REMARK    6  A    between atoms: C_24  and  C_25 
REMARK    7  A    between atoms: C_25  and  C_26 
ROOT
HETATM    1  C   UNL     1      41.474 -16.037   5.203  1.00  0.00     0.161 C 
HETATM    2  C   UNL     1      41.446 -14.758   4.274  1.00  0.00     0.019 C 
HETATM    3  C   UNL     1      42.776 -13.976   4.391  1.00  0.00     0.045 C 
HETATM    4  C   UNL     1      42.883 -13.186   5.694  1.00  0.00     0.236 C 
HETATM    5  N   UNL     1      41.679 -12.305   5.889  1.00  0.00    -0.067 N 
HETATM    6  H   UNL     1      41.755 -11.903   6.839  1.00  0.00     0.280 HD
HETATM    7  C   UNL     1      40.396 -13.091   5.882  1.00  0.00     0.236 C 
HETATM    8  C   UNL     1      40.250 -13.820   4.556  1.00  0.00     0.045 C 
HETATM    9  C   UNL     1      41.327 -15.368   2.894  1.00  0.00    -0.038 A 
HETATM   10  C   UNL     1      41.504 -16.752   2.919  1.00  0.00    -0.026 A 
HETATM   11  C   UNL     1      41.819 -17.264   4.294  1.00  0.00     0.148 C 
HETATM   12  C   UNL     1      41.095 -14.715   1.685  1.00  0.00     0.009 A 
HETATM   13  C   UNL     1      41.025 -15.467   0.510  1.00  0.00     0.001 A 
HETATM   14  C   UNL     1      41.189 -16.857   0.545  1.00  0.00     0.001 A 
HETATM   15  C   UNL     1      41.433 -17.507   1.753  1.00  0.00     0.010 A 
ENDROOT
BRANCH   1  16
HETATM   16  O   UNL     1      40.193 -16.184   5.847  1.00  0.00    -0.387 OA
HETATM   17  C   UNL     1      40.118 -17.328   6.697  1.00  0.00     0.202 C 
ENDBRANCH   1  16
BRANCH  11  18
HETATM   18  N   UNL     1      43.207 -17.687   4.350  1.00  0.00    -0.350 N 
HETATM   19  C   UNL     1      43.689 -18.468   5.379  1.00  0.00     0.223 C 
HETATM   20  O   UNL     1      43.065 -18.643   6.423  1.00  0.00    -0.273 OA
HETATM   21  H   UNL     1      43.733 -17.667   3.484  1.00  0.00     0.163 HD
BRANCH  19  22
HETATM   22  C   UNL     1      45.054 -19.080   5.117  1.00  0.00     0.148 C 
BRANCH  22  23
HETATM   23  C   UNL     1      44.919 -20.445   4.518  1.00  0.00    -0.009 A 
HETATM   24  S   UNL     1      44.664 -20.638   2.833  1.00  0.00    -0.106 SA
HETATM   25  C   UNL     1      44.541 -22.337   2.981  1.00  0.00     0.050 A 
HETATM   26  C   UNL     1      44.697 -22.754   4.284  1.00  0.00     0.008 A 
HETATM   27  C   UNL     1      44.919 -21.662   5.171  1.00  0.00     0.015 A 
ENDBRANCH  22  23
ENDBRANCH  19  22
ENDBRANCH  11  18
BRANCH   5  28
HETATM   28  C   UNL     1      41.639 -11.068   5.015  1.00  0.00     0.276 C 
BRANCH  28  29
HETATM   29  C   UNL     1      40.670 -10.025   5.499  1.00  0.00     0.002 A 
HETATM   30  C   UNL     1      40.895  -9.340   6.699  1.00  0.00     0.073 A 
HETATM   31  C   UNL     1      39.990  -8.394   7.176  1.00  0.00     0.039 A 
HETATM   32  C   UNL     1      38.839  -8.113   6.436  1.00  0.00     0.026 A 
HETATM   33  C   UNL     1      38.606  -8.779   5.236  1.00  0.00     0.034 A 
HETATM   34 CL   UNL     1      37.198  -8.422   4.317  1.00  0.00    -0.084 Cl
HETATM   35  C   UNL     1      39.509  -9.734   4.766  1.00  0.00     0.035 A 
BRANCH  30  36
HETATM   36  O   UNL     1      42.050  -9.606   7.383  1.00  0.00    -0.360 OA
HETATM   37  H   UNL     1      41.809  -9.845   8.301  1.00  0.00     0.217 HD
ENDBRANCH  30  36
ENDBRANCH  28  29
ENDBRANCH   5  28
TORSDOF 7
ENDMDL
MODEL 10
REMARK VINA RESULT:      -8.3      4.845      8.083
REMARK  7 active torsions:
REMARK  status: ('A' for Active; 'I' for Inactive)
REMARK    1  A    between atoms: O_2  and  C_3 
REMARK    2  A    between atoms: N_7  and  C_9 
REMARK    3  A    between atoms: C_9  and  C_10 
REMARK    4  A    between atoms: C_11  and  O_12 
REMARK    5  A    between atoms: C_22  and  N_23 
REMARK       I    between atoms: N_23  and  C_24 
REMARK    6  A    between atoms: C_24  and  C_25 
REMARK    7  A    between atoms: C_25  and  C_26 
ROOT
HETATM    1  C   UNL     1      41.526 -12.385   2.248  1.00  0.00     0.161 C 
HETATM    2  C   UNL     1      40.846 -13.803   2.409  1.00  0.00     0.019 C 
HETATM    3  C   UNL     1      40.637 -14.136   3.906  1.00  0.00     0.045 C 
HETATM    4  C   UNL     1      41.934 -14.534   4.608  1.00  0.00     0.236 C 
HETATM    5  N   UNL     1      42.629 -15.642   3.864  1.00  0.00    -0.067 N 
HETATM    6  H   UNL     1      43.550 -15.772   4.316  1.00  0.00     0.280 HD
HETATM    7  C   UNL     1      42.925 -15.267   2.437  1.00  0.00     0.236 C 
HETATM    8  C   UNL     1      41.627 -14.941   1.714  1.00  0.00     0.045 C 
HETATM    9  C   UNL     1      39.505 -13.593   1.737  1.00  0.00    -0.038 A 
HETATM   10  C   UNL     1      39.277 -12.249   1.440  1.00  0.00    -0.026 A 
HETATM   11  C   UNL     1      40.390 -11.361   1.912  1.00  0.00     0.148 C 
HETATM   12  C   UNL     1      38.541 -14.550   1.430  1.00  0.00     0.009 A 
HETATM   13  C   UNL     1      37.358 -14.146   0.808  1.00  0.00     0.001 A 
HETATM   14  C   UNL     1      37.141 -12.799   0.499  1.00  0.00     0.001 A 
HETATM   15  C   UNL     1      38.102 -11.840   0.818  1.00  0.00     0.010 A 
ENDROOT
BRANCH   1  16
HETATM   16  O   UNL     1      42.520 -12.451   1.207  1.00  0.00    -0.387 OA
HETATM   17  C   UNL     1      42.317 -11.488   0.173  1.00  0.00     0.202 C 
ENDBRANCH   1  16
BRANCH  11  18
HETATM   18  N   UNL     1      39.936 -10.569   3.041  1.00  0.00    -0.350 N 
HETATM   19  C   UNL     1      40.241  -9.230   3.162  1.00  0.00     0.223 C 
HETATM   20  O   UNL     1      41.108  -8.687   2.480  1.00  0.00    -0.273 OA
HETATM   21  H   UNL     1      39.146 -10.924   3.568  1.00  0.00     0.163 HD
BRANCH  19  22
HETATM   22  C   UNL     1      39.429  -8.492   4.211  1.00  0.00     0.148 C 
BRANCH  22  23
HETATM   23  C   UNL     1      38.004  -8.346   3.777  1.00  0.00    -0.009 A 
HETATM   24  S   UNL     1      37.623  -7.725   2.223  1.00  0.00    -0.106 SA
HETATM   25  C   UNL     1      35.944  -7.795   2.537  1.00  0.00     0.050 A 
HETATM   26  C   UNL     1      35.674  -8.287   3.794  1.00  0.00     0.008 A 
HETATM   27  C   UNL     1      36.863  -8.609   4.508  1.00  0.00     0.015 A 
ENDBRANCH  22  23
ENDBRANCH  19  22
ENDBRANCH  11  18
BRANCH   5  28
HETATM   28  C   UNL     1      41.998 -17.011   4.014  1.00  0.00     0.276 C 
BRANCH  28  29
HETATM   29  C   UNL     1      43.001 -18.133   4.037  1.00  0.00     0.002 A 
HETATM   30  C   UNL     1      43.922 -18.248   5.086  1.00  0.00     0.073 A 
HETATM   31  C   UNL     1      44.877 -19.262   5.104  1.00  0.00     0.039 A 
HETATM   32  C   UNL     1      44.910 -20.191   4.062  1.00  0.00     0.026 A 
HETATM   33  C   UNL     1      43.995 -20.096   3.017  1.00  0.00     0.034 A 
HETATM   34 CL   UNL     1      44.025 -21.249   1.743  1.00  0.00    -0.084 Cl
HETATM   35  C   UNL     1      43.046 -19.072   2.996  1.00  0.00     0.035 A 
BRANCH  30  36
HETATM   36  O   UNL     1      43.841 -17.348   6.113  1.00  0.00    -0.360 OA
HETATM   37  H   UNL     1      42.972 -17.466   6.550  1.00  0.00     0.217 HD
ENDBRANCH  30  36
ENDBRANCH  28  29
ENDBRANCH   5  28
TORSDOF 7
ENDMDL
